MODEL 1
REMARK VINA RESULT:      -7.9      0.000      0.000
REMARK  8 active torsions:
REMARK  status: ('A' for Active; 'I' for Inactive)
REMARK    1  A    between atoms: O_2  and  C_3 
REMARK    2  A    between atoms: C_6  and  C_7 
REMARK    3  A    between atoms: C_11  and  S_12 
REMARK    4  A    between atoms: S_12  and  C_13 
REMARK    5  A    between atoms: C_13  and  C_14 
REMARK       I    between atoms: C_14  and  N_15 
REMARK    6  A    between atoms: N_15  and  C_16 
REMARK    7  A    between atoms: C_17  and  C_18 
REMARK       I    between atoms: C_18  and  N_19 
REMARK    8  A    between atoms: N_19  and  C_20 
ROOT
HETATM    1  C   UNL     1     -43.200  59.384 -55.908  1.00  0.00     0.231 C 
HETATM    2  N   UNL     1     -42.096  59.095 -56.683  1.00  0.00    -0.326 N 
HETATM    3  O   UNL     1     -44.176  60.011 -56.328  1.00  0.00    -0.272 OA
HETATM    4  H   UNL     1     -41.548  58.296 -56.371  1.00  0.00     0.169 HD
ENDROOT
BRANCH   1   5
HETATM    5  C   UNL     1     -43.119  58.962 -54.445  1.00  0.00     0.185 C 
BRANCH   5   6
HETATM    6  S   UNL     1     -44.427  57.805 -53.912  1.00  0.00    -0.081 SA
BRANCH   6   7
HETATM    7  C   UNL     1     -43.647  56.307 -54.216  1.00  0.00     0.185 A 
HETATM    8  N   UNL     1     -43.814  55.566 -55.339  1.00  0.00    -0.253 N 
HETATM    9  N   UNL     1     -43.072  54.440 -55.280  1.00  0.00    -0.152 NA
HETATM   10  H   UNL     1     -44.395  55.749 -56.148  1.00  0.00     0.191 HD
HETATM   11  C   UNL     1     -42.468  54.563 -54.083  1.00  0.00     0.182 A 
HETATM   12  N   UNL     1     -42.789  55.729 -53.423  1.00  0.00    -0.201 NA
BRANCH  11  13
HETATM   13  C   UNL     1     -41.548  53.599 -53.490  1.00  0.00     0.014 A 
HETATM   14  C   UNL     1     -41.183  53.666 -52.143  1.00  0.00     0.018 A 
HETATM   15  C   UNL     1     -40.307  52.716 -51.602  1.00  0.00     0.037 A 
HETATM   16  C   UNL     1     -39.785  51.689 -52.393  1.00  0.00     0.068 A 
HETATM   17  C   UNL     1     -40.131  51.626 -53.740  1.00  0.00     0.037 A 
HETATM   18  C   UNL     1     -41.006  52.574 -54.283  1.00  0.00     0.018 A 
BRANCH  16  19
HETATM   19  O   UNL     1     -38.951  50.823 -51.740  1.00  0.00    -0.356 OA
HETATM   20  C   UNL     1     -39.569  49.873 -50.879  1.00  0.00     0.210 C 
ENDBRANCH  16  19
ENDBRANCH  11  13
ENDBRANCH   6   7
ENDBRANCH   5   6
ENDBRANCH   1   5
BRANCH   2  21
HETATM   21  C   UNL     1     -41.974  59.447 -58.040  1.00  0.00     0.050 A 
HETATM   22  C   UNL     1     -42.321  58.600 -59.106  1.00  0.00     0.058 A 
HETATM   23  C   UNL     1     -42.230  59.066 -60.428  1.00  0.00     0.019 A 
HETATM   24  C   UNL     1     -41.791  60.362 -60.691  1.00  0.00     0.001 A 
HETATM   25  C   UNL     1     -41.480  61.215 -59.635  1.00  0.00     0.002 A 
HETATM   26  C   UNL     1     -41.591  60.766 -58.316  1.00  0.00     0.030 A 
BRANCH  22  27
HETATM   27  C   UNL     1     -43.045  57.322 -58.929  1.00  0.00     0.254 C 
HETATM   28  N   UNL     1     -44.029  57.046 -59.848  1.00  0.00    -0.352 N 
HETATM   29  H   UNL     1     -44.126  57.674 -60.649  1.00  0.00     0.163 HD
HETATM   30  O   UNL     1     -42.765  56.610 -57.968  1.00  0.00    -0.268 OA
BRANCH  28  31
HETATM   31  C   UNL     1     -44.785  55.834 -59.831  1.00  0.00     0.084 A 
HETATM   32  C   UNL     1     -46.155  55.787 -60.447  1.00  0.00     0.027 A 
HETATM   33  C   UNL     1     -45.015  55.061 -61.101  1.00  0.00     0.027 A 
ENDBRANCH  28  31
ENDBRANCH  22  27
ENDBRANCH   2  21
TORSDOF 8
ENDMDL
MODEL 2
REMARK VINA RESULT:      -7.8      2.049      3.886
REMARK  8 active torsions:
REMARK  status: ('A' for Active; 'I' for Inactive)
REMARK    1  A    between atoms: O_2  and  C_3 
REMARK    2  A    between atoms: C_6  and  C_7 
REMARK    3  A    between atoms: C_11  and  S_12 
REMARK    4  A    between atoms: S_12  and  C_13 
REMARK    5  A    between atoms: C_13  and  C_14 
REMARK       I    between atoms: C_14  and  N_15 
REMARK    6  A    between atoms: N_15  and  C_16 
REMARK    7  A    between atoms: C_17  and  C_18 
REMARK       I    between atoms: C_18  and  N_19 
REMARK    8  A    between atoms: N_19  and  C_20 
ROOT
HETATM    1  C   UNL     1     -44.480  58.018 -55.490  1.00  0.00     0.231 C 
HETATM    2  N   UNL     1     -43.242  57.670 -55.988  1.00  0.00    -0.326 N 
HETATM    3  O   UNL     1     -45.474  58.183 -56.203  1.00  0.00    -0.272 OA
HETATM    4  H   UNL     1     -42.621  57.217 -55.322  1.00  0.00     0.169 HD
ENDROOT
BRANCH   1   5
HETATM    5  C   UNL     1     -44.546  58.286 -53.990  1.00  0.00     0.185 C 
BRANCH   5   6
HETATM    6  S   UNL     1     -43.003  58.939 -53.265  1.00  0.00    -0.081 SA
BRANCH   6   7
HETATM    7  C   UNL     1     -42.362  57.503 -52.577  1.00  0.00     0.185 A 
HETATM    8  N   UNL     1     -42.244  57.273 -51.247  1.00  0.00    -0.253 N 
HETATM    9  N   UNL     1     -41.699  56.059 -51.021  1.00  0.00    -0.152 NA
HETATM   10  H   UNL     1     -42.494  57.870 -50.468  1.00  0.00     0.191 HD
HETATM   11  C   UNL     1     -41.513  55.597 -52.271  1.00  0.00     0.182 A 
HETATM   12  N   UNL     1     -41.945  56.466 -53.248  1.00  0.00    -0.201 NA
BRANCH  11  13
HETATM   13  C   UNL     1     -40.924  54.310 -52.625  1.00  0.00     0.014 A 
HETATM   14  C   UNL     1     -40.856  53.874 -53.951  1.00  0.00     0.018 A 
HETATM   15  C   UNL     1     -40.273  52.638 -54.258  1.00  0.00     0.037 A 
HETATM   16  C   UNL     1     -39.750  51.822 -53.251  1.00  0.00     0.068 A 
HETATM   17  C   UNL     1     -39.829  52.243 -51.925  1.00  0.00     0.037 A 
HETATM   18  C   UNL     1     -40.412  53.477 -51.617  1.00  0.00     0.018 A 
BRANCH  16  19
HETATM   19  O   UNL     1     -39.200  50.648 -53.686  1.00  0.00    -0.356 OA
HETATM   20  C   UNL     1     -40.004  49.849 -54.546  1.00  0.00     0.210 C 
ENDBRANCH  16  19
ENDBRANCH  11  13
ENDBRANCH   6   7
ENDBRANCH   5   6
ENDBRANCH   1   5
BRANCH   2  21
HETATM   21  C   UNL     1     -42.982  57.430 -57.350  1.00  0.00     0.050 A 
HETATM   22  C   UNL     1     -42.467  58.393 -58.235  1.00  0.00     0.058 A 
HETATM   23  C   UNL     1     -42.173  58.039 -59.561  1.00  0.00     0.019 A 
HETATM   24  C   UNL     1     -42.396  56.739 -60.012  1.00  0.00     0.001 A 
HETATM   25  C   UNL     1     -42.873  55.774 -59.128  1.00  0.00     0.002 A 
HETATM   26  C   UNL     1     -43.144  56.112 -57.800  1.00  0.00     0.030 A 
BRANCH  22  27
HETATM   27  C   UNL     1     -41.947  59.707 -57.795  1.00  0.00     0.254 C 
HETATM   28  N   UNL     1     -41.906  60.697 -58.748  1.00  0.00    -0.352 N 
HETATM   29  H   UNL     1     -42.332  60.504 -59.656  1.00  0.00     0.163 HD
HETATM   30  O   UNL     1     -41.549  59.830 -56.639  1.00  0.00    -0.268 OA
BRANCH  28  31
HETATM   31  C   UNL     1     -41.469  62.026 -58.463  1.00  0.00     0.084 A 
HETATM   32  C   UNL     1     -40.050  62.433 -58.746  1.00  0.00     0.027 A 
HETATM   33  C   UNL     1     -41.168  62.986 -59.581  1.00  0.00     0.027 A 
ENDBRANCH  28  31
ENDBRANCH  22  27
ENDBRANCH   2  21
TORSDOF 8
ENDMDL
MODEL 3
REMARK VINA RESULT:      -7.6      2.363      4.177
REMARK  8 active torsions:
REMARK  status: ('A' for Active; 'I' for Inactive)
REMARK    1  A    between atoms: O_2  and  C_3 
REMARK    2  A    between atoms: C_6  and  C_7 
REMARK    3  A    between atoms: C_11  and  S_12 
REMARK    4  A    between atoms: S_12  and  C_13 
REMARK    5  A    between atoms: C_13  and  C_14 
REMARK       I    between atoms: C_14  and  N_15 
REMARK    6  A    between atoms: N_15  and  C_16 
REMARK    7  A    between atoms: C_17  and  C_18 
REMARK       I    between atoms: C_18  and  N_19 
REMARK    8  A    between atoms: N_19  and  C_20 
ROOT
HETATM    1  C   UNL     1     -42.854  59.595 -55.716  1.00  0.00     0.231 C 
HETATM    2  N   UNL     1     -43.798  58.682 -56.138  1.00  0.00    -0.326 N 
HETATM    3  O   UNL     1     -41.765  59.749 -56.276  1.00  0.00    -0.272 OA
HETATM    4  H   UNL     1     -44.753  58.888 -55.854  1.00  0.00     0.169 HD
ENDROOT
BRANCH   1   5
HETATM    5  C   UNL     1     -43.187  60.361 -54.440  1.00  0.00     0.185 C 
BRANCH   5   6
HETATM    6  S   UNL     1     -44.899  60.141 -53.845  1.00  0.00    -0.081 SA
BRANCH   6   7
HETATM    7  C   UNL     1     -44.654  58.912 -52.671  1.00  0.00     0.185 A 
HETATM    8  N   UNL     1     -45.458  58.697 -51.602  1.00  0.00    -0.253 N 
HETATM    9  N   UNL     1     -45.001  57.666 -50.862  1.00  0.00    -0.152 NA
HETATM   10  H   UNL     1     -46.293  59.195 -51.317  1.00  0.00     0.191 HD
HETATM   11  C   UNL     1     -43.905  57.290 -51.549  1.00  0.00     0.182 A 
HETATM   12  N   UNL     1     -43.692  58.032 -52.690  1.00  0.00    -0.201 NA
BRANCH  11  13
HETATM   13  C   UNL     1     -42.998  56.209 -51.181  1.00  0.00     0.014 A 
HETATM   14  C   UNL     1     -43.332  54.868 -51.390  1.00  0.00     0.018 A 
HETATM   15  C   UNL     1     -42.432  53.854 -51.037  1.00  0.00     0.037 A 
HETATM   16  C   UNL     1     -41.190  54.161 -50.475  1.00  0.00     0.068 A 
HETATM   17  C   UNL     1     -40.857  55.495 -50.249  1.00  0.00     0.037 A 
HETATM   18  C   UNL     1     -41.755  56.509 -50.600  1.00  0.00     0.018 A 
BRANCH  16  19
HETATM   19  O   UNL     1     -40.402  53.081 -50.187  1.00  0.00    -0.356 OA
HETATM   20  C   UNL     1     -39.810  52.412 -51.296  1.00  0.00     0.210 C 
ENDBRANCH  16  19
ENDBRANCH  11  13
ENDBRANCH   6   7
ENDBRANCH   5   6
ENDBRANCH   1   5
BRANCH   2  21
HETATM   21  C   UNL     1     -43.644  57.855 -57.266  1.00  0.00     0.050 A 
HETATM   22  C   UNL     1     -43.090  56.564 -57.225  1.00  0.00     0.058 A 
HETATM   23  C   UNL     1     -43.042  55.786 -58.393  1.00  0.00     0.019 A 
HETATM   24  C   UNL     1     -43.534  56.287 -59.596  1.00  0.00     0.001 A 
HETATM   25  C   UNL     1     -44.116  57.552 -59.632  1.00  0.00     0.002 A 
HETATM   26  C   UNL     1     -44.189  58.323 -58.469  1.00  0.00     0.030 A 
BRANCH  22  27
HETATM   27  C   UNL     1     -42.793  55.845 -55.966  1.00  0.00     0.254 C 
HETATM   28  N   UNL     1     -41.551  55.262 -55.874  1.00  0.00    -0.352 N 
HETATM   29  H   UNL     1     -40.878  55.451 -56.619  1.00  0.00     0.163 HD
HETATM   30  O   UNL     1     -43.667  55.771 -55.106  1.00  0.00    -0.268 OA
BRANCH  28  31
HETATM   31  C   UNL     1     -41.106  54.571 -54.707  1.00  0.00     0.084 A 
HETATM   32  C   UNL     1     -41.543  53.156 -54.452  1.00  0.00     0.027 A 
HETATM   33  C   UNL     1     -40.116  53.444 -54.818  1.00  0.00     0.027 A 
ENDBRANCH  28  31
ENDBRANCH  22  27
ENDBRANCH   2  21
TORSDOF 8
ENDMDL
MODEL 4
REMARK VINA RESULT:      -7.4      2.968      5.951
REMARK  8 active torsions:
REMARK  status: ('A' for Active; 'I' for Inactive)
REMARK    1  A    between atoms: O_2  and  C_3 
REMARK    2  A    between atoms: C_6  and  C_7 
REMARK    3  A    between atoms: C_11  and  S_12 
REMARK    4  A    between atoms: S_12  and  C_13 
REMARK    5  A    between atoms: C_13  and  C_14 
REMARK       I    between atoms: C_14  and  N_15 
REMARK    6  A    between atoms: N_15  and  C_16 
REMARK    7  A    between atoms: C_17  and  C_18 
REMARK       I    between atoms: C_18  and  N_19 
REMARK    8  A    between atoms: N_19  and  C_20 
ROOT
HETATM    1  C   UNL     1     -43.457  58.708 -54.936  1.00  0.00     0.231 C 
HETATM    2  N   UNL     1     -43.139  59.157 -53.671  1.00  0.00    -0.326 N 
HETATM    3  O   UNL     1     -44.592  58.347 -55.261  1.00  0.00    -0.272 OA
HETATM    4  H   UNL     1     -42.315  59.751 -53.620  1.00  0.00     0.169 HD
ENDROOT
BRANCH   1   5
HETATM    5  C   UNL     1     -42.294  58.588 -55.915  1.00  0.00     0.185 C 
BRANCH   5   6
HETATM    6  S   UNL     1     -42.478  57.264 -57.158  1.00  0.00    -0.081 SA
BRANCH   6   7
HETATM    7  C   UNL     1     -42.561  55.893 -56.129  1.00  0.00     0.185 A 
HETATM    8  N   UNL     1     -43.710  55.274 -55.762  1.00  0.00    -0.253 N 
HETATM    9  N   UNL     1     -43.449  54.233 -54.944  1.00  0.00    -0.152 NA
HETATM   10  H   UNL     1     -44.666  55.498 -56.011  1.00  0.00     0.191 HD
HETATM   11  C   UNL     1     -42.106  54.273 -54.857  1.00  0.00     0.182 A 
HETATM   12  N   UNL     1     -41.537  55.277 -55.609  1.00  0.00    -0.201 NA
BRANCH  11  13
HETATM   13  C   UNL     1     -41.276  53.367 -54.070  1.00  0.00     0.014 A 
HETATM   14  C   UNL     1     -41.297  53.382 -52.673  1.00  0.00     0.018 A 
HETATM   15  C   UNL     1     -40.496  52.490 -51.947  1.00  0.00     0.037 A 
HETATM   16  C   UNL     1     -39.669  51.573 -52.602  1.00  0.00     0.068 A 
HETATM   17  C   UNL     1     -39.631  51.565 -53.994  1.00  0.00     0.037 A 
HETATM   18  C   UNL     1     -40.430  52.455 -54.721  1.00  0.00     0.018 A 
BRANCH  16  19
HETATM   19  O   UNL     1     -38.949  50.753 -51.777  1.00  0.00    -0.356 OA
HETATM   20  C   UNL     1     -39.688  50.016 -50.810  1.00  0.00     0.210 C 
ENDBRANCH  16  19
ENDBRANCH  11  13
ENDBRANCH   6   7
ENDBRANCH   5   6
ENDBRANCH   1   5
BRANCH   2  21
HETATM   21  C   UNL     1     -44.072  59.289 -52.626  1.00  0.00     0.050 A 
HETATM   22  C   UNL     1     -44.389  58.261 -51.722  1.00  0.00     0.058 A 
HETATM   23  C   UNL     1     -45.282  58.509 -50.666  1.00  0.00     0.019 A 
HETATM   24  C   UNL     1     -45.864  59.766 -50.513  1.00  0.00     0.001 A 
HETATM   25  C   UNL     1     -45.524  60.796 -51.388  1.00  0.00     0.002 A 
HETATM   26  C   UNL     1     -44.618  60.563 -52.425  1.00  0.00     0.030 A 
BRANCH  22  27
HETATM   27  C   UNL     1     -43.633  56.992 -51.633  1.00  0.00     0.254 C 
HETATM   28  N   UNL     1     -42.845  56.828 -50.519  1.00  0.00    -0.352 N 
HETATM   29  H   UNL     1     -42.913  57.529 -49.778  1.00  0.00     0.163 HD
HETATM   30  O   UNL     1     -43.715  56.188 -52.558  1.00  0.00    -0.268 OA
BRANCH  28  31
HETATM   31  C   UNL     1     -42.091  55.641 -50.274  1.00  0.00     0.084 A 
HETATM   32  C   UNL     1     -40.590  55.695 -50.218  1.00  0.00     0.027 A 
HETATM   33  C   UNL     1     -41.377  55.447 -48.964  1.00  0.00     0.027 A 
ENDBRANCH  28  31
ENDBRANCH  22  27
ENDBRANCH   2  21
TORSDOF 8
ENDMDL
MODEL 5
REMARK VINA RESULT:      -7.3      1.905      3.614
REMARK  8 active torsions:
REMARK  status: ('A' for Active; 'I' for Inactive)
REMARK    1  A    between atoms: O_2  and  C_3 
REMARK    2  A    between atoms: C_6  and  C_7 
REMARK    3  A    between atoms: C_11  and  S_12 
REMARK    4  A    between atoms: S_12  and  C_13 
REMARK    5  A    between atoms: C_13  and  C_14 
REMARK       I    between atoms: C_14  and  N_15 
REMARK    6  A    between atoms: N_15  and  C_16 
REMARK    7  A    between atoms: C_17  and  C_18 
REMARK       I    between atoms: C_18  and  N_19 
REMARK    8  A    between atoms: N_19  and  C_20 
ROOT
HETATM    1  C   UNL     1     -43.117  57.712 -56.580  1.00  0.00     0.231 C 
HETATM    2  N   UNL     1     -42.581  56.953 -57.599  1.00  0.00    -0.326 N 
HETATM    3  O   UNL     1     -44.326  57.930 -56.463  1.00  0.00    -0.272 OA
HETATM    4  H   UNL     1     -41.670  56.547 -57.400  1.00  0.00     0.169 HD
ENDROOT
BRANCH   1   5
HETATM    5  C   UNL     1     -42.114  58.363 -55.633  1.00  0.00     0.185 C 
BRANCH   5   6
HETATM    6  S   UNL     1     -42.767  58.729 -53.968  1.00  0.00    -0.081 SA
BRANCH   6   7
HETATM    7  C   UNL     1     -42.133  57.393 -53.095  1.00  0.00     0.185 A 
HETATM    8  N   UNL     1     -41.883  57.392 -51.764  1.00  0.00    -0.253 N 
HETATM    9  N   UNL     1     -41.383  56.200 -51.374  1.00  0.00    -0.152 NA
HETATM   10  H   UNL     1     -42.011  58.134 -51.086  1.00  0.00     0.191 HD
HETATM   11  C   UNL     1     -41.361  55.512 -52.532  1.00  0.00     0.182 A 
HETATM   12  N   UNL     1     -41.851  56.226 -53.604  1.00  0.00    -0.201 NA
BRANCH  11  13
HETATM   13  C   UNL     1     -40.887  54.143 -52.700  1.00  0.00     0.014 A 
HETATM   14  C   UNL     1     -41.061  53.450 -53.901  1.00  0.00     0.018 A 
HETATM   15  C   UNL     1     -40.582  52.140 -54.034  1.00  0.00     0.037 A 
HETATM   16  C   UNL     1     -39.924  51.506 -52.977  1.00  0.00     0.068 A 
HETATM   17  C   UNL     1     -39.761  52.186 -51.772  1.00  0.00     0.037 A 
HETATM   18  C   UNL     1     -40.239  53.494 -51.637  1.00  0.00     0.018 A 
BRANCH  16  19
HETATM   19  O   UNL     1     -39.497  50.234 -53.241  1.00  0.00    -0.356 OA
HETATM   20  C   UNL     1     -39.570  49.807 -54.597  1.00  0.00     0.210 C 
ENDBRANCH  16  19
ENDBRANCH  11  13
ENDBRANCH   6   7
ENDBRANCH   5   6
ENDBRANCH   1   5
BRANCH   2  21
HETATM   21  C   UNL     1     -43.348  56.315 -58.592  1.00  0.00     0.050 A 
HETATM   22  C   UNL     1     -43.744  56.927 -59.793  1.00  0.00     0.058 A 
HETATM   23  C   UNL     1     -44.450  56.186 -60.756  1.00  0.00     0.019 A 
HETATM   24  C   UNL     1     -44.767  54.849 -60.525  1.00  0.00     0.001 A 
HETATM   25  C   UNL     1     -44.345  54.231 -59.350  1.00  0.00     0.002 A 
HETATM   26  C   UNL     1     -43.621  54.955 -58.399  1.00  0.00     0.030 A 
BRANCH  22  27
HETATM   27  C   UNL     1     -43.231  58.238 -60.248  1.00  0.00     0.254 C 
HETATM   28  N   UNL     1     -44.112  59.028 -60.948  1.00  0.00    -0.352 N 
HETATM   29  H   UNL     1     -45.083  58.718 -61.016  1.00  0.00     0.163 HD
HETATM   30  O   UNL     1     -42.060  58.528 -60.017  1.00  0.00    -0.268 OA
BRANCH  28  31
HETATM   31  C   UNL     1     -43.775  60.335 -61.415  1.00  0.00     0.084 A 
HETATM   32  C   UNL     1     -44.494  60.927 -62.593  1.00  0.00     0.027 A 
HETATM   33  C   UNL     1     -44.726  61.484 -61.218  1.00  0.00     0.027 A 
ENDBRANCH  28  31
ENDBRANCH  22  27
ENDBRANCH   2  21
TORSDOF 8
ENDMDL
MODEL 6
REMARK VINA RESULT:      -7.1      1.451      2.119
REMARK  8 active torsions:
REMARK  status: ('A' for Active; 'I' for Inactive)
REMARK    1  A    between atoms: O_2  and  C_3 
REMARK    2  A    between atoms: C_6  and  C_7 
REMARK    3  A    between atoms: C_11  and  S_12 
REMARK    4  A    between atoms: S_12  and  C_13 
REMARK    5  A    between atoms: C_13  and  C_14 
REMARK       I    between atoms: C_14  and  N_15 
REMARK    6  A    between atoms: N_15  and  C_16 
REMARK    7  A    between atoms: C_17  and  C_18 
REMARK       I    between atoms: C_18  and  N_19 
REMARK    8  A    between atoms: N_19  and  C_20 
ROOT
HETATM    1  C   UNL     1     -43.760  58.753 -55.464  1.00  0.00     0.231 C 
HETATM    2  N   UNL     1     -42.538  58.654 -56.096  1.00  0.00    -0.326 N 
HETATM    3  O   UNL     1     -44.736  59.319 -55.964  1.00  0.00    -0.272 OA
HETATM    4  H   UNL     1     -41.950  57.887 -55.779  1.00  0.00     0.169 HD
ENDROOT
BRANCH   1   5
HETATM    5  C   UNL     1     -43.827  58.197 -54.046  1.00  0.00     0.185 C 
BRANCH   5   6
HETATM    6  S   UNL     1     -42.787  59.080 -52.832  1.00  0.00    -0.081 SA
BRANCH   6   7
HETATM    7  C   UNL     1     -42.147  57.748 -51.958  1.00  0.00     0.185 A 
HETATM    8  N   UNL     1     -41.868  57.760 -50.632  1.00  0.00    -0.253 N 
HETATM    9  N   UNL     1     -41.372  56.568 -50.239  1.00  0.00    -0.152 NA
HETATM   10  H   UNL     1     -41.975  58.512 -49.961  1.00  0.00     0.191 HD
HETATM   11  C   UNL     1     -41.381  55.867 -51.388  1.00  0.00     0.182 A 
HETATM   12  N   UNL     1     -41.887  56.573 -52.458  1.00  0.00    -0.201 NA
BRANCH  11  13
HETATM   13  C   UNL     1     -40.924  54.491 -51.551  1.00  0.00     0.014 A 
HETATM   14  C   UNL     1     -40.648  53.954 -52.811  1.00  0.00     0.018 A 
HETATM   15  C   UNL     1     -40.199  52.633 -52.931  1.00  0.00     0.037 A 
HETATM   16  C   UNL     1     -40.016  51.832 -51.800  1.00  0.00     0.068 A 
HETATM   17  C   UNL     1     -40.304  52.356 -50.542  1.00  0.00     0.037 A 
HETATM   18  C   UNL     1     -40.754  53.675 -50.421  1.00  0.00     0.018 A 
BRANCH  16  19
HETATM   19  O   UNL     1     -39.562  50.567 -52.055  1.00  0.00    -0.356 OA
HETATM   20  C   UNL     1     -39.308  49.742 -50.923  1.00  0.00     0.210 C 
ENDBRANCH  16  19
ENDBRANCH  11  13
ENDBRANCH   6   7
ENDBRANCH   5   6
ENDBRANCH   1   5
BRANCH   2  21
HETATM   21  C   UNL     1     -42.277  59.151 -57.386  1.00  0.00     0.050 A 
HETATM   22  C   UNL     1     -42.487  58.419 -58.568  1.00  0.00     0.058 A 
HETATM   23  C   UNL     1     -42.264  59.025 -59.815  1.00  0.00     0.019 A 
HETATM   24  C   UNL     1     -41.829  60.347 -59.891  1.00  0.00     0.001 A 
HETATM   25  C   UNL     1     -41.654  61.085 -58.722  1.00  0.00     0.002 A 
HETATM   26  C   UNL     1     -41.898  60.496 -57.479  1.00  0.00     0.030 A 
BRANCH  22  27
HETATM   27  C   UNL     1     -43.197  57.121 -58.607  1.00  0.00     0.254 C 
HETATM   28  N   UNL     1     -44.196  57.000 -59.543  1.00  0.00    -0.352 N 
HETATM   29  H   UNL     1     -44.313  57.758 -60.218  1.00  0.00     0.163 HD
HETATM   30  O   UNL     1     -42.891  56.254 -57.792  1.00  0.00    -0.268 OA
BRANCH  28  31
HETATM   31  C   UNL     1     -44.940  55.795 -59.727  1.00  0.00     0.084 A 
HETATM   32  C   UNL     1     -46.264  55.825 -60.439  1.00  0.00     0.027 A 
HETATM   33  C   UNL     1     -45.075  55.183 -61.095  1.00  0.00     0.027 A 
ENDBRANCH  28  31
ENDBRANCH  22  27
ENDBRANCH   2  21
TORSDOF 8
ENDMDL
MODEL 7
REMARK VINA RESULT:      -7.1      5.445      8.576
REMARK  8 active torsions:
REMARK  status: ('A' for Active; 'I' for Inactive)
REMARK    1  A    between atoms: O_2  and  C_3 
REMARK    2  A    between atoms: C_6  and  C_7 
REMARK    3  A    between atoms: C_11  and  S_12 
REMARK    4  A    between atoms: S_12  and  C_13 
REMARK    5  A    between atoms: C_13  and  C_14 
REMARK       I    between atoms: C_14  and  N_15 
REMARK    6  A    between atoms: N_15  and  C_16 
REMARK    7  A    between atoms: C_17  and  C_18 
REMARK       I    between atoms: C_18  and  N_19 
REMARK    8  A    between atoms: N_19  and  C_20 
ROOT
HETATM    1  C   UNL     1     -43.678  57.116 -52.974  1.00  0.00     0.231 C 
HETATM    2  N   UNL     1     -43.845  55.821 -53.416  1.00  0.00    -0.326 N 
HETATM    3  O   UNL     1     -42.572  57.624 -52.769  1.00  0.00    -0.272 OA
HETATM    4  H   UNL     1     -44.728  55.636 -53.887  1.00  0.00     0.169 HD
ENDROOT
BRANCH   1   5
HETATM    5  C   UNL     1     -44.957  57.884 -52.655  1.00  0.00     0.185 C 
BRANCH   5   6
HETATM    6  S   UNL     1     -44.928  59.645 -53.137  1.00  0.00    -0.081 SA
BRANCH   6   7
HETATM    7  C   UNL     1     -44.301  60.341 -51.698  1.00  0.00     0.185 A 
HETATM    8  N   UNL     1     -42.985  60.397 -51.380  1.00  0.00    -0.253 N 
HETATM    9  N   UNL     1     -42.809  60.997 -50.184  1.00  0.00    -0.152 NA
HETATM   10  H   UNL     1     -42.184  60.056 -51.899  1.00  0.00     0.191 HD
HETATM   11  C   UNL     1     -44.074  61.289 -49.827  1.00  0.00     0.182 A 
HETATM   12  N   UNL     1     -45.010  60.917 -50.768  1.00  0.00    -0.201 NA
BRANCH  11  13
HETATM   13  C   UNL     1     -44.481  61.941 -48.587  1.00  0.00     0.014 A 
HETATM   14  C   UNL     1     -44.574  63.332 -48.487  1.00  0.00     0.018 A 
HETATM   15  C   UNL     1     -44.980  63.926 -47.285  1.00  0.00     0.037 A 
HETATM   16  C   UNL     1     -45.300  63.145 -46.171  1.00  0.00     0.068 A 
HETATM   17  C   UNL     1     -45.194  61.759 -46.259  1.00  0.00     0.037 A 
HETATM   18  C   UNL     1     -44.788  61.164 -47.459  1.00  0.00     0.018 A 
BRANCH  16  19
HETATM   19  O   UNL     1     -45.692  63.847 -45.065  1.00  0.00    -0.356 OA
HETATM   20  C   UNL     1     -44.672  64.547 -44.361  1.00  0.00     0.210 C 
ENDBRANCH  16  19
ENDBRANCH  11  13
ENDBRANCH   6   7
ENDBRANCH   5   6
ENDBRANCH   1   5
BRANCH   2  21
HETATM   21  C   UNL     1     -42.782  54.949 -53.716  1.00  0.00     0.050 A 
HETATM   22  C   UNL     1     -42.213  54.813 -54.994  1.00  0.00     0.058 A 
HETATM   23  C   UNL     1     -41.107  53.968 -55.181  1.00  0.00     0.019 A 
HETATM   24  C   UNL     1     -40.572  53.256 -54.109  1.00  0.00     0.001 A 
HETATM   25  C   UNL     1     -41.113  53.415 -52.835  1.00  0.00     0.002 A 
HETATM   26  C   UNL     1     -42.198  54.273 -52.637  1.00  0.00     0.030 A 
BRANCH  22  27
HETATM   27  C   UNL     1     -42.525  55.716 -56.124  1.00  0.00     0.254 C 
HETATM   28  N   UNL     1     -43.189  55.154 -57.188  1.00  0.00    -0.352 N 
HETATM   29  H   UNL     1     -43.522  54.193 -57.091  1.00  0.00     0.163 HD
HETATM   30  O   UNL     1     -42.145  56.883 -56.073  1.00  0.00    -0.268 OA
BRANCH  28  31
HETATM   31  C   UNL     1     -43.595  55.907 -58.331  1.00  0.00     0.084 A 
HETATM   32  C   UNL     1     -42.689  56.018 -59.525  1.00  0.00     0.027 A 
HETATM   33  C   UNL     1     -43.952  55.212 -59.617  1.00  0.00     0.027 A 
ENDBRANCH  28  31
ENDBRANCH  22  27
ENDBRANCH   2  21
TORSDOF 8
ENDMDL
MODEL 8
REMARK VINA RESULT:      -7.1      2.985      5.256
REMARK  8 active torsions:
REMARK  status: ('A' for Active; 'I' for Inactive)
REMARK    1  A    between atoms: O_2  and  C_3 
REMARK    2  A    between atoms: C_6  and  C_7 
REMARK    3  A    between atoms: C_11  and  S_12 
REMARK    4  A    between atoms: S_12  and  C_13 
REMARK    5  A    between atoms: C_13  and  C_14 
REMARK       I    between atoms: C_14  and  N_15 
REMARK    6  A    between atoms: N_15  and  C_16 
REMARK    7  A    between atoms: C_17  and  C_18 
REMARK       I    between atoms: C_18  and  N_19 
REMARK    8  A    between atoms: N_19  and  C_20 
ROOT
HETATM    1  C   UNL     1     -45.345  58.317 -57.097  1.00  0.00     0.231 C 
HETATM    2  N   UNL     1     -44.645  59.122 -56.222  1.00  0.00    -0.326 N 
HETATM    3  O   UNL     1     -46.568  58.162 -57.043  1.00  0.00    -0.272 OA
HETATM    4  H   UNL     1     -43.749  59.457 -56.568  1.00  0.00     0.169 HD
ENDROOT
BRANCH   1   5
HETATM    5  C   UNL     1     -44.506  57.535 -58.102  1.00  0.00     0.185 C 
BRANCH   5   6
HETATM    6  S   UNL     1     -42.734  57.408 -57.680  1.00  0.00    -0.081 SA
BRANCH   6   7
HETATM    7  C   UNL     1     -42.781  56.097 -56.572  1.00  0.00     0.185 A 
HETATM    8  N   UNL     1     -43.382  54.907 -56.813  1.00  0.00    -0.253 N 
HETATM    9  N   UNL     1     -43.254  54.086 -55.749  1.00  0.00    -0.152 NA
HETATM   10  H   UNL     1     -43.885  54.597 -57.636  1.00  0.00     0.191 HD
HETATM   11  C   UNL     1     -42.551  54.846 -54.889  1.00  0.00     0.182 A 
HETATM   12  N   UNL     1     -42.223  56.085 -55.394  1.00  0.00    -0.201 NA
BRANCH  11  13
HETATM   13  C   UNL     1     -42.139  54.454 -53.546  1.00  0.00     0.014 A 
HETATM   14  C   UNL     1     -43.059  54.344 -52.499  1.00  0.00     0.018 A 
HETATM   15  C   UNL     1     -42.631  53.952 -51.224  1.00  0.00     0.037 A 
HETATM   16  C   UNL     1     -41.286  53.665 -50.975  1.00  0.00     0.068 A 
HETATM   17  C   UNL     1     -40.362  53.788 -52.010  1.00  0.00     0.037 A 
HETATM   18  C   UNL     1     -40.787  54.179 -53.284  1.00  0.00     0.018 A 
BRANCH  16  19
HETATM   19  O   UNL     1     -41.004  53.284 -49.692  1.00  0.00    -0.356 OA
HETATM   20  C   UNL     1     -39.963  53.995 -49.032  1.00  0.00     0.210 C 
ENDBRANCH  16  19
ENDBRANCH  11  13
ENDBRANCH   6   7
ENDBRANCH   5   6
ENDBRANCH   1   5
BRANCH   2  21
HETATM   21  C   UNL     1     -45.246  59.881 -55.200  1.00  0.00     0.050 A 
HETATM   22  C   UNL     1     -45.244  59.515 -53.844  1.00  0.00     0.058 A 
HETATM   23  C   UNL     1     -45.808  60.373 -52.886  1.00  0.00     0.019 A 
HETATM   24  C   UNL     1     -46.379  61.584 -53.273  1.00  0.00     0.001 A 
HETATM   25  C   UNL     1     -46.352  61.965 -54.612  1.00  0.00     0.002 A 
HETATM   26  C   UNL     1     -45.769  61.128 -55.567  1.00  0.00     0.030 A 
BRANCH  22  27
HETATM   27  C   UNL     1     -44.436  58.399 -53.303  1.00  0.00     0.254 C 
HETATM   28  N   UNL     1     -43.328  58.748 -52.567  1.00  0.00    -0.352 N 
HETATM   29  H   UNL     1     -43.193  59.737 -52.347  1.00  0.00     0.163 HD
HETATM   30  O   UNL     1     -44.766  57.246 -53.568  1.00  0.00    -0.268 OA
BRANCH  28  31
HETATM   31  C   UNL     1     -42.477  57.784 -51.948  1.00  0.00     0.084 A 
HETATM   32  C   UNL     1     -41.009  57.754 -52.267  1.00  0.00     0.027 A 
HETATM   33  C   UNL     1     -41.471  58.207 -50.912  1.00  0.00     0.027 A 
ENDBRANCH  28  31
ENDBRANCH  22  27
ENDBRANCH   2  21
TORSDOF 8
ENDMDL
MODEL 9
REMARK VINA RESULT:      -7.0     15.853     19.386
REMARK  8 active torsions:
REMARK  status: ('A' for Active; 'I' for Inactive)
REMARK    1  A    between atoms: O_2  and  C_3 
REMARK    2  A    between atoms: C_6  and  C_7 
REMARK    3  A    between atoms: C_11  and  S_12 
REMARK    4  A    between atoms: S_12  and  C_13 
REMARK    5  A    between atoms: C_13  and  C_14 
REMARK       I    between atoms: C_14  and  N_15 
REMARK    6  A    between atoms: N_15  and  C_16 
REMARK    7  A    between atoms: C_17  and  C_18 
REMARK       I    between atoms: C_18  and  N_19 
REMARK    8  A    between atoms: N_19  and  C_20 
ROOT
HETATM    1  C   UNL     1     -31.866  38.990 -52.562  1.00  0.00     0.231 C 
HETATM    2  N   UNL     1     -32.046  39.531 -53.817  1.00  0.00    -0.326 N 
HETATM    3  O   UNL     1     -31.435  37.849 -52.372  1.00  0.00    -0.272 OA
HETATM    4  H   UNL     1     -32.046  40.548 -53.852  1.00  0.00     0.169 HD
ENDROOT
BRANCH   1   5
HETATM    5  C   UNL     1     -32.320  39.853 -51.390  1.00  0.00     0.185 C 
BRANCH   5   6
HETATM    6  S   UNL     1     -34.086  39.681 -50.956  1.00  0.00    -0.081 SA
BRANCH   6   7
HETATM    7  C   UNL     1     -34.781  40.770 -52.087  1.00  0.00     0.185 A 
HETATM    8  N   UNL     1     -35.229  42.012 -51.784  1.00  0.00    -0.253 N 
HETATM    9  N   UNL     1     -35.726  42.619 -52.882  1.00  0.00    -0.152 NA
HETATM   10  H   UNL     1     -35.238  42.491 -50.892  1.00  0.00     0.191 HD
HETATM   11  C   UNL     1     -35.542  41.682 -53.831  1.00  0.00     0.182 A 
HETATM   12  N   UNL     1     -34.930  40.539 -53.362  1.00  0.00    -0.201 NA
BRANCH  11  13
HETATM   13  C   UNL     1     -35.921  41.803 -55.234  1.00  0.00     0.014 A 
HETATM   14  C   UNL     1     -37.242  42.051 -55.617  1.00  0.00     0.018 A 
HETATM   15  C   UNL     1     -37.571  42.174 -56.973  1.00  0.00     0.037 A 
HETATM   16  C   UNL     1     -36.591  42.054 -57.963  1.00  0.00     0.068 A 
HETATM   17  C   UNL     1     -35.276  41.790 -57.589  1.00  0.00     0.037 A 
HETATM   18  C   UNL     1     -34.945  41.666 -56.235  1.00  0.00     0.018 A 
BRANCH  16  19
HETATM   19  O   UNL     1     -37.042  42.206 -59.245  1.00  0.00    -0.356 OA
HETATM   20  C   UNL     1     -37.262  41.012 -59.988  1.00  0.00     0.210 C 
ENDBRANCH  16  19
ENDBRANCH  11  13
ENDBRANCH   6   7
ENDBRANCH   5   6
ENDBRANCH   1   5
BRANCH   2  21
HETATM   21  C   UNL     1     -31.727  38.864 -55.015  1.00  0.00     0.050 A 
HETATM   22  C   UNL     1     -32.595  37.979 -55.676  1.00  0.00     0.058 A 
HETATM   23  C   UNL     1     -32.216  37.414 -56.905  1.00  0.00     0.019 A 
HETATM   24  C   UNL     1     -30.979  37.719 -57.471  1.00  0.00     0.001 A 
HETATM   25  C   UNL     1     -30.132  38.623 -56.834  1.00  0.00     0.002 A 
HETATM   26  C   UNL     1     -30.513  39.208 -55.624  1.00  0.00     0.030 A 
BRANCH  22  27
HETATM   27  C   UNL     1     -34.017  37.803 -55.305  1.00  0.00     0.254 C 
HETATM   28  N   UNL     1     -34.941  38.061 -56.290  1.00  0.00    -0.352 N 
HETATM   29  H   UNL     1     -34.595  38.248 -57.233  1.00  0.00     0.163 HD
HETATM   30  O   UNL     1     -34.293  37.484 -54.152  1.00  0.00    -0.268 OA
BRANCH  28  31
HETATM   31  C   UNL     1     -36.346  37.896 -56.095  1.00  0.00     0.084 A 
HETATM   32  C   UNL     1     -37.323  38.590 -57.000  1.00  0.00     0.027 A 
HETATM   33  C   UNL     1     -37.164  37.099 -57.074  1.00  0.00     0.027 A 
ENDBRANCH  28  31
ENDBRANCH  22  27
ENDBRANCH   2  21
TORSDOF 8
ENDMDL
MODEL 10
REMARK VINA RESULT:      -6.9      2.845      5.137
REMARK  8 active torsions:
REMARK  status: ('A' for Active; 'I' for Inactive)
REMARK    1  A    between atoms: O_2  and  C_3 
REMARK    2  A    between atoms: C_6  and  C_7 
REMARK    3  A    between atoms: C_11  and  S_12 
REMARK    4  A    between atoms: S_12  and  C_13 
REMARK    5  A    between atoms: C_13  and  C_14 
REMARK       I    between atoms: C_14  and  N_15 
REMARK    6  A    between atoms: N_15  and  C_16 
REMARK    7  A    between atoms: C_17  and  C_18 
REMARK       I    between atoms: C_18  and  N_19 
REMARK    8  A    between atoms: N_19  and  C_20 
ROOT
HETATM    1  C   UNL     1     -44.835  59.160 -57.937  1.00  0.00     0.231 C 
HETATM    2  N   UNL     1     -44.047  58.500 -58.857  1.00  0.00    -0.326 N 
HETATM    3  O   UNL     1     -45.844  58.662 -57.429  1.00  0.00    -0.272 OA
HETATM    4  H   UNL     1     -43.089  58.836 -58.923  1.00  0.00     0.169 HD
ENDROOT
BRANCH   1   5
HETATM    5  C   UNL     1     -44.446  60.604 -57.636  1.00  0.00     0.185 C 
BRANCH   5   6
HETATM    6  S   UNL     1     -42.652  60.883 -57.439  1.00  0.00    -0.081 SA
BRANCH   6   7
HETATM    7  C   UNL     1     -42.502  60.691 -55.740  1.00  0.00     0.185 A 
HETATM    8  N   UNL     1     -42.732  61.669 -54.831  1.00  0.00    -0.253 N 
HETATM    9  N   UNL     1     -42.524  61.212 -53.578  1.00  0.00    -0.152 NA
HETATM   10  H   UNL     1     -43.012  62.631 -54.981  1.00  0.00     0.191 HD
HETATM   11  C   UNL     1     -42.171  59.932 -53.800  1.00  0.00     0.182 A 
HETATM   12  N   UNL     1     -42.181  59.583 -55.133  1.00  0.00    -0.201 NA
BRANCH  11  13
HETATM   13  C   UNL     1     -41.810  58.958 -52.776  1.00  0.00     0.014 A 
HETATM   14  C   UNL     1     -41.323  59.354 -51.526  1.00  0.00     0.018 A 
HETATM   15  C   UNL     1     -40.998  58.393 -50.561  1.00  0.00     0.037 A 
HETATM   16  C   UNL     1     -41.154  57.029 -50.824  1.00  0.00     0.068 A 
HETATM   17  C   UNL     1     -41.623  56.628 -52.073  1.00  0.00     0.037 A 
HETATM   18  C   UNL     1     -41.948  57.586 -53.039  1.00  0.00     0.018 A 
BRANCH  16  19
HETATM   19  O   UNL     1     -40.811  56.198 -49.794  1.00  0.00    -0.356 OA
HETATM   20  C   UNL     1     -41.628  55.048 -49.605  1.00  0.00     0.210 C 
ENDBRANCH  16  19
ENDBRANCH  11  13
ENDBRANCH   6   7
ENDBRANCH   5   6
ENDBRANCH   1   5
BRANCH   2  21
HETATM   21  C   UNL     1     -44.281  57.182 -59.290  1.00  0.00     0.050 A 
HETATM   22  C   UNL     1     -43.702  56.046 -58.699  1.00  0.00     0.058 A 
HETATM   23  C   UNL     1     -44.051  54.765 -59.156  1.00  0.00     0.019 A 
HETATM   24  C   UNL     1     -44.963  54.610 -60.199  1.00  0.00     0.001 A 
HETATM   25  C   UNL     1     -45.564  55.733 -60.763  1.00  0.00     0.002 A 
HETATM   26  C   UNL     1     -45.240  57.010 -60.296  1.00  0.00     0.030 A 
BRANCH  22  27
HETATM   27  C   UNL     1     -42.945  56.086 -57.428  1.00  0.00     0.254 C 
HETATM   28  N   UNL     1     -43.109  55.011 -56.586  1.00  0.00    -0.352 N 
HETATM   29  H   UNL     1     -43.645  54.212 -56.930  1.00  0.00     0.163 HD
HETATM   30  O   UNL     1     -42.258  57.073 -57.178  1.00  0.00    -0.268 OA
BRANCH  28  31
HETATM   31  C   UNL     1     -42.413  54.888 -55.346  1.00  0.00     0.084 A 
HETATM   32  C   UNL     1     -42.187  53.533 -54.735  1.00  0.00     0.027 A 
HETATM   33  C   UNL     1     -41.028  54.302 -55.302  1.00  0.00     0.027 A 
ENDBRANCH  28  31
ENDBRANCH  22  27
ENDBRANCH   2  21
TORSDOF 8
ENDMDL
