MODEL 1
REMARK VINA RESULT:      -7.7      0.000      0.000
REMARK  6 active torsions:
REMARK  status: ('A' for Active; 'I' for Inactive)
REMARK    1  A    between atoms: C_2  and  O_3 
REMARK    2  A    between atoms: O_3  and  C_4 
REMARK    3  A    between atoms: C_11  and  C_12 
REMARK    4  A    between atoms: C_12  and  N_13 
REMARK    5  A    between atoms: N_13  and  C_14 
REMARK    6  A    between atoms: C_17  and  O_18 
ROOT
HETATM    1  C   UNL     1     -39.960  52.471 -53.073  1.00  0.00     0.069 A 
HETATM    2  C   UNL     1     -40.264  53.180 -54.237  1.00  0.00     0.050 A 
HETATM    3  C   UNL     1     -41.088  54.310 -54.175  1.00  0.00    -0.006 A 
HETATM    4  C   UNL     1     -41.602  54.728 -52.943  1.00  0.00     0.045 A 
HETATM    5  N   UNL     1     -42.422  55.861 -52.891  1.00  0.00    -0.322 N 
HETATM    6  C   UNL     1     -42.755  56.609 -53.990  1.00  0.00     0.253 A 
HETATM    7  O   UNL     1     -43.466  57.605 -53.889  1.00  0.00    -0.268 OA
HETATM    8  C   UNL     1     -42.218  56.160 -55.308  1.00  0.00     0.024 A 
HETATM    9  C   UNL     1     -41.435  55.068 -55.376  1.00  0.00     0.027 A 
HETATM   10  C   UNL     1     -41.304  54.028 -51.777  1.00  0.00     0.033 A 
HETATM   11  C   UNL     1     -40.484  52.900 -51.849  1.00  0.00     0.039 A 
HETATM   12  H   UNL     1     -42.794  56.183 -52.008  1.00  0.00     0.169 HD
ENDROOT
BRANCH   8  13
HETATM   13  C   UNL     1     -42.637  56.943 -56.517  1.00  0.00     0.136 C 
BRANCH  13  14
HETATM   14  N   UNL     1     -42.425  56.116 -57.701  1.00  0.00    -0.289 NA
HETATM   15  H   UNL     1     -41.581  56.413 -58.192  1.00  0.00     0.128 HD
BRANCH  14  16
HETATM   16  C   UNL     1     -43.478  55.936 -58.609  1.00  0.00     0.008 A 
HETATM   17  C   UNL     1     -44.012  57.066 -59.243  1.00  0.00     0.026 A 
HETATM   18  C   UNL     1     -45.007  56.949 -60.220  1.00  0.00     0.038 A 
HETATM   19  C   UNL     1     -45.468  55.695 -60.617  1.00  0.00     0.068 A 
HETATM   20  C   UNL     1     -44.920  54.561 -60.026  1.00  0.00     0.038 A 
HETATM   21  C   UNL     1     -43.925  54.685 -59.043  1.00  0.00     0.026 A 
BRANCH  19  22
HETATM   22  O   UNL     1     -46.433  55.715 -61.585  1.00  0.00    -0.356 OA
HETATM   23  C   UNL     1     -47.576  56.524 -61.333  1.00  0.00     0.210 C 
ENDBRANCH  19  22
ENDBRANCH  14  16
ENDBRANCH  13  14
ENDBRANCH   8  13
BRANCH   1  24
HETATM   24  O   UNL     1     -39.174  51.354 -52.995  1.00  0.00    -0.351 OA
BRANCH  24  25
HETATM   25  C   UNL     1     -39.810  50.093 -53.201  1.00  0.00     0.171 C 
HETATM   26  C   UNL     1     -39.722  49.758 -54.678  1.00  0.00     0.034 C 
ENDBRANCH  24  25
ENDBRANCH   1  24
TORSDOF 6
ENDMDL
MODEL 2
REMARK VINA RESULT:      -7.7      1.445      7.959
REMARK  6 active torsions:
REMARK  status: ('A' for Active; 'I' for Inactive)
REMARK    1  A    between atoms: C_2  and  O_3 
REMARK    2  A    between atoms: O_3  and  C_4 
REMARK    3  A    between atoms: C_11  and  C_12 
REMARK    4  A    between atoms: C_12  and  N_13 
REMARK    5  A    between atoms: N_13  and  C_14 
REMARK    6  A    between atoms: C_17  and  O_18 
ROOT
HETATM    1  C   UNL     1     -43.358  56.288 -59.624  1.00  0.00     0.069 A 
HETATM    2  C   UNL     1     -43.348  55.636 -58.389  1.00  0.00     0.050 A 
HETATM    3  C   UNL     1     -42.971  56.331 -57.234  1.00  0.00    -0.006 A 
HETATM    4  C   UNL     1     -42.608  57.680 -57.320  1.00  0.00     0.045 A 
HETATM    5  N   UNL     1     -42.236  58.365 -56.159  1.00  0.00    -0.322 N 
HETATM    6  C   UNL     1     -42.210  57.793 -54.914  1.00  0.00     0.253 A 
HETATM    7  O   UNL     1     -41.891  58.443 -53.922  1.00  0.00    -0.268 OA
HETATM    8  C   UNL     1     -42.585  56.352 -54.818  1.00  0.00     0.024 A 
HETATM    9  C   UNL     1     -42.938  55.675 -55.927  1.00  0.00     0.027 A 
HETATM   10  C   UNL     1     -42.616  58.337 -58.547  1.00  0.00     0.033 A 
HETATM   11  C   UNL     1     -42.990  57.636 -59.695  1.00  0.00     0.039 A 
HETATM   12  H   UNL     1     -41.981  59.342 -56.202  1.00  0.00     0.169 HD
ENDROOT
BRANCH   8  13
HETATM   13  C   UNL     1     -42.494  55.712 -53.465  1.00  0.00     0.136 C 
BRANCH  13  14
HETATM   14  N   UNL     1     -41.086  55.483 -53.154  1.00  0.00    -0.289 NA
HETATM   15  H   UNL     1     -40.493  56.048 -53.764  1.00  0.00     0.128 HD
BRANCH  14  16
HETATM   16  C   UNL     1     -40.603  54.168 -53.091  1.00  0.00     0.008 A 
HETATM   17  C   UNL     1     -40.386  53.597 -51.830  1.00  0.00     0.026 A 
HETATM   18  C   UNL     1     -39.985  52.264 -51.695  1.00  0.00     0.038 A 
HETATM   19  C   UNL     1     -39.826  51.453 -52.817  1.00  0.00     0.068 A 
HETATM   20  C   UNL     1     -40.076  51.993 -54.075  1.00  0.00     0.038 A 
HETATM   21  C   UNL     1     -40.474  53.333 -54.205  1.00  0.00     0.026 A 
BRANCH  19  22
HETATM   22  O   UNL     1     -39.439  50.169 -52.551  1.00  0.00    -0.356 OA
HETATM   23  C   UNL     1     -39.317  49.808 -51.182  1.00  0.00     0.210 C 
ENDBRANCH  19  22
ENDBRANCH  14  16
ENDBRANCH  13  14
ENDBRANCH   8  13
BRANCH   1  24
HETATM   24  O   UNL     1     -43.701  55.728 -60.825  1.00  0.00    -0.351 OA
BRANCH  24  25
HETATM   25  C   UNL     1     -44.915  54.980 -60.873  1.00  0.00     0.171 C 
HETATM   26  C   UNL     1     -46.067  55.938 -60.634  1.00  0.00     0.034 C 
ENDBRANCH  24  25
ENDBRANCH   1  24
TORSDOF 6
ENDMDL
MODEL 3
REMARK VINA RESULT:      -7.6      2.038      2.462
REMARK  6 active torsions:
REMARK  status: ('A' for Active; 'I' for Inactive)
REMARK    1  A    between atoms: C_2  and  O_3 
REMARK    2  A    between atoms: O_3  and  C_4 
REMARK    3  A    between atoms: C_11  and  C_12 
REMARK    4  A    between atoms: C_12  and  N_13 
REMARK    5  A    between atoms: N_13  and  C_14 
REMARK    6  A    between atoms: C_17  and  O_18 
ROOT
HETATM    1  C   UNL     1     -39.968  52.141 -52.392  1.00  0.00     0.069 A 
HETATM    2  C   UNL     1     -40.583  52.825 -53.444  1.00  0.00     0.050 A 
HETATM    3  C   UNL     1     -41.432  53.904 -53.176  1.00  0.00    -0.006 A 
HETATM    4  C   UNL     1     -41.661  54.298 -51.854  1.00  0.00     0.045 A 
HETATM    5  N   UNL     1     -42.510  55.380 -51.598  1.00  0.00    -0.322 N 
HETATM    6  C   UNL     1     -43.140  56.101 -52.579  1.00  0.00     0.253 A 
HETATM    7  O   UNL     1     -43.863  57.054 -52.301  1.00  0.00    -0.268 OA
HETATM    8  C   UNL     1     -42.907  55.678 -53.990  1.00  0.00     0.024 A 
HETATM    9  C   UNL     1     -42.100  54.633 -54.254  1.00  0.00     0.027 A 
HETATM   10  C   UNL     1     -41.053  53.623 -50.799  1.00  0.00     0.033 A 
HETATM   11  C   UNL     1     -40.209  52.544 -51.075  1.00  0.00     0.039 A 
HETATM   12  H   UNL     1     -42.679  55.684 -50.649  1.00  0.00     0.169 HD
ENDROOT
BRANCH   8  13
HETATM   13  C   UNL     1     -43.648  56.428 -55.057  1.00  0.00     0.136 C 
BRANCH  13  14
HETATM   14  N   UNL     1     -43.550  55.677 -56.305  1.00  0.00    -0.289 NA
HETATM   15  H   UNL     1     -42.984  54.838 -56.169  1.00  0.00     0.128 HD
BRANCH  14  16
HETATM   16  C   UNL     1     -43.160  56.341 -57.476  1.00  0.00     0.008 A 
HETATM   17  C   UNL     1     -42.492  57.567 -57.357  1.00  0.00     0.026 A 
HETATM   18  C   UNL     1     -42.003  58.241 -58.482  1.00  0.00     0.038 A 
HETATM   19  C   UNL     1     -42.136  57.688 -59.754  1.00  0.00     0.068 A 
HETATM   20  C   UNL     1     -42.762  56.452 -59.886  1.00  0.00     0.038 A 
HETATM   21  C   UNL     1     -43.255  55.783 -58.755  1.00  0.00     0.026 A 
BRANCH  19  22
HETATM   22  O   UNL     1     -41.610  58.439 -60.768  1.00  0.00    -0.356 OA
HETATM   23  C   UNL     1     -42.017  59.800 -60.834  1.00  0.00     0.210 C 
ENDBRANCH  19  22
ENDBRANCH  14  16
ENDBRANCH  13  14
ENDBRANCH   8  13
BRANCH   1  24
HETATM   24  O   UNL     1     -39.122  51.073 -52.514  1.00  0.00    -0.351 OA
BRANCH  24  25
HETATM   25  C   UNL     1     -39.687  49.840 -52.957  1.00  0.00     0.171 C 
HETATM   26  C   UNL     1     -39.509  49.755 -54.461  1.00  0.00     0.034 C 
ENDBRANCH  24  25
ENDBRANCH   1  24
TORSDOF 6
ENDMDL
MODEL 4
REMARK VINA RESULT:      -7.3      3.942      6.754
REMARK  6 active torsions:
REMARK  status: ('A' for Active; 'I' for Inactive)
REMARK    1  A    between atoms: C_2  and  O_3 
REMARK    2  A    between atoms: O_3  and  C_4 
REMARK    3  A    between atoms: C_11  and  C_12 
REMARK    4  A    between atoms: C_12  and  N_13 
REMARK    5  A    between atoms: N_13  and  C_14 
REMARK    6  A    between atoms: C_17  and  O_18 
ROOT
HETATM    1  C   UNL     1     -39.975  52.255 -52.475  1.00  0.00     0.069 A 
HETATM    2  C   UNL     1     -40.753  53.215 -51.824  1.00  0.00     0.050 A 
HETATM    3  C   UNL     1     -41.624  54.027 -52.559  1.00  0.00    -0.006 A 
HETATM    4  C   UNL     1     -41.715  53.872 -53.946  1.00  0.00     0.045 A 
HETATM    5  N   UNL     1     -42.591  54.687 -54.671  1.00  0.00    -0.322 N 
HETATM    6  C   UNL     1     -43.389  55.643 -54.099  1.00  0.00     0.253 A 
HETATM    7  O   UNL     1     -44.154  56.322 -54.779  1.00  0.00    -0.268 OA
HETATM    8  C   UNL     1     -43.287  55.820 -52.621  1.00  0.00     0.024 A 
HETATM    9  C   UNL     1     -42.444  55.049 -51.910  1.00  0.00     0.027 A 
HETATM   10  C   UNL     1     -40.944  52.918 -54.604  1.00  0.00     0.033 A 
HETATM   11  C   UNL     1     -40.075  52.114 -53.863  1.00  0.00     0.039 A 
HETATM   12  H   UNL     1     -42.676  54.581 -55.673  1.00  0.00     0.169 HD
ENDROOT
BRANCH   8  13
HETATM   13  C   UNL     1     -44.115  56.909 -52.007  1.00  0.00     0.136 C 
BRANCH  13  14
HETATM   14  N   UNL     1     -43.597  58.196 -52.461  1.00  0.00    -0.289 NA
HETATM   15  H   UNL     1     -43.771  58.314 -53.460  1.00  0.00     0.128 HD
BRANCH  14  16
HETATM   16  C   UNL     1     -42.276  58.551 -52.153  1.00  0.00     0.008 A 
HETATM   17  C   UNL     1     -41.890  58.581 -50.806  1.00  0.00     0.026 A 
HETATM   18  C   UNL     1     -40.567  58.846 -50.434  1.00  0.00     0.038 A 
HETATM   19  C   UNL     1     -39.586  59.051 -51.402  1.00  0.00     0.068 A 
HETATM   20  C   UNL     1     -39.943  58.985 -52.745  1.00  0.00     0.038 A 
HETATM   21  C   UNL     1     -41.273  58.723 -53.112  1.00  0.00     0.026 A 
BRANCH  19  22
HETATM   22  O   UNL     1     -38.333  59.292 -50.911  1.00  0.00    -0.356 OA
HETATM   23  C   UNL     1     -38.241  60.156 -49.785  1.00  0.00     0.210 C 
ENDBRANCH  19  22
ENDBRANCH  14  16
ENDBRANCH  13  14
ENDBRANCH   8  13
BRANCH   1  24
HETATM   24  O   UNL     1     -39.086  51.403 -51.879  1.00  0.00    -0.351 OA
BRANCH  24  25
HETATM   25  C   UNL     1     -39.523  50.067 -51.638  1.00  0.00     0.171 C 
HETATM   26  C   UNL     1     -40.107  50.008 -50.238  1.00  0.00     0.034 C 
ENDBRANCH  24  25
ENDBRANCH   1  24
TORSDOF 6
ENDMDL
MODEL 5
REMARK VINA RESULT:      -7.3     14.514     16.725
REMARK  6 active torsions:
REMARK  status: ('A' for Active; 'I' for Inactive)
REMARK    1  A    between atoms: C_2  and  O_3 
REMARK    2  A    between atoms: O_3  and  C_4 
REMARK    3  A    between atoms: C_11  and  C_12 
REMARK    4  A    between atoms: C_12  and  N_13 
REMARK    5  A    between atoms: N_13  and  C_14 
REMARK    6  A    between atoms: C_17  and  O_18 
ROOT
HETATM    1  C   UNL     1     -31.948  39.471 -48.834  1.00  0.00     0.069 A 
HETATM    2  C   UNL     1     -32.374  40.415 -49.772  1.00  0.00     0.050 A 
HETATM    3  C   UNL     1     -33.681  40.367 -50.270  1.00  0.00    -0.006 A 
HETATM    4  C   UNL     1     -34.559  39.373 -49.825  1.00  0.00     0.045 A 
HETATM    5  N   UNL     1     -35.864  39.336 -50.327  1.00  0.00    -0.322 N 
HETATM    6  C   UNL     1     -36.352  40.233 -51.241  1.00  0.00     0.253 A 
HETATM    7  O   UNL     1     -37.512  40.166 -51.639  1.00  0.00    -0.268 OA
HETATM    8  C   UNL     1     -35.416  41.288 -51.727  1.00  0.00     0.024 A 
HETATM    9  C   UNL     1     -34.155  41.333 -51.260  1.00  0.00     0.027 A 
HETATM   10  C   UNL     1     -34.143  38.428 -48.891  1.00  0.00     0.033 A 
HETATM   11  C   UNL     1     -32.836  38.481 -48.401  1.00  0.00     0.039 A 
HETATM   12  H   UNL     1     -36.514  38.631 -50.009  1.00  0.00     0.169 HD
ENDROOT
BRANCH   8  13
HETATM   13  C   UNL     1     -35.934  42.228 -52.774  1.00  0.00     0.136 C 
BRANCH  13  14
HETATM   14  N   UNL     1     -35.049  42.166 -53.933  1.00  0.00    -0.289 NA
HETATM   15  H   UNL     1     -34.423  42.972 -53.943  1.00  0.00     0.128 HD
BRANCH  14  16
HETATM   16  C   UNL     1     -35.599  41.963 -55.206  1.00  0.00     0.008 A 
HETATM   17  C   UNL     1     -36.991  42.025 -55.349  1.00  0.00     0.026 A 
HETATM   18  C   UNL     1     -37.600  41.914 -56.604  1.00  0.00     0.038 A 
HETATM   19  C   UNL     1     -36.829  41.775 -57.757  1.00  0.00     0.068 A 
HETATM   20  C   UNL     1     -35.443  41.751 -57.637  1.00  0.00     0.038 A 
HETATM   21  C   UNL     1     -34.838  41.858 -56.375  1.00  0.00     0.026 A 
BRANCH  19  22
HETATM   22  O   UNL     1     -37.541  41.685 -58.920  1.00  0.00    -0.356 OA
HETATM   23  C   UNL     1     -37.152  40.665 -59.831  1.00  0.00     0.210 C 
ENDBRANCH  19  22
ENDBRANCH  14  16
ENDBRANCH  13  14
ENDBRANCH   8  13
BRANCH   1  24
HETATM   24  O   UNL     1     -30.702  39.403 -48.272  1.00  0.00    -0.351 OA
BRANCH  24  25
HETATM   25  C   UNL     1     -30.632  39.286 -46.852  1.00  0.00     0.171 C 
HETATM   26  C   UNL     1     -30.096  40.594 -46.299  1.00  0.00     0.034 C 
ENDBRANCH  24  25
ENDBRANCH   1  24
TORSDOF 6
ENDMDL
MODEL 6
REMARK VINA RESULT:      -7.1      3.169      6.219
REMARK  6 active torsions:
REMARK  status: ('A' for Active; 'I' for Inactive)
REMARK    1  A    between atoms: C_2  and  O_3 
REMARK    2  A    between atoms: O_3  and  C_4 
REMARK    3  A    between atoms: C_11  and  C_12 
REMARK    4  A    between atoms: C_12  and  N_13 
REMARK    5  A    between atoms: N_13  and  C_14 
REMARK    6  A    between atoms: C_17  and  O_18 
ROOT
HETATM    1  C   UNL     1     -40.666  52.925 -52.788  1.00  0.00     0.069 A 
HETATM    2  C   UNL     1     -41.771  53.772 -52.672  1.00  0.00     0.050 A 
HETATM    3  C   UNL     1     -42.175  54.549 -53.764  1.00  0.00    -0.006 A 
HETATM    4  C   UNL     1     -41.472  54.472 -54.971  1.00  0.00     0.045 A 
HETATM    5  N   UNL     1     -41.887  55.250 -56.057  1.00  0.00    -0.322 N 
HETATM    6  C   UNL     1     -42.965  56.097 -56.017  1.00  0.00     0.253 A 
HETATM    7  O   UNL     1     -43.297  56.747 -57.004  1.00  0.00    -0.268 OA
HETATM    8  C   UNL     1     -43.710  56.191 -54.729  1.00  0.00     0.024 A 
HETATM    9  C   UNL     1     -43.320  55.454 -53.672  1.00  0.00     0.027 A 
HETATM   10  C   UNL     1     -40.371  53.630 -55.096  1.00  0.00     0.033 A 
HETATM   11  C   UNL     1     -39.972  52.861 -54.000  1.00  0.00     0.039 A 
HETATM   12  H   UNL     1     -41.397  55.199 -56.939  1.00  0.00     0.169 HD
ENDROOT
BRANCH   8  13
HETATM   13  C   UNL     1     -44.849  57.165 -54.670  1.00  0.00     0.136 C 
BRANCH  13  14
HETATM   14  N   UNL     1     -44.303  58.518 -54.696  1.00  0.00    -0.289 NA
HETATM   15  H   UNL     1     -43.919  58.727 -55.618  1.00  0.00     0.128 HD
BRANCH  14  16
HETATM   16  C   UNL     1     -43.406  58.914 -53.695  1.00  0.00     0.008 A 
HETATM   17  C   UNL     1     -43.872  59.003 -52.377  1.00  0.00     0.026 A 
HETATM   18  C   UNL     1     -43.010  59.312 -51.319  1.00  0.00     0.038 A 
HETATM   19  C   UNL     1     -41.649  59.503 -51.545  1.00  0.00     0.068 A 
HETATM   20  C   UNL     1     -41.161  59.379 -52.843  1.00  0.00     0.038 A 
HETATM   21  C   UNL     1     -42.032  59.074 -53.901  1.00  0.00     0.026 A 
BRANCH  19  22
HETATM   22  O   UNL     1     -40.913  59.790 -50.430  1.00  0.00    -0.356 OA
HETATM   23  C   UNL     1     -39.507  59.596 -50.523  1.00  0.00     0.210 C 
ENDBRANCH  19  22
ENDBRANCH  14  16
ENDBRANCH  13  14
ENDBRANCH   8  13
BRANCH   1  24
HETATM   24  O   UNL     1     -40.166  52.118 -51.802  1.00  0.00    -0.351 OA
BRANCH  24  25
HETATM   25  C   UNL     1     -40.437  52.492 -50.453  1.00  0.00     0.171 C 
HETATM   26  C   UNL     1     -39.661  53.761 -50.152  1.00  0.00     0.034 C 
ENDBRANCH  24  25
ENDBRANCH   1  24
TORSDOF 6
ENDMDL
MODEL 7
REMARK VINA RESULT:      -7.0      2.209      2.666
REMARK  6 active torsions:
REMARK  status: ('A' for Active; 'I' for Inactive)
REMARK    1  A    between atoms: C_2  and  O_3 
REMARK    2  A    between atoms: O_3  and  C_4 
REMARK    3  A    between atoms: C_11  and  C_12 
REMARK    4  A    between atoms: C_12  and  N_13 
REMARK    5  A    between atoms: N_13  and  C_14 
REMARK    6  A    between atoms: C_17  and  O_18 
ROOT
HETATM    1  C   UNL     1     -40.459  52.871 -51.879  1.00  0.00     0.069 A 
HETATM    2  C   UNL     1     -40.549  53.197 -53.235  1.00  0.00     0.050 A 
HETATM    3  C   UNL     1     -41.564  54.049 -53.684  1.00  0.00    -0.006 A 
HETATM    4  C   UNL     1     -42.485  54.574 -52.772  1.00  0.00     0.045 A 
HETATM    5  N   UNL     1     -43.494  55.428 -53.232  1.00  0.00    -0.322 N 
HETATM    6  C   UNL     1     -43.638  55.797 -54.544  1.00  0.00     0.253 A 
HETATM    7  O   UNL     1     -44.532  56.562 -54.893  1.00  0.00    -0.268 OA
HETATM    8  C   UNL     1     -42.665  55.230 -55.522  1.00  0.00     0.024 A 
HETATM    9  C   UNL     1     -41.693  54.401 -55.097  1.00  0.00     0.027 A 
HETATM   10  C   UNL     1     -42.403  54.255 -51.420  1.00  0.00     0.033 A 
HETATM   11  C   UNL     1     -41.389  53.401 -50.980  1.00  0.00     0.039 A 
HETATM   12  H   UNL     1     -44.162  55.824 -52.585  1.00  0.00     0.169 HD
ENDROOT
BRANCH   8  13
HETATM   13  C   UNL     1     -42.864  55.585 -56.965  1.00  0.00     0.136 C 
BRANCH  13  14
HETATM   14  N   UNL     1     -42.206  56.862 -57.223  1.00  0.00    -0.289 NA
HETATM   15  H   UNL     1     -42.092  57.383 -56.353  1.00  0.00     0.128 HD
BRANCH  14  16
HETATM   16  C   UNL     1     -42.708  57.701 -58.228  1.00  0.00     0.008 A 
HETATM   17  C   UNL     1     -41.894  57.978 -59.334  1.00  0.00     0.026 A 
HETATM   18  C   UNL     1     -42.364  58.739 -60.410  1.00  0.00     0.038 A 
HETATM   19  C   UNL     1     -43.674  59.213 -60.427  1.00  0.00     0.068 A 
HETATM   20  C   UNL     1     -44.509  58.913 -59.354  1.00  0.00     0.038 A 
HETATM   21  C   UNL     1     -44.030  58.153 -58.275  1.00  0.00     0.026 A 
BRANCH  19  22
HETATM   22  O   UNL     1     -44.013  59.936 -61.536  1.00  0.00    -0.356 OA
HETATM   23  C   UNL     1     -43.022  60.812 -62.056  1.00  0.00     0.210 C 
ENDBRANCH  19  22
ENDBRANCH  14  16
ENDBRANCH  13  14
ENDBRANCH   8  13
BRANCH   1  24
HETATM   24  O   UNL     1     -39.522  52.051 -51.311  1.00  0.00    -0.351 OA
BRANCH  24  25
HETATM   25  C   UNL     1     -39.410  50.728 -51.833  1.00  0.00     0.171 C 
HETATM   26  C   UNL     1     -39.773  49.754 -50.727  1.00  0.00     0.034 C 
ENDBRANCH  24  25
ENDBRANCH   1  24
TORSDOF 6
ENDMDL
MODEL 8
REMARK VINA RESULT:      -6.9      1.770      8.166
REMARK  6 active torsions:
REMARK  status: ('A' for Active; 'I' for Inactive)
REMARK    1  A    between atoms: C_2  and  O_3 
REMARK    2  A    between atoms: O_3  and  C_4 
REMARK    3  A    between atoms: C_11  and  C_12 
REMARK    4  A    between atoms: C_12  and  N_13 
REMARK    5  A    between atoms: N_13  and  C_14 
REMARK    6  A    between atoms: C_17  and  O_18 
ROOT
HETATM    1  C   UNL     1     -43.395  56.470 -59.797  1.00  0.00     0.069 A 
HETATM    2  C   UNL     1     -43.504  56.106 -58.452  1.00  0.00     0.050 A 
HETATM    3  C   UNL     1     -43.005  56.952 -57.455  1.00  0.00    -0.006 A 
HETATM    4  C   UNL     1     -42.399  58.162 -57.809  1.00  0.00     0.045 A 
HETATM    5  N   UNL     1     -41.905  59.001 -56.804  1.00  0.00    -0.322 N 
HETATM    6  C   UNL     1     -41.985  58.713 -55.466  1.00  0.00     0.253 A 
HETATM    7  O   UNL     1     -41.550  59.492 -54.622  1.00  0.00    -0.268 OA
HETATM    8  C   UNL     1     -42.620  57.419 -55.085  1.00  0.00     0.024 A 
HETATM    9  C   UNL     1     -43.093  56.596 -56.040  1.00  0.00     0.027 A 
HETATM   10  C   UNL     1     -42.285  58.533 -59.146  1.00  0.00     0.033 A 
HETATM   11  C   UNL     1     -42.784  57.681 -60.135  1.00  0.00     0.039 A 
HETATM   12  H   UNL     1     -41.473  59.883 -57.042  1.00  0.00     0.169 HD
ENDROOT
BRANCH   8  13
HETATM   13  C   UNL     1     -42.648  57.078 -53.625  1.00  0.00     0.136 C 
BRANCH  13  14
HETATM   14  N   UNL     1     -41.303  56.690 -53.213  1.00  0.00    -0.289 NA
HETATM   15  H   UNL     1     -40.666  56.726 -54.010  1.00  0.00     0.128 HD
BRANCH  14  16
HETATM   16  C   UNL     1     -41.121  55.497 -52.500  1.00  0.00     0.008 A 
HETATM   17  C   UNL     1     -40.679  54.364 -53.196  1.00  0.00     0.026 A 
HETATM   18  C   UNL     1     -40.399  53.165 -52.530  1.00  0.00     0.038 A 
HETATM   19  C   UNL     1     -40.517  53.078 -51.145  1.00  0.00     0.068 A 
HETATM   20  C   UNL     1     -40.916  54.205 -50.433  1.00  0.00     0.038 A 
HETATM   21  C   UNL     1     -41.201  55.404 -51.107  1.00  0.00     0.026 A 
BRANCH  19  22
HETATM   22  O   UNL     1     -40.207  51.857 -50.615  1.00  0.00    -0.356 OA
HETATM   23  C   UNL     1     -39.615  50.909 -51.494  1.00  0.00     0.210 C 
ENDBRANCH  19  22
ENDBRANCH  14  16
ENDBRANCH  13  14
ENDBRANCH   8  13
BRANCH   1  24
HETATM   24  O   UNL     1     -43.836  55.737 -60.865  1.00  0.00    -0.351 OA
BRANCH  24  25
HETATM   25  C   UNL     1     -44.978  54.906 -60.660  1.00  0.00     0.171 C 
HETATM   26  C   UNL     1     -46.218  55.770 -60.794  1.00  0.00     0.034 C 
ENDBRANCH  24  25
ENDBRANCH   1  24
TORSDOF 6
ENDMDL
MODEL 9
REMARK VINA RESULT:      -6.9      3.462      6.160
REMARK  6 active torsions:
REMARK  status: ('A' for Active; 'I' for Inactive)
REMARK    1  A    between atoms: C_2  and  O_3 
REMARK    2  A    between atoms: O_3  and  C_4 
REMARK    3  A    between atoms: C_11  and  C_12 
REMARK    4  A    between atoms: C_12  and  N_13 
REMARK    5  A    between atoms: N_13  and  C_14 
REMARK    6  A    between atoms: C_17  and  O_18 
ROOT
HETATM    1  C   UNL     1     -40.327  52.961 -52.454  1.00  0.00     0.069 A 
HETATM    2  C   UNL     1     -40.839  54.254 -52.319  1.00  0.00     0.050 A 
HETATM    3  C   UNL     1     -41.223  54.978 -53.453  1.00  0.00    -0.006 A 
HETATM    4  C   UNL     1     -41.094  54.402 -54.722  1.00  0.00     0.045 A 
HETATM    5  N   UNL     1     -41.484  55.134 -55.849  1.00  0.00    -0.322 N 
HETATM    6  C   UNL     1     -42.001  56.402 -55.791  1.00  0.00     0.253 A 
HETATM    7  O   UNL     1     -42.343  56.995 -56.810  1.00  0.00    -0.268 OA
HETATM    8  C   UNL     1     -42.130  57.024 -54.441  1.00  0.00     0.024 A 
HETATM    9  C   UNL     1     -41.752  56.337 -53.347  1.00  0.00     0.027 A 
HETATM   10  C   UNL     1     -40.585  53.115 -54.867  1.00  0.00     0.033 A 
HETATM   11  C   UNL     1     -40.201  52.401 -53.729  1.00  0.00     0.039 A 
HETATM   12  H   UNL     1     -41.407  54.730 -56.772  1.00  0.00     0.169 HD
ENDROOT
BRANCH   8  13
HETATM   13  C   UNL     1     -42.636  58.434 -54.387  1.00  0.00     0.136 C 
BRANCH  13  14
HETATM   14  N   UNL     1     -44.094  58.401 -54.322  1.00  0.00    -0.289 NA
HETATM   15  H   UNL     1     -44.494  58.723 -55.204  1.00  0.00     0.128 HD
BRANCH  14  16
HETATM   16  C   UNL     1     -44.746  59.012 -53.242  1.00  0.00     0.008 A 
HETATM   17  C   UNL     1     -44.505  58.520 -51.952  1.00  0.00     0.026 A 
HETATM   18  C   UNL     1     -45.059  59.136 -50.824  1.00  0.00     0.038 A 
HETATM   19  C   UNL     1     -45.838  60.284 -50.952  1.00  0.00     0.068 A 
HETATM   20  C   UNL     1     -46.055  60.809 -52.222  1.00  0.00     0.038 A 
HETATM   21  C   UNL     1     -45.501  60.184 -53.351  1.00  0.00     0.026 A 
BRANCH  19  22
HETATM   22  O   UNL     1     -46.313  60.794 -49.776  1.00  0.00    -0.356 OA
HETATM   23  C   UNL     1     -46.284  62.208 -49.634  1.00  0.00     0.210 C 
ENDBRANCH  19  22
ENDBRANCH  14  16
ENDBRANCH  13  14
ENDBRANCH   8  13
BRANCH   1  24
HETATM   24  O   UNL     1     -39.913  52.150 -51.433  1.00  0.00    -0.351 OA
BRANCH  24  25
HETATM   25  C   UNL     1     -39.385  50.873 -51.786  1.00  0.00     0.171 C 
HETATM   26  C   UNL     1     -39.757  49.891 -50.691  1.00  0.00     0.034 C 
ENDBRANCH  24  25
ENDBRANCH   1  24
TORSDOF 6
ENDMDL
MODEL 10
REMARK VINA RESULT:      -6.8      4.279      5.755
REMARK  6 active torsions:
REMARK  status: ('A' for Active; 'I' for Inactive)
REMARK    1  A    between atoms: C_2  and  O_3 
REMARK    2  A    between atoms: O_3  and  C_4 
REMARK    3  A    between atoms: C_11  and  C_12 
REMARK    4  A    between atoms: C_12  and  N_13 
REMARK    5  A    between atoms: N_13  and  C_14 
REMARK    6  A    between atoms: C_17  and  O_18 
ROOT
HETATM    1  C   UNL     1     -40.033  52.312 -52.591  1.00  0.00     0.069 A 
HETATM    2  C   UNL     1     -40.756  53.157 -51.745  1.00  0.00     0.050 A 
HETATM    3  C   UNL     1     -41.687  54.054 -52.281  1.00  0.00    -0.006 A 
HETATM    4  C   UNL     1     -41.893  54.100 -53.664  1.00  0.00     0.045 A 
HETATM    5  N   UNL     1     -42.829  54.999 -54.188  1.00  0.00    -0.322 N 
HETATM    6  C   UNL     1     -43.578  55.850 -53.419  1.00  0.00     0.253 A 
HETATM    7  O   UNL     1     -44.398  56.609 -53.928  1.00  0.00    -0.268 OA
HETATM    8  C   UNL     1     -43.354  55.813 -51.945  1.00  0.00     0.024 A 
HETATM    9  C   UNL     1     -42.452  54.960 -51.425  1.00  0.00     0.027 A 
HETATM   10  C   UNL     1     -41.178  53.262 -54.514  1.00  0.00     0.033 A 
HETATM   11  C   UNL     1     -40.248  52.372 -53.971  1.00  0.00     0.039 A 
HETATM   12  H   UNL     1     -42.997  55.038 -55.184  1.00  0.00     0.169 HD
ENDROOT
BRANCH   8  13
HETATM   13  C   UNL     1     -44.129  56.790 -51.113  1.00  0.00     0.136 C 
BRANCH  13  14
HETATM   14  N   UNL     1     -43.275  57.940 -50.831  1.00  0.00    -0.289 NA
HETATM   15  H   UNL     1     -43.421  58.263 -49.874  1.00  0.00     0.128 HD
BRANCH  14  16
HETATM   16  C   UNL     1     -43.277  59.028 -51.716  1.00  0.00     0.008 A 
HETATM   17  C   UNL     1     -42.122  59.276 -52.470  1.00  0.00     0.026 A 
HETATM   18  C   UNL     1     -42.086  60.294 -53.429  1.00  0.00     0.038 A 
HETATM   19  C   UNL     1     -43.216  61.067 -53.688  1.00  0.00     0.068 A 
HETATM   20  C   UNL     1     -44.383  60.807 -52.976  1.00  0.00     0.038 A 
HETATM   21  C   UNL     1     -44.412  59.788 -52.011  1.00  0.00     0.026 A 
BRANCH  19  22
HETATM   22  O   UNL     1     -43.054  62.021 -54.653  1.00  0.00    -0.356 OA
HETATM   23  C   UNL     1     -43.572  63.314 -54.368  1.00  0.00     0.210 C 
ENDBRANCH  19  22
ENDBRANCH  14  16
ENDBRANCH  13  14
ENDBRANCH   8  13
BRANCH   1  24
HETATM   24  O   UNL     1     -39.095  51.395 -52.200  1.00  0.00    -0.351 OA
BRANCH  24  25
HETATM   25  C   UNL     1     -39.515  50.036 -52.095  1.00  0.00     0.171 C 
HETATM   26  C   UNL     1     -39.774  49.735 -50.631  1.00  0.00     0.034 C 
ENDBRANCH  24  25
ENDBRANCH   1  24
TORSDOF 6
ENDMDL
