MODEL 1
REMARK VINA RESULT:      -9.8      0.000      0.000
REMARK  2 active torsions:
REMARK  status: ('A' for Active; 'I' for Inactive)
REMARK    1  A    between atoms: C_4  and  C_5 
REMARK       I    between atoms: N_12  and  C_13 
REMARK    2  A    between atoms: C_13  and  C_14 
ROOT
HETATM    1  C   UNL     1     -40.316  52.866 -51.204  1.00  0.00     0.097 A 
HETATM    2  N   UNL     1     -40.196  52.540 -49.902  1.00  0.00    -0.173 NA
HETATM    3  N   UNL     1     -40.536  53.648 -49.228  1.00  0.00    -0.281 N 
HETATM    4  H   UNL     1     -40.531  53.616 -48.214  1.00  0.00     0.189 HD
HETATM    5  C   UNL     1     -40.882  54.671 -50.046  1.00  0.00     0.039 A 
HETATM    6  C   UNL     1     -40.728  54.224 -51.337  1.00  0.00     0.015 A 
HETATM    7  C   UNL     1     -41.027  55.060 -52.532  1.00  0.00     0.169 C 
HETATM    8  N   UNL     1     -41.752  56.293 -52.142  1.00  0.00    -0.343 N 
HETATM    9  C   UNL     1     -42.342  57.138 -53.089  1.00  0.00     0.254 C 
HETATM   10  O   UNL     1     -42.694  58.290 -52.843  1.00  0.00    -0.267 OA
HETATM   11  C   UNL     1     -41.349  56.934 -50.869  1.00  0.00     0.132 C 
HETATM   12  C   UNL     1     -41.405  55.994 -49.650  1.00  0.00     0.079 C 
ENDROOT
BRANCH   9  13
HETATM   13  C   UNL     1     -42.515  56.675 -54.482  1.00  0.00     0.035 A 
HETATM   14  C   UNL     1     -42.327  57.609 -55.506  1.00  0.00     0.056 A 
HETATM   15  C   UNL     1     -42.495  57.218 -56.831  1.00  0.00     0.103 A 
HETATM   16  C   UNL     1     -42.884  55.908 -57.133  1.00  0.00     0.102 A 
HETATM   17  O   UNL     1     -42.273  58.177 -57.786  1.00  0.00    -0.346 OA
HETATM   18  O   UNL     1     -43.092  55.467 -58.414  1.00  0.00    -0.346 OA
HETATM   19  C   UNL     1     -43.081  54.980 -56.109  1.00  0.00     0.040 A 
HETATM   20  C   UNL     1     -43.246  56.564 -59.322  1.00  0.00     0.202 C 
HETATM   21  C   UNL     1     -42.165  57.606 -59.094  1.00  0.00     0.202 C 
HETATM   22  C   UNL     1     -42.914  55.366 -54.777  1.00  0.00     0.020 A 
ENDBRANCH   9  13
BRANCH   1  23
HETATM   23  C   UNL     1     -40.085  51.864 -52.248  1.00  0.00    -0.005 A 
HETATM   24  C   UNL     1     -39.638  50.582 -51.891  1.00  0.00     0.014 A 
HETATM   25  C   UNL     1     -39.445  49.596 -52.861  1.00  0.00     0.001 A 
HETATM   26  C   UNL     1     -39.693  49.880 -54.201  1.00  0.00     0.000 A 
HETATM   27  C   UNL     1     -40.124  51.154 -54.571  1.00  0.00     0.001 A 
HETATM   28  C   UNL     1     -40.315  52.143 -53.601  1.00  0.00     0.014 A 
ENDBRANCH   1  23
TORSDOF 2
ENDMDL
MODEL 2
REMARK VINA RESULT:      -9.1      1.186      1.527
REMARK  2 active torsions:
REMARK  status: ('A' for Active; 'I' for Inactive)
REMARK    1  A    between atoms: C_4  and  C_5 
REMARK       I    between atoms: N_12  and  C_13 
REMARK    2  A    between atoms: C_13  and  C_14 
ROOT
HETATM    1  C   UNL     1     -40.782  54.458 -51.472  1.00  0.00     0.097 A 
HETATM    2  N   UNL     1     -40.768  54.370 -50.127  1.00  0.00    -0.173 NA
HETATM    3  N   UNL     1     -41.134  55.584 -49.691  1.00  0.00    -0.281 N 
HETATM    4  H   UNL     1     -41.208  55.734 -48.690  1.00  0.00     0.189 HD
HETATM    5  C   UNL     1     -41.394  56.447 -50.702  1.00  0.00     0.039 A 
HETATM    6  C   UNL     1     -41.153  55.774 -51.878  1.00  0.00     0.015 A 
HETATM    7  C   UNL     1     -41.341  56.384 -53.222  1.00  0.00     0.169 C 
HETATM    8  N   UNL     1     -42.065  57.673 -53.116  1.00  0.00    -0.343 N 
HETATM    9  C   UNL     1     -42.564  58.340 -54.242  1.00  0.00     0.254 C 
HETATM   10  O   UNL     1     -42.907  59.520 -54.234  1.00  0.00    -0.267 OA
HETATM   11  C   UNL     1     -41.747  58.529 -51.950  1.00  0.00     0.132 C 
HETATM   12  C   UNL     1     -41.916  57.823 -50.591  1.00  0.00     0.079 C 
ENDROOT
BRANCH   9  13
HETATM   13  C   UNL     1     -42.639  57.636 -55.539  1.00  0.00     0.035 A 
HETATM   14  C   UNL     1     -42.364  58.372 -56.696  1.00  0.00     0.056 A 
HETATM   15  C   UNL     1     -42.438  57.751 -57.940  1.00  0.00     0.103 A 
HETATM   16  C   UNL     1     -42.824  56.408 -58.032  1.00  0.00     0.102 A 
HETATM   17  O   UNL     1     -42.134  58.523 -59.030  1.00  0.00    -0.346 OA
HETATM   18  O   UNL     1     -42.943  55.746 -59.226  1.00  0.00    -0.346 OA
HETATM   19  C   UNL     1     -43.109  55.678 -56.877  1.00  0.00     0.040 A 
HETATM   20  C   UNL     1     -43.013  56.664 -60.324  1.00  0.00     0.202 C 
HETATM   21  C   UNL     1     -41.937  57.729 -60.204  1.00  0.00     0.202 C 
HETATM   22  C   UNL     1     -43.035  56.296 -55.626  1.00  0.00     0.020 A 
ENDBRANCH   9  13
BRANCH   1  23
HETATM   23  C   UNL     1     -40.494  53.283 -52.299  1.00  0.00    -0.005 A 
HETATM   24  C   UNL     1     -39.738  52.228 -51.765  1.00  0.00     0.014 A 
HETATM   25  C   UNL     1     -39.480  51.080 -52.518  1.00  0.00     0.001 A 
HETATM   26  C   UNL     1     -39.972  50.975 -53.816  1.00  0.00     0.000 A 
HETATM   27  C   UNL     1     -40.713  52.021 -54.364  1.00  0.00     0.001 A 
HETATM   28  C   UNL     1     -40.969  53.172 -53.612  1.00  0.00     0.014 A 
ENDBRANCH   1  23
TORSDOF 2
ENDMDL
MODEL 3
REMARK VINA RESULT:      -9.1      2.704      4.269
REMARK  2 active torsions:
REMARK  status: ('A' for Active; 'I' for Inactive)
REMARK    1  A    between atoms: C_4  and  C_5 
REMARK       I    between atoms: N_12  and  C_13 
REMARK    2  A    between atoms: C_13  and  C_14 
ROOT
HETATM    1  C   UNL     1     -41.422  56.863 -53.047  1.00  0.00     0.097 A 
HETATM    2  N   UNL     1     -41.405  57.141 -51.728  1.00  0.00    -0.173 NA
HETATM    3  N   UNL     1     -41.796  58.420 -51.632  1.00  0.00    -0.281 N 
HETATM    4  H   UNL     1     -41.871  58.833 -50.708  1.00  0.00     0.189 HD
HETATM    5  C   UNL     1     -42.075  58.973 -52.836  1.00  0.00     0.039 A 
HETATM    6  C   UNL     1     -41.822  58.014 -53.789  1.00  0.00     0.015 A 
HETATM    7  C   UNL     1     -42.026  58.235 -55.246  1.00  0.00     0.169 C 
HETATM    8  N   UNL     1     -42.777  59.490 -55.486  1.00  0.00    -0.343 N 
HETATM    9  C   UNL     1     -43.291  59.818 -56.746  1.00  0.00     0.254 C 
HETATM   10  O   UNL     1     -43.660  60.950 -57.054  1.00  0.00    -0.267 OA
HETATM   11  C   UNL     1     -42.475  60.634 -54.596  1.00  0.00     0.132 C 
HETATM   12  C   UNL     1     -42.627  60.318 -53.096  1.00  0.00     0.079 C 
ENDROOT
BRANCH   9  13
HETATM   13  C   UNL     1     -43.354  58.789 -57.805  1.00  0.00     0.035 A 
HETATM   14  C   UNL     1     -44.588  58.176 -58.044  1.00  0.00     0.056 A 
HETATM   15  C   UNL     1     -44.688  57.191 -59.023  1.00  0.00     0.103 A 
HETATM   16  C   UNL     1     -43.551  56.792 -59.736  1.00  0.00     0.102 A 
HETATM   17  O   UNL     1     -45.931  56.647 -59.221  1.00  0.00    -0.346 OA
HETATM   18  O   UNL     1     -43.576  55.810 -60.692  1.00  0.00    -0.346 OA
HETATM   19  C   UNL     1     -42.318  57.398 -59.488  1.00  0.00     0.040 A 
HETATM   20  C   UNL     1     -44.760  55.011 -60.585  1.00  0.00     0.202 C 
HETATM   21  C   UNL     1     -45.990  55.890 -60.434  1.00  0.00     0.202 C 
HETATM   22  C   UNL     1     -42.212  58.388 -58.508  1.00  0.00     0.020 A 
ENDBRANCH   9  13
BRANCH   1  23
HETATM   23  C   UNL     1     -41.111  55.515 -53.529  1.00  0.00    -0.005 A 
HETATM   24  C   UNL     1     -41.570  54.399 -52.811  1.00  0.00     0.014 A 
HETATM   25  C   UNL     1     -41.320  53.103 -53.267  1.00  0.00     0.001 A 
HETATM   26  C   UNL     1     -40.605  52.906 -54.444  1.00  0.00     0.000 A 
HETATM   27  C   UNL     1     -40.131  54.005 -55.161  1.00  0.00     0.001 A 
HETATM   28  C   UNL     1     -40.379  55.304 -54.703  1.00  0.00     0.014 A 
ENDBRANCH   1  23
TORSDOF 2
ENDMDL
MODEL 4
REMARK VINA RESULT:      -9.0      2.736      6.823
REMARK  2 active torsions:
REMARK  status: ('A' for Active; 'I' for Inactive)
REMARK    1  A    between atoms: C_4  and  C_5 
REMARK       I    between atoms: N_12  and  C_13 
REMARK    2  A    between atoms: C_13  and  C_14 
ROOT
HETATM    1  C   UNL     1     -42.264  58.685 -56.232  1.00  0.00     0.097 A 
HETATM    2  N   UNL     1     -42.199  60.025 -56.361  1.00  0.00    -0.173 NA
HETATM    3  N   UNL     1     -42.017  60.490 -55.116  1.00  0.00    -0.281 N 
HETATM    4  H   UNL     1     -41.922  61.492 -54.986  1.00  0.00     0.189 HD
HETATM    5  C   UNL     1     -41.950  59.501 -54.193  1.00  0.00     0.039 A 
HETATM    6  C   UNL     1     -42.134  58.313 -54.861  1.00  0.00     0.015 A 
HETATM    7  C   UNL     1     -42.112  56.985 -54.189  1.00  0.00     0.169 C 
HETATM    8  N   UNL     1     -41.604  57.108 -52.802  1.00  0.00    -0.343 N 
HETATM    9  C   UNL     1     -41.276  55.988 -52.030  1.00  0.00     0.254 C 
HETATM   10  O   UNL     1     -41.130  56.025 -50.809  1.00  0.00    -0.267 OA
HETATM   11  C   UNL     1     -42.003  58.317 -52.045  1.00  0.00     0.132 C 
HETATM   12  C   UNL     1     -41.656  59.641 -52.753  1.00  0.00     0.079 C 
ENDROOT
BRANCH   9  13
HETATM   13  C   UNL     1     -41.147  54.664 -52.673  1.00  0.00     0.035 A 
HETATM   14  C   UNL     1     -40.359  53.702 -52.032  1.00  0.00     0.056 A 
HETATM   15  C   UNL     1     -40.199  52.447 -52.611  1.00  0.00     0.103 A 
HETATM   16  C   UNL     1     -40.795  52.163 -53.846  1.00  0.00     0.102 A 
HETATM   17  O   UNL     1     -39.434  51.545 -51.919  1.00  0.00    -0.346 OA
HETATM   18  O   UNL     1     -40.654  50.957 -54.483  1.00  0.00    -0.346 OA
HETATM   19  C   UNL     1     -41.572  53.127 -54.490  1.00  0.00     0.040 A 
HETATM   20  C   UNL     1     -39.553  50.213 -53.949  1.00  0.00     0.202 C 
HETATM   21  C   UNL     1     -39.588  50.217 -52.430  1.00  0.00     0.202 C 
HETATM   22  C   UNL     1     -41.736  54.389 -53.913  1.00  0.00     0.020 A 
ENDBRANCH   9  13
BRANCH   1  23
HETATM   23  C   UNL     1     -42.394  57.828 -57.413  1.00  0.00    -0.005 A 
HETATM   24  C   UNL     1     -43.052  56.593 -57.304  1.00  0.00     0.014 A 
HETATM   25  C   UNL     1     -43.223  55.772 -58.421  1.00  0.00     0.001 A 
HETATM   26  C   UNL     1     -42.735  56.175 -59.661  1.00  0.00     0.000 A 
HETATM   27  C   UNL     1     -42.067  57.393 -59.782  1.00  0.00     0.001 A 
HETATM   28  C   UNL     1     -41.893  58.214 -58.662  1.00  0.00     0.014 A 
ENDBRANCH   1  23
TORSDOF 2
ENDMDL
MODEL 5
REMARK VINA RESULT:      -8.9      2.100      3.466
REMARK  2 active torsions:
REMARK  status: ('A' for Active; 'I' for Inactive)
REMARK    1  A    between atoms: C_4  and  C_5 
REMARK       I    between atoms: N_12  and  C_13 
REMARK    2  A    between atoms: C_13  and  C_14 
ROOT
HETATM    1  C   UNL     1     -41.313  56.077 -52.101  1.00  0.00     0.097 A 
HETATM    2  N   UNL     1     -41.492  55.925 -50.774  1.00  0.00    -0.173 NA
HETATM    3  N   UNL     1     -41.890  57.128 -50.333  1.00  0.00    -0.281 N 
HETATM    4  H   UNL     1     -42.101  57.233 -49.346  1.00  0.00     0.189 HD
HETATM    5  C   UNL     1     -41.986  58.043 -51.326  1.00  0.00     0.039 A 
HETATM    6  C   UNL     1     -41.595  57.420 -52.488  1.00  0.00     0.015 A 
HETATM    7  C   UNL     1     -41.578  58.097 -53.814  1.00  0.00     0.169 C 
HETATM    8  N   UNL     1     -42.283  59.399 -53.746  1.00  0.00    -0.343 N 
HETATM    9  C   UNL     1     -42.602  60.131 -54.896  1.00  0.00     0.254 C 
HETATM   10  O   UNL     1     -42.919  61.319 -54.877  1.00  0.00    -0.267 OA
HETATM   11  C   UNL     1     -42.114  60.191 -52.506  1.00  0.00     0.132 C 
HETATM   12  C   UNL     1     -42.489  59.428 -51.221  1.00  0.00     0.079 C 
ENDROOT
BRANCH   9  13
HETATM   13  C   UNL     1     -42.508  59.490 -56.225  1.00  0.00     0.035 A 
HETATM   14  C   UNL     1     -43.105  58.236 -56.386  1.00  0.00     0.056 A 
HETATM   15  C   UNL     1     -43.027  57.591 -57.617  1.00  0.00     0.103 A 
HETATM   16  C   UNL     1     -42.323  58.179 -58.674  1.00  0.00     0.102 A 
HETATM   17  O   UNL     1     -43.654  56.375 -57.713  1.00  0.00    -0.346 OA
HETATM   18  O   UNL     1     -42.186  57.585 -59.902  1.00  0.00    -0.346 OA
HETATM   19  C   UNL     1     -41.719  59.426 -58.508  1.00  0.00     0.040 A 
HETATM   20  C   UNL     1     -42.491  56.187 -59.839  1.00  0.00     0.202 C 
HETATM   21  C   UNL     1     -43.782  55.952 -59.074  1.00  0.00     0.202 C 
HETATM   22  C   UNL     1     -41.794  60.079 -57.275  1.00  0.00     0.020 A 
ENDBRANCH   9  13
BRANCH   1  23
HETATM   23  C   UNL     1     -40.937  54.934 -52.937  1.00  0.00    -0.005 A 
HETATM   24  C   UNL     1     -40.583  55.144 -54.280  1.00  0.00     0.014 A 
HETATM   25  C   UNL     1     -40.185  54.078 -55.090  1.00  0.00     0.001 A 
HETATM   26  C   UNL     1     -40.138  52.789 -54.569  1.00  0.00     0.000 A 
HETATM   27  C   UNL     1     -40.500  52.563 -53.241  1.00  0.00     0.001 A 
HETATM   28  C   UNL     1     -40.902  53.629 -52.430  1.00  0.00     0.014 A 
ENDBRANCH   1  23
TORSDOF 2
ENDMDL
MODEL 6
REMARK VINA RESULT:      -8.4      2.810      4.573
REMARK  2 active torsions:
REMARK  status: ('A' for Active; 'I' for Inactive)
REMARK    1  A    between atoms: C_4  and  C_5 
REMARK       I    between atoms: N_12  and  C_13 
REMARK    2  A    between atoms: C_13  and  C_14 
ROOT
HETATM    1  C   UNL     1     -43.365  56.437 -52.449  1.00  0.00     0.097 A 
HETATM    2  N   UNL     1     -43.657  56.461 -51.133  1.00  0.00    -0.173 NA
HETATM    3  N   UNL     1     -44.369  57.583 -50.951  1.00  0.00    -0.281 N 
HETATM    4  H   UNL     1     -44.711  57.789 -50.018  1.00  0.00     0.189 HD
HETATM    5  C   UNL     1     -44.556  58.275 -52.099  1.00  0.00     0.039 A 
HETATM    6  C   UNL     1     -43.901  57.589 -53.095  1.00  0.00     0.015 A 
HETATM    7  C   UNL     1     -43.887  58.028 -54.518  1.00  0.00     0.169 C 
HETATM    8  N   UNL     1     -44.875  59.110 -54.742  1.00  0.00    -0.343 N 
HETATM    9  C   UNL     1     -45.219  59.547 -56.027  1.00  0.00     0.254 C 
HETATM   10  O   UNL     1     -45.800  60.607 -56.249  1.00  0.00    -0.267 OA
HETATM   11  C   UNL     1     -45.038  60.107 -53.659  1.00  0.00     0.132 C 
HETATM   12  C   UNL     1     -45.373  59.491 -52.287  1.00  0.00     0.079 C 
ENDROOT
BRANCH   9  13
HETATM   13  C   UNL     1     -44.828  58.745 -57.205  1.00  0.00     0.035 A 
HETATM   14  C   UNL     1     -45.815  57.968 -57.820  1.00  0.00     0.056 A 
HETATM   15  C   UNL     1     -45.485  57.186 -58.924  1.00  0.00     0.103 A 
HETATM   16  C   UNL     1     -44.166  57.150 -59.389  1.00  0.00     0.102 A 
HETATM   17  O   UNL     1     -46.504  56.467 -59.492  1.00  0.00    -0.346 OA
HETATM   18  O   UNL     1     -43.770  56.380 -60.453  1.00  0.00    -0.346 OA
HETATM   19  C   UNL     1     -43.180  57.917 -58.767  1.00  0.00     0.040 A 
HETATM   20  C   UNL     1     -44.739  55.369 -60.751  1.00  0.00     0.202 C 
HETATM   21  C   UNL     1     -46.139  55.957 -60.779  1.00  0.00     0.202 C 
HETATM   22  C   UNL     1     -43.505  58.705 -57.660  1.00  0.00     0.020 A 
ENDBRANCH   9  13
BRANCH   1  23
HETATM   23  C   UNL     1     -42.642  55.303 -53.031  1.00  0.00    -0.005 A 
HETATM   24  C   UNL     1     -43.160  54.660 -54.167  1.00  0.00     0.014 A 
HETATM   25  C   UNL     1     -42.473  53.602 -54.765  1.00  0.00     0.001 A 
HETATM   26  C   UNL     1     -41.262  53.169 -54.233  1.00  0.00     0.000 A 
HETATM   27  C   UNL     1     -40.742  53.789 -53.097  1.00  0.00     0.001 A 
HETATM   28  C   UNL     1     -41.431  54.848 -52.495  1.00  0.00     0.014 A 
ENDBRANCH   1  23
TORSDOF 2
ENDMDL
MODEL 7
REMARK VINA RESULT:      -8.2      2.590      5.532
REMARK  2 active torsions:
REMARK  status: ('A' for Active; 'I' for Inactive)
REMARK    1  A    between atoms: C_4  and  C_5 
REMARK       I    between atoms: N_12  and  C_13 
REMARK    2  A    between atoms: C_13  and  C_14 
ROOT
HETATM    1  C   UNL     1     -41.623  56.267 -51.930  1.00  0.00     0.097 A 
HETATM    2  N   UNL     1     -41.018  55.297 -51.215  1.00  0.00    -0.173 NA
HETATM    3  N   UNL     1     -41.048  54.211 -52.001  1.00  0.00    -0.281 N 
HETATM    4  H   UNL     1     -40.622  53.356 -51.656  1.00  0.00     0.189 HD
HETATM    5  C   UNL     1     -41.637  54.446 -53.197  1.00  0.00     0.039 A 
HETATM    6  C   UNL     1     -42.053  55.757 -53.190  1.00  0.00     0.015 A 
HETATM    7  C   UNL     1     -42.736  56.404 -54.344  1.00  0.00     0.169 C 
HETATM    8  N   UNL     1     -42.653  55.547 -55.551  1.00  0.00    -0.343 N 
HETATM    9  C   UNL     1     -43.018  56.013 -56.819  1.00  0.00     0.254 C 
HETATM   10  O   UNL     1     -43.235  55.273 -57.776  1.00  0.00    -0.267 OA
HETATM   11  C   UNL     1     -42.765  54.085 -55.345  1.00  0.00     0.132 C 
HETATM   12  C   UNL     1     -41.750  53.514 -54.337  1.00  0.00     0.079 C 
ENDROOT
BRANCH   9  13
HETATM   13  C   UNL     1     -43.219  57.460 -57.040  1.00  0.00     0.035 A 
HETATM   14  C   UNL     1     -42.086  58.248 -57.271  1.00  0.00     0.056 A 
HETATM   15  C   UNL     1     -42.230  59.618 -57.469  1.00  0.00     0.103 A 
HETATM   16  C   UNL     1     -43.498  60.207 -57.400  1.00  0.00     0.102 A 
HETATM   17  O   UNL     1     -41.082  60.326 -57.713  1.00  0.00    -0.346 OA
HETATM   18  O   UNL     1     -43.705  61.554 -57.559  1.00  0.00    -0.346 OA
HETATM   19  C   UNL     1     -44.626  59.422 -57.159  1.00  0.00     0.040 A 
HETATM   20  C   UNL     1     -42.484  62.288 -57.408  1.00  0.00     0.202 C 
HETATM   21  C   UNL     1     -41.365  61.640 -58.204  1.00  0.00     0.202 C 
HETATM   22  C   UNL     1     -44.488  58.046 -56.960  1.00  0.00     0.020 A 
ENDBRANCH   9  13
BRANCH   1  23
HETATM   23  C   UNL     1     -41.715  57.632 -51.406  1.00  0.00    -0.005 A 
HETATM   24  C   UNL     1     -40.572  58.247 -50.869  1.00  0.00     0.014 A 
HETATM   25  C   UNL     1     -40.622  59.560 -50.396  1.00  0.00     0.001 A 
HETATM   26  C   UNL     1     -41.816  60.274 -50.450  1.00  0.00     0.000 A 
HETATM   27  C   UNL     1     -42.962  59.671 -50.968  1.00  0.00     0.001 A 
HETATM   28  C   UNL     1     -42.914  58.355 -51.439  1.00  0.00     0.014 A 
ENDBRANCH   1  23
TORSDOF 2
ENDMDL
MODEL 8
REMARK VINA RESULT:      -8.1      2.861      5.884
REMARK  2 active torsions:
REMARK  status: ('A' for Active; 'I' for Inactive)
REMARK    1  A    between atoms: C_4  and  C_5 
REMARK       I    between atoms: N_12  and  C_13 
REMARK    2  A    between atoms: C_13  and  C_14 
ROOT
HETATM    1  C   UNL     1     -41.224  53.705 -52.535  1.00  0.00     0.097 A 
HETATM    2  N   UNL     1     -40.719  52.667 -53.231  1.00  0.00    -0.173 NA
HETATM    3  N   UNL     1     -41.063  52.898 -54.506  1.00  0.00    -0.281 N 
HETATM    4  H   UNL     1     -40.762  52.235 -55.213  1.00  0.00     0.189 HD
HETATM    5  C   UNL     1     -41.760  54.048 -54.660  1.00  0.00     0.039 A 
HETATM    6  C   UNL     1     -41.916  54.596 -53.408  1.00  0.00     0.015 A 
HETATM    7  C   UNL     1     -42.620  55.883 -53.160  1.00  0.00     0.169 C 
HETATM    8  N   UNL     1     -42.871  56.598 -54.434  1.00  0.00    -0.343 N 
HETATM    9  C   UNL     1     -43.317  57.924 -54.467  1.00  0.00     0.254 C 
HETATM   10  O   UNL     1     -43.802  58.452 -55.465  1.00  0.00    -0.267 OA
HETATM   11  C   UNL     1     -43.227  55.770 -55.610  1.00  0.00     0.132 C 
HETATM   12  C   UNL     1     -42.205  54.661 -55.927  1.00  0.00     0.079 C 
ENDROOT
BRANCH   9  13
HETATM   13  C   UNL     1     -43.271  58.745 -53.239  1.00  0.00     0.035 A 
HETATM   14  C   UNL     1     -44.460  58.907 -52.520  1.00  0.00     0.056 A 
HETATM   15  C   UNL     1     -44.464  59.686 -51.365  1.00  0.00     0.103 A 
HETATM   16  C   UNL     1     -43.293  60.330 -50.950  1.00  0.00     0.102 A 
HETATM   17  O   UNL     1     -45.656  59.784 -50.697  1.00  0.00    -0.346 OA
HETATM   18  O   UNL     1     -43.237  61.132 -49.839  1.00  0.00    -0.346 OA
HETATM   19  C   UNL     1     -42.111  60.176 -51.675  1.00  0.00     0.040 A 
HETATM   20  C   UNL     1     -44.547  61.526 -49.416  1.00  0.00     0.202 C 
HETATM   21  C   UNL     1     -45.484  60.332 -49.386  1.00  0.00     0.202 C 
HETATM   22  C   UNL     1     -42.100  59.396 -52.833  1.00  0.00     0.020 A 
ENDBRANCH   9  13
BRANCH   1  23
HETATM   23  C   UNL     1     -40.983  53.825 -51.095  1.00  0.00    -0.005 A 
HETATM   24  C   UNL     1     -41.171  55.064 -50.461  1.00  0.00     0.014 A 
HETATM   25  C   UNL     1     -40.984  55.199 -49.084  1.00  0.00     0.001 A 
HETATM   26  C   UNL     1     -40.602  54.097 -48.323  1.00  0.00     0.000 A 
HETATM   27  C   UNL     1     -40.397  52.864 -48.941  1.00  0.00     0.001 A 
HETATM   28  C   UNL     1     -40.582  52.729 -50.321  1.00  0.00     0.014 A 
ENDBRANCH   1  23
TORSDOF 2
ENDMDL
MODEL 9
REMARK VINA RESULT:      -8.1      2.787      3.879
REMARK  2 active torsions:
REMARK  status: ('A' for Active; 'I' for Inactive)
REMARK    1  A    between atoms: C_4  and  C_5 
REMARK       I    between atoms: N_12  and  C_13 
REMARK    2  A    between atoms: C_13  and  C_14 
ROOT
HETATM    1  C   UNL     1     -42.718  55.891 -52.285  1.00  0.00     0.097 A 
HETATM    2  N   UNL     1     -42.944  55.484 -51.020  1.00  0.00    -0.173 NA
HETATM    3  N   UNL     1     -43.787  56.391 -50.504  1.00  0.00    -0.281 N 
HETATM    4  H   UNL     1     -44.106  56.263 -49.549  1.00  0.00     0.189 HD
HETATM    5  C   UNL     1     -44.121  57.358 -51.391  1.00  0.00     0.039 A 
HETATM    6  C   UNL     1     -43.433  57.096 -52.552  1.00  0.00     0.015 A 
HETATM    7  C   UNL     1     -43.548  57.932 -53.778  1.00  0.00     0.169 C 
HETATM    8  N   UNL     1     -44.680  58.883 -53.660  1.00  0.00    -0.343 N 
HETATM    9  C   UNL     1     -45.142  59.626 -54.751  1.00  0.00     0.254 C 
HETATM   10  O   UNL     1     -45.868  60.613 -54.641  1.00  0.00    -0.267 OA
HETATM   11  C   UNL     1     -44.917  59.482 -52.326  1.00  0.00     0.132 C 
HETATM   12  C   UNL     1     -45.099  58.448 -51.199  1.00  0.00     0.079 C 
ENDROOT
BRANCH   9  13
HETATM   13  C   UNL     1     -44.709  59.271 -56.119  1.00  0.00     0.035 A 
HETATM   14  C   UNL     1     -43.854  60.157 -56.782  1.00  0.00     0.056 A 
HETATM   15  C   UNL     1     -43.434  59.868 -58.077  1.00  0.00     0.103 A 
HETATM   16  C   UNL     1     -43.896  58.716 -58.724  1.00  0.00     0.102 A 
HETATM   17  O   UNL     1     -42.578  60.767 -58.659  1.00  0.00    -0.346 OA
HETATM   18  O   UNL     1     -43.543  58.388 -60.007  1.00  0.00    -0.346 OA
HETATM   19  C   UNL     1     -44.759  57.839 -58.065  1.00  0.00     0.040 A 
HETATM   20  C   UNL     1     -42.998  59.516 -60.701  1.00  0.00     0.202 C 
HETATM   21  C   UNL     1     -41.971  60.232 -59.839  1.00  0.00     0.202 C 
HETATM   22  C   UNL     1     -45.183  58.123 -56.765  1.00  0.00     0.020 A 
ENDBRANCH   9  13
BRANCH   1  23
HETATM   23  C   UNL     1     -41.883  55.093 -53.187  1.00  0.00    -0.005 A 
HETATM   24  C   UNL     1     -42.071  53.703 -53.258  1.00  0.00     0.014 A 
HETATM   25  C   UNL     1     -41.315  52.923 -54.136  1.00  0.00     0.001 A 
HETATM   26  C   UNL     1     -40.359  53.522 -54.950  1.00  0.00     0.000 A 
HETATM   27  C   UNL     1     -40.151  54.899 -54.880  1.00  0.00     0.001 A 
HETATM   28  C   UNL     1     -40.906  55.681 -53.999  1.00  0.00     0.014 A 
ENDBRANCH   1  23
TORSDOF 2
ENDMDL
MODEL 10
REMARK VINA RESULT:      -8.0      3.054      7.340
REMARK  2 active torsions:
REMARK  status: ('A' for Active; 'I' for Inactive)
REMARK    1  A    between atoms: C_4  and  C_5 
REMARK       I    between atoms: N_12  and  C_13 
REMARK    2  A    between atoms: C_13  and  C_14 
ROOT
HETATM    1  C   UNL     1     -42.235  59.363 -53.613  1.00  0.00     0.097 A 
HETATM    2  N   UNL     1     -42.941  60.440 -54.011  1.00  0.00    -0.173 NA
HETATM    3  N   UNL     1     -43.691  60.010 -55.036  1.00  0.00    -0.281 N 
HETATM    4  H   UNL     1     -44.322  60.668 -55.481  1.00  0.00     0.189 HD
HETATM    5  C   UNL     1     -43.504  58.696 -55.305  1.00  0.00     0.039 A 
HETATM    6  C   UNL     1     -42.549  58.237 -54.428  1.00  0.00     0.015 A 
HETATM    7  C   UNL     1     -42.078  56.825 -54.397  1.00  0.00     0.169 C 
HETATM    8  N   UNL     1     -42.956  55.962 -55.223  1.00  0.00    -0.343 N 
HETATM    9  C   UNL     1     -42.869  54.565 -55.189  1.00  0.00     0.254 C 
HETATM   10  O   UNL     1     -43.362  53.834 -56.046  1.00  0.00    -0.267 OA
HETATM   11  C   UNL     1     -43.479  56.543 -56.481  1.00  0.00     0.132 C 
HETATM   12  C   UNL     1     -44.234  57.872 -56.290  1.00  0.00     0.079 C 
ENDROOT
BRANCH   9  13
HETATM   13  C   UNL     1     -42.101  53.903 -54.113  1.00  0.00     0.035 A 
HETATM   14  C   UNL     1     -41.291  52.818 -54.465  1.00  0.00     0.056 A 
HETATM   15  C   UNL     1     -40.563  52.156 -53.480  1.00  0.00     0.103 A 
HETATM   16  C   UNL     1     -40.673  52.552 -52.142  1.00  0.00     0.102 A 
HETATM   17  O   UNL     1     -39.772  51.118 -53.896  1.00  0.00    -0.346 OA
HETATM   18  O   UNL     1     -40.005  51.926 -51.121  1.00  0.00    -0.346 OA
HETATM   19  C   UNL     1     -41.491  53.627 -51.791  1.00  0.00     0.040 A 
HETATM   20  C   UNL     1     -39.528  50.637 -51.526  1.00  0.00     0.202 C 
HETATM   21  C   UNL     1     -38.846  50.718 -52.881  1.00  0.00     0.202 C 
HETATM   22  C   UNL     1     -42.223  54.296 -52.775  1.00  0.00     0.020 A 
ENDBRANCH   9  13
BRANCH   1  23
HETATM   23  C   UNL     1     -41.343  59.444 -52.453  1.00  0.00    -0.005 A 
HETATM   24  C   UNL     1     -39.996  59.074 -52.587  1.00  0.00     0.014 A 
HETATM   25  C   UNL     1     -39.115  59.176 -51.508  1.00  0.00     0.001 A 
HETATM   26  C   UNL     1     -39.571  59.645 -50.280  1.00  0.00     0.000 A 
HETATM   27  C   UNL     1     -40.910  60.004 -50.128  1.00  0.00     0.001 A 
HETATM   28  C   UNL     1     -41.794  59.899 -51.207  1.00  0.00     0.014 A 
ENDBRANCH   1  23
TORSDOF 2
ENDMDL
