MODEL 1
REMARK VINA RESULT:      -9.4      0.000      0.000
REMARK  4 active torsions:
REMARK  status: ('A' for Active; 'I' for Inactive)
REMARK    1  A    between atoms: C_9  and  C_10 
REMARK    2  A    between atoms: C_18  and  C_19 
REMARK       I    between atoms: C_19  and  N_20 
REMARK    3  A    between atoms: N_20  and  C_21 
REMARK    4  A    between atoms: C_24  and  O_25 
ROOT
HETATM    1  C   UNL     1     -44.178  56.414 -51.219  1.00  0.00     0.070 C 
HETATM    2  C   UNL     1     -42.887  55.661 -51.013  1.00  0.00     0.037 C 
HETATM    3  N   UNL     1     -42.704  55.126 -49.740  1.00  0.00    -0.192 N 
HETATM    4  C   UNL     1     -41.507  54.695 -49.295  1.00  0.00     0.725 A 
HETATM    5  N   UNL     1     -40.463  54.590 -50.172  1.00  0.00    -0.084 N 
HETATM    6  N   UNL     1     -39.328  54.218 -49.546  1.00  0.00    -0.149 NA
HETATM    7  C   UNL     1     -39.773  54.085 -48.291  1.00  0.00     0.275 A 
HETATM    8  N   UNL     1     -41.103  54.360 -48.096  1.00  0.00    -0.054 NA
HETATM    9  C   UNL     1     -40.567  54.874 -51.608  1.00  0.00     0.202 C 
HETATM   10  C   UNL     1     -41.897  55.550 -51.936  1.00  0.00     0.062 C 
HETATM   11  H   UNL     1     -43.422  55.316 -49.045  1.00  0.00     0.184 HD
ENDROOT
BRANCH  10  12
HETATM   12  C   UNL     1     -41.923  56.184 -53.282  1.00  0.00     0.256 C 
HETATM   13  N   UNL     1     -42.909  55.704 -54.114  1.00  0.00    -0.323 N 
HETATM   14  H   UNL     1     -43.484  54.950 -53.765  1.00  0.00     0.169 HD
HETATM   15  O   UNL     1     -41.060  57.011 -53.548  1.00  0.00    -0.267 OA
BRANCH  13  16
HETATM   16  C   UNL     1     -43.220  56.165 -55.412  1.00  0.00     0.035 A 
HETATM   17  C   UNL     1     -43.929  57.338 -55.674  1.00  0.00     0.032 A 
HETATM   18  C   UNL     1     -44.210  57.716 -56.993  1.00  0.00     0.039 A 
HETATM   19  C   UNL     1     -43.788  56.935 -58.068  1.00  0.00     0.068 A 
HETATM   20  C   UNL     1     -43.090  55.757 -57.814  1.00  0.00     0.039 A 
HETATM   21  C   UNL     1     -42.805  55.378 -56.494  1.00  0.00     0.032 A 
BRANCH  19  22
HETATM   22  O   UNL     1     -44.130  57.422 -59.298  1.00  0.00    -0.356 OA
HETATM   23  C   UNL     1     -44.107  56.503 -60.382  1.00  0.00     0.210 C 
ENDBRANCH  19  22
ENDBRANCH  13  16
ENDBRANCH  10  12
BRANCH   9  24
HETATM   24  C   UNL     1     -40.364  53.594 -52.421  1.00  0.00    -0.026 A 
HETATM   25  C   UNL     1     -40.039  52.396 -51.759  1.00  0.00     0.035 A 
HETATM   26  C   UNL     1     -39.853  51.206 -52.474  1.00  0.00     0.056 A 
HETATM   27 CL   UNL     1     -39.464  49.781 -51.578  1.00  0.00    -0.083 Cl
HETATM   28  C   UNL     1     -39.983  51.202 -53.866  1.00  0.00     0.055 A 
HETATM   29 CL   UNL     1     -39.777  49.774 -54.817  1.00  0.00    -0.083 Cl
HETATM   30  C   UNL     1     -40.288  52.389 -54.536  1.00  0.00     0.026 A 
HETATM   31  C   UNL     1     -40.470  53.577 -53.822  1.00  0.00     0.011 A 
ENDBRANCH   9  24
TORSDOF 4
ENDMDL
MODEL 2
REMARK VINA RESULT:      -9.2      2.745      3.410
REMARK  4 active torsions:
REMARK  status: ('A' for Active; 'I' for Inactive)
REMARK    1  A    between atoms: C_9  and  C_10 
REMARK    2  A    between atoms: C_18  and  C_19 
REMARK       I    between atoms: C_19  and  N_20 
REMARK    3  A    between atoms: N_20  and  C_21 
REMARK    4  A    between atoms: C_24  and  O_25 
ROOT
HETATM    1  C   UNL     1     -45.181  58.351 -51.556  1.00  0.00     0.070 C 
HETATM    2  C   UNL     1     -43.723  58.168 -51.899  1.00  0.00     0.037 C 
HETATM    3  N   UNL     1     -42.822  58.625 -50.940  1.00  0.00    -0.192 N 
HETATM    4  C   UNL     1     -41.513  58.816 -51.201  1.00  0.00     0.725 A 
HETATM    5  N   UNL     1     -40.993  58.369 -52.384  1.00  0.00    -0.084 N 
HETATM    6  N   UNL     1     -39.694  58.709 -52.511  1.00  0.00    -0.149 NA
HETATM    7  C   UNL     1     -39.489  59.336 -51.346  1.00  0.00     0.275 A 
HETATM    8  N   UNL     1     -40.576  59.416 -50.512  1.00  0.00    -0.054 NA
HETATM    9  C   UNL     1     -41.765  57.636 -53.394  1.00  0.00     0.202 C 
HETATM   10  C   UNL     1     -43.258  57.676 -53.076  1.00  0.00     0.062 C 
HETATM   11  H   UNL     1     -43.207  59.079 -50.114  1.00  0.00     0.184 HD
ENDROOT
BRANCH  10  12
HETATM   12  C   UNL     1     -44.118  57.275 -54.221  1.00  0.00     0.256 C 
HETATM   13  N   UNL     1     -44.197  58.213 -55.225  1.00  0.00    -0.323 N 
HETATM   14  H   UNL     1     -43.714  59.089 -55.080  1.00  0.00     0.169 HD
HETATM   15  O   UNL     1     -44.710  56.204 -54.153  1.00  0.00    -0.267 OA
BRANCH  13  16
HETATM   16  C   UNL     1     -44.873  58.079 -56.458  1.00  0.00     0.035 A 
HETATM   17  C   UNL     1     -46.225  58.370 -56.643  1.00  0.00     0.032 A 
HETATM   18  C   UNL     1     -46.822  58.194 -57.897  1.00  0.00     0.039 A 
HETATM   19  C   UNL     1     -46.084  57.729 -58.984  1.00  0.00     0.068 A 
HETATM   20  C   UNL     1     -44.736  57.426 -58.805  1.00  0.00     0.039 A 
HETATM   21  C   UNL     1     -44.135  57.604 -57.550  1.00  0.00     0.032 A 
BRANCH  19  22
HETATM   22  O   UNL     1     -46.792  57.605 -60.146  1.00  0.00    -0.356 OA
HETATM   23  C   UNL     1     -47.133  56.287 -60.553  1.00  0.00     0.210 C 
ENDBRANCH  19  22
ENDBRANCH  13  16
ENDBRANCH  10  12
BRANCH   9  24
HETATM   24  C   UNL     1     -41.249  56.201 -53.520  1.00  0.00    -0.026 A 
HETATM   25  C   UNL     1     -41.275  55.352 -52.398  1.00  0.00     0.035 A 
HETATM   26  C   UNL     1     -40.816  54.032 -52.483  1.00  0.00     0.056 A 
HETATM   27 CL   UNL     1     -40.894  53.059 -51.058  1.00  0.00    -0.083 Cl
HETATM   28  C   UNL     1     -40.316  53.545 -53.695  1.00  0.00     0.055 A 
HETATM   29 CL   UNL     1     -39.740  51.927 -53.881  1.00  0.00    -0.083 Cl
HETATM   30  C   UNL     1     -40.268  54.383 -54.811  1.00  0.00     0.026 A 
HETATM   31  C   UNL     1     -40.723  55.702 -54.724  1.00  0.00     0.011 A 
ENDBRANCH   9  24
TORSDOF 4
ENDMDL
MODEL 3
REMARK VINA RESULT:      -9.1      2.592      3.582
REMARK  4 active torsions:
REMARK  status: ('A' for Active; 'I' for Inactive)
REMARK    1  A    between atoms: C_9  and  C_10 
REMARK    2  A    between atoms: C_18  and  C_19 
REMARK       I    between atoms: C_19  and  N_20 
REMARK    3  A    between atoms: N_20  and  C_21 
REMARK    4  A    between atoms: C_24  and  O_25 
ROOT
HETATM    1  C   UNL     1     -45.394  58.909 -52.325  1.00  0.00     0.070 C 
HETATM    2  C   UNL     1     -43.924  58.606 -52.172  1.00  0.00     0.037 C 
HETATM    3  N   UNL     1     -43.301  59.205 -51.080  1.00  0.00    -0.192 N 
HETATM    4  C   UNL     1     -41.961  59.290 -50.960  1.00  0.00     0.725 A 
HETATM    5  N   UNL     1     -41.165  58.601 -51.832  1.00  0.00    -0.084 N 
HETATM    6  N   UNL     1     -39.859  58.859 -51.617  1.00  0.00    -0.149 NA
HETATM    7  C   UNL     1     -39.942  59.692 -50.573  1.00  0.00     0.275 A 
HETATM    8  N   UNL     1     -41.212  59.976 -50.135  1.00  0.00    -0.054 NA
HETATM    9  C   UNL     1     -41.677  57.716 -52.885  1.00  0.00     0.202 C 
HETATM   10  C   UNL     1     -43.186  57.876 -53.047  1.00  0.00     0.062 C 
HETATM   11  H   UNL     1     -43.864  59.827 -50.503  1.00  0.00     0.184 HD
ENDROOT
BRANCH  10  12
HETATM   12  C   UNL     1     -43.711  57.293 -54.311  1.00  0.00     0.256 C 
HETATM   13  N   UNL     1     -43.069  57.733 -55.446  1.00  0.00    -0.323 N 
HETATM   14  H   UNL     1     -42.348  58.430 -55.330  1.00  0.00     0.169 HD
HETATM   15  O   UNL     1     -44.675  56.539 -54.244  1.00  0.00    -0.267 OA
BRANCH  13  16
HETATM   16  C   UNL     1     -43.299  57.300 -56.771  1.00  0.00     0.035 A 
HETATM   17  C   UNL     1     -42.819  56.098 -57.293  1.00  0.00     0.032 A 
HETATM   18  C   UNL     1     -43.079  55.750 -58.624  1.00  0.00     0.039 A 
HETATM   19  C   UNL     1     -43.820  56.591 -59.454  1.00  0.00     0.068 A 
HETATM   20  C   UNL     1     -44.293  57.797 -58.943  1.00  0.00     0.039 A 
HETATM   21  C   UNL     1     -44.037  58.146 -57.608  1.00  0.00     0.032 A 
BRANCH  19  22
HETATM   22  O   UNL     1     -43.998  56.128 -60.727  1.00  0.00    -0.356 OA
HETATM   23  C   UNL     1     -45.042  55.183 -60.926  1.00  0.00     0.210 C 
ENDBRANCH  19  22
ENDBRANCH  13  16
ENDBRANCH  10  12
BRANCH   9  24
HETATM   24  C   UNL     1     -41.286  56.264 -52.597  1.00  0.00    -0.026 A 
HETATM   25  C   UNL     1     -40.916  55.421 -53.660  1.00  0.00     0.035 A 
HETATM   26  C   UNL     1     -40.548  54.089 -53.428  1.00  0.00     0.056 A 
HETATM   27 CL   UNL     1     -40.100  53.129 -54.792  1.00  0.00    -0.083 Cl
HETATM   28  C   UNL     1     -40.553  53.582 -52.125  1.00  0.00     0.055 A 
HETATM   29 CL   UNL     1     -40.104  51.955 -51.758  1.00  0.00    -0.083 Cl
HETATM   30  C   UNL     1     -40.935  54.405 -51.063  1.00  0.00     0.026 A 
HETATM   31  C   UNL     1     -41.306  55.732 -51.296  1.00  0.00     0.011 A 
ENDBRANCH   9  24
TORSDOF 4
ENDMDL
MODEL 4
REMARK VINA RESULT:      -9.1      3.269      4.660
REMARK  4 active torsions:
REMARK  status: ('A' for Active; 'I' for Inactive)
REMARK    1  A    between atoms: C_9  and  C_10 
REMARK    2  A    between atoms: C_18  and  C_19 
REMARK       I    between atoms: C_19  and  N_20 
REMARK    3  A    between atoms: N_20  and  C_21 
REMARK    4  A    between atoms: C_24  and  O_25 
ROOT
HETATM    1  C   UNL     1     -40.320  53.405 -54.621  1.00  0.00     0.070 C 
HETATM    2  C   UNL     1     -40.822  53.940 -53.302  1.00  0.00     0.037 C 
HETATM    3  N   UNL     1     -40.059  53.595 -52.189  1.00  0.00    -0.192 N 
HETATM    4  C   UNL     1     -40.512  53.725 -50.926  1.00  0.00     0.725 A 
HETATM    5  N   UNL     1     -41.680  54.398 -50.699  1.00  0.00    -0.084 N 
HETATM    6  N   UNL     1     -42.021  54.367 -49.394  1.00  0.00    -0.149 NA
HETATM    7  C   UNL     1     -40.989  53.682 -48.887  1.00  0.00     0.275 A 
HETATM    8  N   UNL     1     -40.038  53.278 -49.791  1.00  0.00    -0.054 NA
HETATM    9  C   UNL     1     -42.473  55.044 -51.751  1.00  0.00     0.202 C 
HETATM   10  C   UNL     1     -41.971  54.643 -53.136  1.00  0.00     0.062 C 
HETATM   11  H   UNL     1     -39.260  52.983 -52.340  1.00  0.00     0.184 HD
ENDROOT
BRANCH  10  12
HETATM   12  C   UNL     1     -42.930  54.963 -54.228  1.00  0.00     0.256 C 
HETATM   13  N   UNL     1     -42.488  55.928 -55.104  1.00  0.00    -0.323 N 
HETATM   14  H   UNL     1     -41.595  56.358 -54.908  1.00  0.00     0.169 HD
HETATM   15  O   UNL     1     -44.019  54.400 -54.225  1.00  0.00    -0.267 OA
BRANCH  13  16
HETATM   16  C   UNL     1     -43.145  56.378 -56.270  1.00  0.00     0.035 A 
HETATM   17  C   UNL     1     -43.965  57.507 -56.318  1.00  0.00     0.032 A 
HETATM   18  C   UNL     1     -44.594  57.876 -57.513  1.00  0.00     0.039 A 
HETATM   19  C   UNL     1     -44.415  57.130 -58.677  1.00  0.00     0.068 A 
HETATM   20  C   UNL     1     -43.607  55.997 -58.635  1.00  0.00     0.039 A 
HETATM   21  C   UNL     1     -42.974  55.626 -57.439  1.00  0.00     0.032 A 
BRANCH  19  22
HETATM   22  O   UNL     1     -45.085  57.604 -59.770  1.00  0.00    -0.356 OA
HETATM   23  C   UNL     1     -46.257  56.899 -60.159  1.00  0.00     0.210 C 
ENDBRANCH  19  22
ENDBRANCH  13  16
ENDBRANCH  10  12
BRANCH   9  24
HETATM   24  C   UNL     1     -42.469  56.563 -51.563  1.00  0.00    -0.026 A 
HETATM   25  C   UNL     1     -41.251  57.233 -51.350  1.00  0.00     0.035 A 
HETATM   26  C   UNL     1     -41.214  58.623 -51.181  1.00  0.00     0.056 A 
HETATM   27 CL   UNL     1     -39.672  59.363 -50.933  1.00  0.00    -0.083 Cl
HETATM   28  C   UNL     1     -42.400  59.361 -51.215  1.00  0.00     0.055 A 
HETATM   29 CL   UNL     1     -42.435  61.078 -51.023  1.00  0.00    -0.083 Cl
HETATM   30  C   UNL     1     -43.618  58.705 -51.408  1.00  0.00     0.026 A 
HETATM   31  C   UNL     1     -43.655  57.317 -51.573  1.00  0.00     0.011 A 
ENDBRANCH   9  24
TORSDOF 4
ENDMDL
MODEL 5
REMARK VINA RESULT:      -8.9      4.300      8.293
REMARK  4 active torsions:
REMARK  status: ('A' for Active; 'I' for Inactive)
REMARK    1  A    between atoms: C_9  and  C_10 
REMARK    2  A    between atoms: C_18  and  C_19 
REMARK       I    between atoms: C_19  and  N_20 
REMARK    3  A    between atoms: N_20  and  C_21 
REMARK    4  A    between atoms: C_24  and  O_25 
ROOT
HETATM    1  C   UNL     1     -43.281  55.411 -58.617  1.00  0.00     0.070 C 
HETATM    2  C   UNL     1     -42.962  56.726 -57.950  1.00  0.00     0.037 C 
HETATM    3  N   UNL     1     -42.912  57.829 -58.799  1.00  0.00    -0.192 N 
HETATM    4  C   UNL     1     -42.357  59.004 -58.438  1.00  0.00     0.725 A 
HETATM    5  N   UNL     1     -41.999  59.202 -57.134  1.00  0.00    -0.084 N 
HETATM    6  N   UNL     1     -41.393  60.396 -56.965  1.00  0.00    -0.149 NA
HETATM    7  C   UNL     1     -41.449  60.878 -58.213  1.00  0.00     0.275 A 
HETATM    8  N   UNL     1     -42.040  60.059 -59.143  1.00  0.00    -0.054 NA
HETATM    9  C   UNL     1     -42.224  58.224 -56.063  1.00  0.00     0.202 C 
HETATM   10  C   UNL     1     -42.655  56.876 -56.637  1.00  0.00     0.062 C 
HETATM   11  H   UNL     1     -43.049  57.662 -59.794  1.00  0.00     0.184 HD
ENDROOT
BRANCH  10  12
HETATM   12  C   UNL     1     -42.552  55.758 -55.661  1.00  0.00     0.256 C 
HETATM   13  N   UNL     1     -41.262  55.370 -55.379  1.00  0.00    -0.323 N 
HETATM   14  H   UNL     1     -40.518  55.835 -55.880  1.00  0.00     0.169 HD
HETATM   15  O   UNL     1     -43.590  55.254 -55.248  1.00  0.00    -0.267 OA
BRANCH  13  16
HETATM   16  C   UNL     1     -40.857  54.394 -54.442  1.00  0.00     0.035 A 
HETATM   17  C   UNL     1     -40.348  53.142 -54.789  1.00  0.00     0.032 A 
HETATM   18  C   UNL     1     -39.984  52.225 -53.796  1.00  0.00     0.039 A 
HETATM   19  C   UNL     1     -40.119  52.540 -52.445  1.00  0.00     0.068 A 
HETATM   20  C   UNL     1     -40.636  53.783 -52.090  1.00  0.00     0.039 A 
HETATM   21  C   UNL     1     -40.999  54.705 -53.083  1.00  0.00     0.032 A 
BRANCH  19  22
HETATM   22  O   UNL     1     -39.725  51.553 -51.585  1.00  0.00    -0.356 OA
HETATM   23  C   UNL     1     -39.541  50.256 -52.137  1.00  0.00     0.210 C 
ENDBRANCH  19  22
ENDBRANCH  13  16
ENDBRANCH  10  12
BRANCH   9  24
HETATM   24  C   UNL     1     -43.240  58.764 -55.054  1.00  0.00    -0.026 A 
HETATM   25  C   UNL     1     -42.858  58.937 -53.711  1.00  0.00     0.035 A 
HETATM   26  C   UNL     1     -43.763  59.434 -52.764  1.00  0.00     0.056 A 
HETATM   27 CL   UNL     1     -43.207  59.623 -51.140  1.00  0.00    -0.083 Cl
HETATM   28  C   UNL     1     -45.067  59.759 -53.150  1.00  0.00     0.055 A 
HETATM   29 CL   UNL     1     -46.237  60.385 -52.044  1.00  0.00    -0.083 Cl
HETATM   30  C   UNL     1     -45.462  59.575 -54.477  1.00  0.00     0.026 A 
HETATM   31  C   UNL     1     -44.560  59.074 -55.420  1.00  0.00     0.011 A 
ENDBRANCH   9  24
TORSDOF 4
ENDMDL
MODEL 6
REMARK VINA RESULT:      -8.9      3.723      6.818
REMARK  4 active torsions:
REMARK  status: ('A' for Active; 'I' for Inactive)
REMARK    1  A    between atoms: C_9  and  C_10 
REMARK    2  A    between atoms: C_18  and  C_19 
REMARK       I    between atoms: C_19  and  N_20 
REMARK    3  A    between atoms: N_20  and  C_21 
REMARK    4  A    between atoms: C_24  and  O_25 
ROOT
HETATM    1  C   UNL     1     -41.005  57.759 -50.337  1.00  0.00     0.070 C 
HETATM    2  C   UNL     1     -41.971  58.282 -51.372  1.00  0.00     0.037 C 
HETATM    3  N   UNL     1     -42.281  59.636 -51.269  1.00  0.00    -0.192 N 
HETATM    4  C   UNL     1     -43.332  60.194 -51.903  1.00  0.00     0.725 A 
HETATM    5  N   UNL     1     -44.014  59.466 -52.838  1.00  0.00    -0.084 N 
HETATM    6  N   UNL     1     -45.075  60.148 -53.316  1.00  0.00    -0.149 NA
HETATM    7  C   UNL     1     -44.951  61.298 -52.642  1.00  0.00     0.275 A 
HETATM    8  N   UNL     1     -43.891  61.369 -51.772  1.00  0.00    -0.054 NA
HETATM    9  C   UNL     1     -43.648  58.105 -53.246  1.00  0.00     0.202 C 
HETATM   10  C   UNL     1     -42.590  57.522 -52.311  1.00  0.00     0.062 C 
HETATM   11  H   UNL     1     -41.875  60.151 -50.491  1.00  0.00     0.184 HD
ENDROOT
BRANCH  10  12
HETATM   12  C   UNL     1     -42.436  56.047 -52.439  1.00  0.00     0.256 C 
HETATM   13  N   UNL     1     -41.194  55.644 -52.873  1.00  0.00    -0.323 N 
HETATM   14  H   UNL     1     -40.527  56.366 -53.105  1.00  0.00     0.169 HD
HETATM   15  O   UNL     1     -43.412  55.342 -52.210  1.00  0.00    -0.267 OA
BRANCH  13  16
HETATM   16  C   UNL     1     -40.737  54.315 -53.014  1.00  0.00     0.035 A 
HETATM   17  C   UNL     1     -40.659  53.643 -54.234  1.00  0.00     0.032 A 
HETATM   18  C   UNL     1     -40.208  52.318 -54.286  1.00  0.00     0.039 A 
HETATM   19  C   UNL     1     -39.827  51.645 -53.126  1.00  0.00     0.068 A 
HETATM   20  C   UNL     1     -39.913  52.306 -51.903  1.00  0.00     0.039 A 
HETATM   21  C   UNL     1     -40.361  53.634 -51.850  1.00  0.00     0.032 A 
BRANCH  19  22
HETATM   22  O   UNL     1     -39.408  50.359 -53.322  1.00  0.00    -0.356 OA
HETATM   23  C   UNL     1     -39.661  49.789 -54.599  1.00  0.00     0.210 C 
ENDBRANCH  19  22
ENDBRANCH  13  16
ENDBRANCH  10  12
BRANCH   9  24
HETATM   24  C   UNL     1     -43.187  58.091 -54.705  1.00  0.00    -0.026 A 
HETATM   25  C   UNL     1     -43.397  56.942 -55.488  1.00  0.00     0.035 A 
HETATM   26  C   UNL     1     -42.992  56.901 -56.829  1.00  0.00     0.056 A 
HETATM   27 CL   UNL     1     -43.299  55.452 -57.718  1.00  0.00    -0.083 Cl
HETATM   28  C   UNL     1     -42.363  58.010 -57.401  1.00  0.00     0.055 A 
HETATM   29 CL   UNL     1     -41.843  58.039 -59.048  1.00  0.00    -0.083 Cl
HETATM   30  C   UNL     1     -42.133  59.151 -56.628  1.00  0.00     0.026 A 
HETATM   31  C   UNL     1     -42.534  59.190 -55.289  1.00  0.00     0.011 A 
ENDBRANCH   9  24
TORSDOF 4
ENDMDL
MODEL 7
REMARK VINA RESULT:      -8.6      2.958      3.835
REMARK  4 active torsions:
REMARK  status: ('A' for Active; 'I' for Inactive)
REMARK    1  A    between atoms: C_9  and  C_10 
REMARK    2  A    between atoms: C_18  and  C_19 
REMARK       I    between atoms: C_19  and  N_20 
REMARK    3  A    between atoms: N_20  and  C_21 
REMARK    4  A    between atoms: C_24  and  O_25 
ROOT
HETATM    1  C   UNL     1     -44.590  60.300 -53.819  1.00  0.00     0.070 C 
HETATM    2  C   UNL     1     -43.334  59.682 -53.256  1.00  0.00     0.037 C 
HETATM    3  N   UNL     1     -43.111  59.911 -51.901  1.00  0.00    -0.192 N 
HETATM    4  C   UNL     1     -41.918  59.699 -51.311  1.00  0.00     0.725 A 
HETATM    5  N   UNL     1     -40.932  59.054 -52.006  1.00  0.00    -0.084 N 
HETATM    6  N   UNL     1     -39.786  58.995 -51.296  1.00  0.00    -0.149 NA
HETATM    7  C   UNL     1     -40.168  59.600 -50.164  1.00  0.00     0.275 A 
HETATM    8  N   UNL     1     -41.468  60.038 -50.130  1.00  0.00    -0.054 NA
HETATM    9  C   UNL     1     -41.099  58.522 -53.363  1.00  0.00     0.202 C 
HETATM   10  C   UNL     1     -42.405  59.012 -53.985  1.00  0.00     0.062 C 
HETATM   11  H   UNL     1     -43.778  60.503 -51.410  1.00  0.00     0.184 HD
ENDROOT
BRANCH  10  12
HETATM   12  C   UNL     1     -42.470  58.814 -55.458  1.00  0.00     0.256 C 
HETATM   13  N   UNL     1     -43.190  57.709 -55.849  1.00  0.00    -0.323 N 
HETATM   14  H   UNL     1     -43.564  57.117 -55.120  1.00  0.00     0.169 HD
HETATM   15  O   UNL     1     -41.850  59.592 -56.174  1.00  0.00    -0.267 OA
BRANCH  13  16
HETATM   16  C   UNL     1     -43.484  57.314 -57.173  1.00  0.00     0.035 A 
HETATM   17  C   UNL     1     -44.505  57.870 -57.945  1.00  0.00     0.032 A 
HETATM   18  C   UNL     1     -44.740  57.409 -59.246  1.00  0.00     0.039 A 
HETATM   19  C   UNL     1     -43.963  56.392 -59.798  1.00  0.00     0.068 A 
HETATM   20  C   UNL     1     -42.949  55.824 -59.030  1.00  0.00     0.039 A 
HETATM   21  C   UNL     1     -42.710  56.286 -57.727  1.00  0.00     0.032 A 
BRANCH  19  22
HETATM   22  O   UNL     1     -44.301  56.042 -61.075  1.00  0.00    -0.356 OA
HETATM   23  C   UNL     1     -45.462  55.237 -61.234  1.00  0.00     0.210 C 
ENDBRANCH  19  22
ENDBRANCH  13  16
ENDBRANCH  10  12
BRANCH   9  24
HETATM   24  C   UNL     1     -41.014  56.993 -53.350  1.00  0.00    -0.026 A 
HETATM   25  C   UNL     1     -41.541  56.279 -52.259  1.00  0.00     0.035 A 
HETATM   26  C   UNL     1     -41.484  54.880 -52.220  1.00  0.00     0.056 A 
HETATM   27 CL   UNL     1     -42.164  54.084 -50.845  1.00  0.00    -0.083 Cl
HETATM   28  C   UNL     1     -40.890  54.177 -53.272  1.00  0.00     0.055 A 
HETATM   29 CL   UNL     1     -40.789  52.453 -53.301  1.00  0.00    -0.083 Cl
HETATM   30  C   UNL     1     -40.348  54.877 -54.353  1.00  0.00     0.026 A 
HETATM   31  C   UNL     1     -40.401  56.273 -54.389  1.00  0.00     0.011 A 
ENDBRANCH   9  24
TORSDOF 4
ENDMDL
MODEL 8
REMARK VINA RESULT:      -8.4      3.831      7.041
REMARK  4 active torsions:
REMARK  status: ('A' for Active; 'I' for Inactive)
REMARK    1  A    between atoms: C_9  and  C_10 
REMARK    2  A    between atoms: C_18  and  C_19 
REMARK       I    between atoms: C_19  and  N_20 
REMARK    3  A    between atoms: N_20  and  C_21 
REMARK    4  A    between atoms: C_24  and  O_25 
ROOT
HETATM    1  C   UNL     1     -41.601  59.967 -57.522  1.00  0.00     0.070 C 
HETATM    2  C   UNL     1     -42.100  58.544 -57.495  1.00  0.00     0.037 C 
HETATM    3  N   UNL     1     -42.005  57.854 -58.701  1.00  0.00    -0.192 N 
HETATM    4  C   UNL     1     -42.665  56.702 -58.937  1.00  0.00     0.725 A 
HETATM    5  N   UNL     1     -43.300  56.070 -57.905  1.00  0.00    -0.084 N 
HETATM    6  N   UNL     1     -43.969  54.979 -58.331  1.00  0.00    -0.149 NA
HETATM    7  C   UNL     1     -43.663  54.998 -59.634  1.00  0.00     0.275 A 
HETATM    8  N   UNL     1     -42.860  56.033 -60.044  1.00  0.00    -0.054 NA
HETATM    9  C   UNL     1     -43.276  56.541 -56.515  1.00  0.00     0.202 C 
HETATM   10  C   UNL     1     -42.686  57.947 -56.425  1.00  0.00     0.062 C 
HETATM   11  H   UNL     1     -41.653  58.366 -59.507  1.00  0.00     0.184 HD
ENDROOT
BRANCH  10  12
HETATM   12  C   UNL     1     -42.957  58.620 -55.127  1.00  0.00     0.256 C 
HETATM   13  N   UNL     1     -44.260  58.517 -54.696  1.00  0.00    -0.323 N 
HETATM   14  H   UNL     1     -44.914  58.045 -55.306  1.00  0.00     0.169 HD
HETATM   15  O   UNL     1     -42.042  59.238 -54.594  1.00  0.00    -0.267 OA
BRANCH  13  16
HETATM   16  C   UNL     1     -44.788  58.988 -53.474  1.00  0.00     0.035 A 
HETATM   17  C   UNL     1     -45.463  60.201 -53.331  1.00  0.00     0.032 A 
HETATM   18  C   UNL     1     -45.942  60.602 -52.079  1.00  0.00     0.039 A 
HETATM   19  C   UNL     1     -45.759  59.802 -50.951  1.00  0.00     0.068 A 
HETATM   20  C   UNL     1     -45.077  58.596 -51.084  1.00  0.00     0.039 A 
HETATM   21  C   UNL     1     -44.598  58.190 -52.338  1.00  0.00     0.032 A 
BRANCH  19  22
HETATM   22  O   UNL     1     -46.278  60.315 -49.796  1.00  0.00    -0.356 OA
HETATM   23  C   UNL     1     -45.380  61.013 -48.943  1.00  0.00     0.210 C 
ENDBRANCH  19  22
ENDBRANCH  13  16
ENDBRANCH  10  12
BRANCH   9  24
HETATM   24  C   UNL     1     -42.518  55.549 -55.629  1.00  0.00    -0.026 A 
HETATM   25  C   UNL     1     -43.065  55.166 -54.391  1.00  0.00     0.035 A 
HETATM   26  C   UNL     1     -42.399  54.256 -53.561  1.00  0.00     0.056 A 
HETATM   27 CL   UNL     1     -43.148  53.836 -52.062  1.00  0.00    -0.083 Cl
HETATM   28  C   UNL     1     -41.169  53.721 -53.958  1.00  0.00     0.055 A 
HETATM   29 CL   UNL     1     -40.292  52.587 -52.994  1.00  0.00    -0.083 Cl
HETATM   30  C   UNL     1     -40.608  54.108 -55.177  1.00  0.00     0.026 A 
HETATM   31  C   UNL     1     -41.271  55.019 -56.003  1.00  0.00     0.011 A 
ENDBRANCH   9  24
TORSDOF 4
ENDMDL
MODEL 9
REMARK VINA RESULT:      -8.3      4.955      8.815
REMARK  4 active torsions:
REMARK  status: ('A' for Active; 'I' for Inactive)
REMARK    1  A    between atoms: C_9  and  C_10 
REMARK    2  A    between atoms: C_18  and  C_19 
REMARK       I    between atoms: C_19  and  N_20 
REMARK    3  A    between atoms: N_20  and  C_21 
REMARK    4  A    between atoms: C_24  and  O_25 
ROOT
HETATM    1  C   UNL     1     -43.755  56.228 -58.683  1.00  0.00     0.070 C 
HETATM    2  C   UNL     1     -43.175  57.521 -58.166  1.00  0.00     0.037 C 
HETATM    3  N   UNL     1     -43.053  58.540 -59.108  1.00  0.00    -0.192 N 
HETATM    4  C   UNL     1     -42.295  59.636 -58.904  1.00  0.00     0.725 A 
HETATM    5  N   UNL     1     -41.773  59.868 -57.662  1.00  0.00    -0.084 N 
HETATM    6  N   UNL     1     -40.983  60.961 -57.656  1.00  0.00    -0.149 NA
HETATM    7  C   UNL     1     -41.101  61.356 -58.929  1.00  0.00     0.275 A 
HETATM    8  N   UNL     1     -41.902  60.576 -59.724  1.00  0.00    -0.054 NA
HETATM    9  C   UNL     1     -42.024  59.016 -56.494  1.00  0.00     0.202 C 
HETATM   10  C   UNL     1     -42.709  57.714 -56.905  1.00  0.00     0.062 C 
HETATM   11  H   UNL     1     -43.320  58.326 -60.066  1.00  0.00     0.184 HD
ENDROOT
BRANCH  10  12
HETATM   12  C   UNL     1     -42.669  56.665 -55.851  1.00  0.00     0.256 C 
HETATM   13  N   UNL     1     -41.441  56.063 -55.699  1.00  0.00    -0.323 N 
HETATM   14  H   UNL     1     -40.705  56.345 -56.331  1.00  0.00     0.169 HD
HETATM   15  O   UNL     1     -43.711  56.394 -55.265  1.00  0.00    -0.267 OA
BRANCH  13  16
HETATM   16  C   UNL     1     -41.087  55.095 -54.734  1.00  0.00     0.035 A 
HETATM   17  C   UNL     1     -41.177  55.296 -53.356  1.00  0.00     0.032 A 
HETATM   18  C   UNL     1     -40.789  54.288 -52.465  1.00  0.00     0.039 A 
HETATM   19  C   UNL     1     -40.309  53.065 -52.932  1.00  0.00     0.068 A 
HETATM   20  C   UNL     1     -40.206  52.860 -54.305  1.00  0.00     0.039 A 
HETATM   21  C   UNL     1     -40.596  53.868 -55.200  1.00  0.00     0.032 A 
BRANCH  19  22
HETATM   22  O   UNL     1     -39.968  52.173 -51.954  1.00  0.00    -0.356 OA
HETATM   23  C   UNL     1     -40.363  52.493 -50.627  1.00  0.00     0.210 C 
ENDBRANCH  19  22
ENDBRANCH  13  16
ENDBRANCH  10  12
BRANCH   9  24
HETATM   24  C   UNL     1     -42.835  59.777 -55.443  1.00  0.00    -0.026 A 
HETATM   25  C   UNL     1     -44.100  60.292 -55.781  1.00  0.00     0.035 A 
HETATM   26  C   UNL     1     -44.869  60.988 -54.840  1.00  0.00     0.056 A 
HETATM   27 CL   UNL     1     -46.414  61.578 -55.340  1.00  0.00    -0.083 Cl
HETATM   28  C   UNL     1     -44.376  61.185 -53.546  1.00  0.00     0.055 A 
HETATM   29 CL   UNL     1     -45.268  62.025 -52.328  1.00  0.00    -0.083 Cl
HETATM   30  C   UNL     1     -43.114  60.693 -53.204  1.00  0.00     0.026 A 
HETATM   31  C   UNL     1     -42.346  60.002 -54.145  1.00  0.00     0.011 A 
ENDBRANCH   9  24
TORSDOF 4
ENDMDL
MODEL 10
REMARK VINA RESULT:      -7.9      4.168      7.666
REMARK  4 active torsions:
REMARK  status: ('A' for Active; 'I' for Inactive)
REMARK    1  A    between atoms: C_9  and  C_10 
REMARK    2  A    between atoms: C_18  and  C_19 
REMARK       I    between atoms: C_19  and  N_20 
REMARK    3  A    between atoms: N_20  and  C_21 
REMARK    4  A    between atoms: C_24  and  O_25 
ROOT
HETATM    1  C   UNL     1     -41.572  60.584 -57.773  1.00  0.00     0.070 C 
HETATM    2  C   UNL     1     -42.157  59.193 -57.747  1.00  0.00     0.037 C 
HETATM    3  N   UNL     1     -41.832  58.388 -58.836  1.00  0.00    -0.192 N 
HETATM    4  C   UNL     1     -42.493  57.249 -59.125  1.00  0.00     0.725 A 
HETATM    5  N   UNL     1     -43.390  56.747 -58.222  1.00  0.00    -0.084 N 
HETATM    6  N   UNL     1     -44.012  55.651 -58.703  1.00  0.00    -0.149 NA
HETATM    7  C   UNL     1     -43.414  55.533 -59.894  1.00  0.00     0.275 A 
HETATM    8  N   UNL     1     -42.472  56.487 -60.188  1.00  0.00    -0.054 NA
HETATM    9  C   UNL     1     -43.655  57.347 -56.909  1.00  0.00     0.202 C 
HETATM   10  C   UNL     1     -43.011  58.728 -56.800  1.00  0.00     0.062 C 
HETATM   11  H   UNL     1     -41.271  58.805 -59.576  1.00  0.00     0.184 HD
ENDROOT
BRANCH  10  12
HETATM   12  C   UNL     1     -43.529  59.534 -55.661  1.00  0.00     0.256 C 
HETATM   13  N   UNL     1     -42.630  59.699 -54.632  1.00  0.00    -0.323 N 
HETATM   14  H   UNL     1     -41.738  59.233 -54.715  1.00  0.00     0.169 HD
HETATM   15  O   UNL     1     -44.690  59.921 -55.708  1.00  0.00    -0.267 OA
BRANCH  13  16
HETATM   16  C   UNL     1     -42.814  60.472 -53.464  1.00  0.00     0.035 A 
HETATM   17  C   UNL     1     -43.096  61.839 -53.469  1.00  0.00     0.032 A 
HETATM   18  C   UNL     1     -43.248  62.535 -52.264  1.00  0.00     0.039 A 
HETATM   19  C   UNL     1     -43.124  61.883 -51.038  1.00  0.00     0.068 A 
HETATM   20  C   UNL     1     -42.831  60.522 -51.025  1.00  0.00     0.039 A 
HETATM   21  C   UNL     1     -42.681  59.821 -52.231  1.00  0.00     0.032 A 
BRANCH  19  22
HETATM   22  O   UNL     1     -43.297  62.683 -49.944  1.00  0.00    -0.356 OA
HETATM   23  C   UNL     1     -42.857  64.031 -50.057  1.00  0.00     0.210 C 
ENDBRANCH  19  22
ENDBRANCH  13  16
ENDBRANCH  10  12
BRANCH   9  24
HETATM   24  C   UNL     1     -43.188  56.412 -55.792  1.00  0.00    -0.026 A 
HETATM   25  C   UNL     1     -41.956  55.745 -55.915  1.00  0.00     0.035 A 
HETATM   26  C   UNL     1     -41.498  54.887 -54.907  1.00  0.00     0.056 A 
HETATM   27 CL   UNL     1     -39.969  54.116 -55.139  1.00  0.00    -0.083 Cl
HETATM   28  C   UNL     1     -42.274  54.679 -53.763  1.00  0.00     0.055 A 
HETATM   29 CL   UNL     1     -41.773  53.644 -52.474  1.00  0.00    -0.083 Cl
HETATM   30  C   UNL     1     -43.507  55.323 -53.637  1.00  0.00     0.026 A 
HETATM   31  C   UNL     1     -43.965  56.176 -54.645  1.00  0.00     0.011 A 
ENDBRANCH   9  24
TORSDOF 4
ENDMDL
