MODEL 1
REMARK VINA RESULT:      -8.4      0.000      0.000
REMARK  6 active torsions:
REMARK  status: ('A' for Active; 'I' for Inactive)
REMARK       I    between atoms: N_2  and  C_3 
REMARK    1  A    between atoms: N_2  and  C_15 
REMARK       I    between atoms: C_3  and  N_4 
REMARK    2  A    between atoms: N_4  and  C_5 
REMARK    3  A    between atoms: C_15  and  C_16 
REMARK    4  A    between atoms: C_16  and  C_17 
REMARK    5  A    between atoms: C_17  and  C_18 
REMARK    6  A    between atoms: C_22  and  C_23 
ROOT
HETATM    1  C   UNL     1     -43.478  59.991 -52.277  1.00  0.00     0.127 C 
ENDROOT
BRANCH   1   2
HETATM    2  N   UNL     1     -42.062  59.805 -52.611  1.00  0.00    -0.338 N 
HETATM    3  C   UNL     1     -41.165  59.608 -51.477  1.00  0.00     0.154 C 
HETATM    4  C   UNL     1     -41.587  59.372 -53.850  1.00  0.00     0.322 C 
HETATM    5  N   UNL     1     -42.402  59.657 -54.916  1.00  0.00    -0.309 N 
HETATM    6  O   UNL     1     -40.550  58.717 -53.923  1.00  0.00    -0.247 OA
HETATM    7  H   UNL     1     -43.080  60.386 -54.773  1.00  0.00     0.170 HD
BRANCH   5   8
HETATM    8  C   UNL     1     -42.303  59.168 -56.238  1.00  0.00     0.036 A 
HETATM    9  C   UNL     1     -42.662  57.872 -56.619  1.00  0.00     0.039 A 
HETATM   10  C   UNL     1     -42.536  57.508 -57.953  1.00  0.00    -0.024 A 
HETATM   11  C   UNL     1     -42.092  58.405 -58.909  1.00  0.00    -0.026 A 
HETATM   12  C   UNL     1     -42.843  56.208 -58.601  1.00  0.00     0.207 C 
HETATM   13  C   UNL     1     -42.107  57.748 -60.239  1.00  0.00     0.207 C 
HETATM   14  C   UNL     1     -41.743  59.697 -58.563  1.00  0.00     0.012 A 
HETATM   15  O   UNL     1     -42.343  56.350 -59.953  1.00  0.00    -0.382 OA
HETATM   16  C   UNL     1     -41.841  60.070 -57.218  1.00  0.00     0.030 A 
ENDBRANCH   5   8
ENDBRANCH   1   2
BRANCH   1  17
HETATM   17  C   UNL     1     -44.189  58.701 -51.838  1.00  0.00     0.026 C 
BRANCH  17  18
HETATM   18  C   UNL     1     -44.854  57.933 -52.985  1.00  0.00     0.060 C 
BRANCH  18  19
HETATM   19  C   UNL     1     -44.153  56.672 -53.353  1.00  0.00     0.030 A 
HETATM   20  N   UNL     1     -44.616  55.778 -54.280  1.00  0.00    -0.282 N 
HETATM   21  H   UNL     1     -45.452  55.831 -54.858  1.00  0.00     0.189 HD
HETATM   22  N   UNL     1     -43.839  54.691 -54.409  1.00  0.00    -0.174 NA
HETATM   23  C   UNL     1     -42.846  54.860 -53.522  1.00  0.00     0.089 A 
HETATM   24  C   UNL     1     -42.998  56.108 -52.856  1.00  0.00     0.060 A 
BRANCH  23  25
HETATM   25  C   UNL     1     -41.809  53.839 -53.326  1.00  0.00    -0.005 A 
HETATM   26  C   UNL     1     -41.182  53.664 -52.080  1.00  0.00     0.017 A 
HETATM   27  C   UNL     1     -40.212  52.673 -51.904  1.00  0.00     0.043 A 
HETATM   28  C   UNL     1     -39.862  51.854 -52.971  1.00  0.00     0.116 A 
HETATM   29  F   UNL     1     -38.935  50.904 -52.798  1.00  0.00    -0.206 F 
HETATM   30  C   UNL     1     -40.465  52.006 -54.212  1.00  0.00     0.043 A 
HETATM   31  C   UNL     1     -41.435  52.996 -54.388  1.00  0.00     0.017 A 
ENDBRANCH  23  25
ENDBRANCH  18  19
ENDBRANCH  17  18
ENDBRANCH   1  17
TORSDOF 6
ENDMDL
MODEL 2
REMARK VINA RESULT:      -8.4      1.449      2.147
REMARK  6 active torsions:
REMARK  status: ('A' for Active; 'I' for Inactive)
REMARK       I    between atoms: N_2  and  C_3 
REMARK    1  A    between atoms: N_2  and  C_15 
REMARK       I    between atoms: C_3  and  N_4 
REMARK    2  A    between atoms: N_4  and  C_5 
REMARK    3  A    between atoms: C_15  and  C_16 
REMARK    4  A    between atoms: C_16  and  C_17 
REMARK    5  A    between atoms: C_17  and  C_18 
REMARK    6  A    between atoms: C_22  and  C_23 
ROOT
HETATM    1  C   UNL     1     -42.933  59.840 -52.242  1.00  0.00     0.127 C 
ENDROOT
BRANCH   1   2
HETATM    2  N   UNL     1     -41.619  59.349 -52.671  1.00  0.00    -0.338 N 
HETATM    3  C   UNL     1     -40.616  59.223 -51.618  1.00  0.00     0.154 C 
HETATM    4  C   UNL     1     -41.385  58.609 -53.831  1.00  0.00     0.322 C 
HETATM    5  N   UNL     1     -42.285  58.820 -54.845  1.00  0.00    -0.309 N 
HETATM    6  O   UNL     1     -40.477  57.782 -53.867  1.00  0.00    -0.247 OA
HETATM    7  H   UNL     1     -42.821  59.670 -54.793  1.00  0.00     0.170 HD
BRANCH   5   8
HETATM    8  C   UNL     1     -42.439  58.074 -56.035  1.00  0.00     0.036 A 
HETATM    9  C   UNL     1     -42.150  58.570 -57.310  1.00  0.00     0.039 A 
HETATM   10  C   UNL     1     -42.325  57.737 -58.406  1.00  0.00    -0.024 A 
HETATM   11  C   UNL     1     -42.750  56.428 -58.261  1.00  0.00    -0.026 A 
HETATM   12  C   UNL     1     -42.096  58.024 -59.845  1.00  0.00     0.207 C 
HETATM   13  C   UNL     1     -42.798  55.779 -59.594  1.00  0.00     0.207 C 
HETATM   14  C   UNL     1     -43.030  55.907 -57.012  1.00  0.00     0.012 A 
HETATM   15  O   UNL     1     -42.620  56.864 -60.534  1.00  0.00    -0.382 OA
HETATM   16  C   UNL     1     -42.882  56.742 -55.899  1.00  0.00     0.030 A 
ENDBRANCH   5   8
ENDBRANCH   1   2
BRANCH   1  17
HETATM   17  C   UNL     1     -43.549  59.039 -51.084  1.00  0.00     0.026 C 
BRANCH  17  18
HETATM   18  C   UNL     1     -44.169  57.704 -51.509  1.00  0.00     0.060 C 
BRANCH  18  19
HETATM   19  C   UNL     1     -43.228  56.552 -51.441  1.00  0.00     0.030 A 
HETATM   20  N   UNL     1     -42.438  56.268 -50.362  1.00  0.00    -0.282 N 
HETATM   21  H   UNL     1     -42.379  56.748 -49.467  1.00  0.00     0.189 HD
HETATM   22  N   UNL     1     -41.636  55.208 -50.550  1.00  0.00    -0.174 NA
HETATM   23  C   UNL     1     -41.886  54.796 -51.803  1.00  0.00     0.089 A 
HETATM   24  C   UNL     1     -42.900  55.603 -52.386  1.00  0.00     0.060 A 
BRANCH  23  25
HETATM   25  C   UNL     1     -41.152  53.674 -52.403  1.00  0.00    -0.005 A 
HETATM   26  C   UNL     1     -41.224  53.408 -53.782  1.00  0.00     0.017 A 
HETATM   27  C   UNL     1     -40.502  52.349 -54.341  1.00  0.00     0.043 A 
HETATM   28  C   UNL     1     -39.707  51.551 -53.527  1.00  0.00     0.116 A 
HETATM   29  F   UNL     1     -39.016  50.539 -54.067  1.00  0.00    -0.206 F 
HETATM   30  C   UNL     1     -39.620  51.791 -52.163  1.00  0.00     0.043 A 
HETATM   31  C   UNL     1     -40.340  52.850 -51.604  1.00  0.00     0.017 A 
ENDBRANCH  23  25
ENDBRANCH  18  19
ENDBRANCH  17  18
ENDBRANCH   1  17
TORSDOF 6
ENDMDL
MODEL 3
REMARK VINA RESULT:      -8.2      2.346      5.132
REMARK  6 active torsions:
REMARK  status: ('A' for Active; 'I' for Inactive)
REMARK       I    between atoms: N_2  and  C_3 
REMARK    1  A    between atoms: N_2  and  C_15 
REMARK       I    between atoms: C_3  and  N_4 
REMARK    2  A    between atoms: N_4  and  C_5 
REMARK    3  A    between atoms: C_15  and  C_16 
REMARK    4  A    between atoms: C_16  and  C_17 
REMARK    5  A    between atoms: C_17  and  C_18 
REMARK    6  A    between atoms: C_22  and  C_23 
ROOT
HETATM    1  C   UNL     1     -43.574  59.150 -56.556  1.00  0.00     0.127 C 
ENDROOT
BRANCH   1   2
HETATM    2  N   UNL     1     -44.234  59.694 -55.365  1.00  0.00    -0.338 N 
HETATM    3  C   UNL     1     -45.452  60.460 -55.610  1.00  0.00     0.154 C 
HETATM    4  C   UNL     1     -44.071  59.201 -54.069  1.00  0.00     0.322 C 
HETATM    5  N   UNL     1     -42.874  58.572 -53.833  1.00  0.00    -0.309 N 
HETATM    6  O   UNL     1     -44.990  59.274 -53.257  1.00  0.00    -0.247 OA
HETATM    7  H   UNL     1     -42.129  58.782 -54.476  1.00  0.00     0.170 HD
BRANCH   5   8
HETATM    8  C   UNL     1     -42.511  57.794 -52.711  1.00  0.00     0.036 A 
HETATM    9  C   UNL     1     -43.148  56.604 -52.347  1.00  0.00     0.039 A 
HETATM   10  C   UNL     1     -42.691  55.916 -51.232  1.00  0.00    -0.024 A 
HETATM   11  C   UNL     1     -41.610  56.367 -50.495  1.00  0.00    -0.026 A 
HETATM   12  C   UNL     1     -43.194  54.649 -50.644  1.00  0.00     0.207 C 
HETATM   13  C   UNL     1     -41.331  55.406 -49.400  1.00  0.00     0.207 C 
HETATM   14  C   UNL     1     -40.953  57.532 -50.840  1.00  0.00     0.012 A 
HETATM   15  O   UNL     1     -42.469  54.513 -49.399  1.00  0.00    -0.382 OA
HETATM   16  C   UNL     1     -41.416  58.250 -51.948  1.00  0.00     0.030 A 
ENDBRANCH   5   8
ENDBRANCH   1   2
BRANCH   1  17
HETATM   17  C   UNL     1     -43.811  57.647 -56.768  1.00  0.00     0.026 C 
BRANCH  17  18
HETATM   18  C   UNL     1     -42.529  56.837 -56.986  1.00  0.00     0.060 C 
BRANCH  18  19
HETATM   19  C   UNL     1     -42.410  55.646 -56.102  1.00  0.00     0.030 A 
HETATM   20  N   UNL     1     -43.476  54.944 -55.610  1.00  0.00    -0.282 N 
HETATM   21  H   UNL     1     -44.469  55.091 -55.774  1.00  0.00     0.189 HD
HETATM   22  N   UNL     1     -43.123  53.937 -54.795  1.00  0.00    -0.174 NA
HETATM   23  C   UNL     1     -41.784  53.992 -54.726  1.00  0.00     0.089 A 
HETATM   24  C   UNL     1     -41.298  55.040 -55.555  1.00  0.00     0.060 A 
BRANCH  23  25
HETATM   25  C   UNL     1     -41.020  53.071 -53.874  1.00  0.00    -0.005 A 
HETATM   26  C   UNL     1     -40.636  51.799 -54.334  1.00  0.00     0.017 A 
HETATM   27  C   UNL     1     -39.891  50.942 -53.519  1.00  0.00     0.043 A 
HETATM   28  C   UNL     1     -39.528  51.350 -52.241  1.00  0.00     0.116 A 
HETATM   29  F   UNL     1     -38.812  50.527 -51.464  1.00  0.00    -0.206 F 
HETATM   30  C   UNL     1     -39.896  52.599 -51.761  1.00  0.00     0.043 A 
HETATM   31  C   UNL     1     -40.640  53.456 -52.576  1.00  0.00     0.017 A 
ENDBRANCH  23  25
ENDBRANCH  18  19
ENDBRANCH  17  18
ENDBRANCH   1  17
TORSDOF 6
ENDMDL
MODEL 4
REMARK VINA RESULT:      -8.2      2.227      2.862
REMARK  6 active torsions:
REMARK  status: ('A' for Active; 'I' for Inactive)
REMARK       I    between atoms: N_2  and  C_3 
REMARK    1  A    between atoms: N_2  and  C_15 
REMARK       I    between atoms: C_3  and  N_4 
REMARK    2  A    between atoms: N_4  and  C_5 
REMARK    3  A    between atoms: C_15  and  C_16 
REMARK    4  A    between atoms: C_16  and  C_17 
REMARK    5  A    between atoms: C_17  and  C_18 
REMARK    6  A    between atoms: C_22  and  C_23 
ROOT
HETATM    1  C   UNL     1     -42.519  58.747 -51.878  1.00  0.00     0.127 C 
ENDROOT
BRANCH   1   2
HETATM    2  N   UNL     1     -43.489  57.782 -52.406  1.00  0.00    -0.338 N 
HETATM    3  C   UNL     1     -44.604  57.456 -51.523  1.00  0.00     0.154 C 
HETATM    4  C   UNL     1     -43.681  57.507 -53.761  1.00  0.00     0.322 C 
HETATM    5  N   UNL     1     -42.586  57.725 -54.559  1.00  0.00    -0.309 N 
HETATM    6  O   UNL     1     -44.789  57.174 -54.176  1.00  0.00    -0.247 OA
HETATM    7  H   UNL     1     -41.696  57.760 -54.091  1.00  0.00     0.170 HD
BRANCH   5   8
HETATM    8  C   UNL     1     -42.533  57.748 -55.971  1.00  0.00     0.036 A 
HETATM    9  C   UNL     1     -42.790  56.637 -56.779  1.00  0.00     0.039 A 
HETATM   10  C   UNL     1     -42.724  56.783 -58.158  1.00  0.00    -0.024 A 
HETATM   11  C   UNL     1     -42.439  58.005 -58.743  1.00  0.00    -0.026 A 
HETATM   12  C   UNL     1     -42.948  55.769 -59.218  1.00  0.00     0.207 C 
HETATM   13  C   UNL     1     -42.484  57.861 -60.218  1.00  0.00     0.207 C 
HETATM   14  C   UNL     1     -42.194  59.123 -57.969  1.00  0.00     0.012 A 
HETATM   15  O   UNL     1     -42.562  56.435 -60.444  1.00  0.00    -0.382 OA
HETATM   16  C   UNL     1     -42.233  58.985 -56.577  1.00  0.00     0.030 A 
ENDBRANCH   5   8
ENDBRANCH   1   2
BRANCH   1  17
HETATM   17  C   UNL     1     -41.171  58.123 -51.484  1.00  0.00     0.026 C 
BRANCH  17  18
HETATM   18  C   UNL     1     -41.241  57.212 -50.254  1.00  0.00     0.060 C 
BRANCH  18  19
HETATM   19  C   UNL     1     -40.907  55.789 -50.537  1.00  0.00     0.030 A 
HETATM   20  N   UNL     1     -40.379  54.926 -49.616  1.00  0.00    -0.282 N 
HETATM   21  H   UNL     1     -40.161  55.090 -48.636  1.00  0.00     0.189 HD
HETATM   22  N   UNL     1     -40.115  53.707 -50.115  1.00  0.00    -0.174 NA
HETATM   23  C   UNL     1     -40.456  53.776 -51.411  1.00  0.00     0.089 A 
HETATM   24  C   UNL     1     -40.981  55.064 -51.707  1.00  0.00     0.060 A 
BRANCH  23  25
HETATM   25  C   UNL     1     -40.260  52.637 -52.318  1.00  0.00    -0.005 A 
HETATM   26  C   UNL     1     -39.651  51.449 -51.878  1.00  0.00     0.017 A 
HETATM   27  C   UNL     1     -39.491  50.366 -52.748  1.00  0.00     0.043 A 
HETATM   28  C   UNL     1     -39.936  50.466 -54.061  1.00  0.00     0.116 A 
HETATM   29  F   UNL     1     -39.783  49.426 -54.890  1.00  0.00    -0.206 F 
HETATM   30  C   UNL     1     -40.539  51.628 -54.522  1.00  0.00     0.043 A 
HETATM   31  C   UNL     1     -40.700  52.710 -53.652  1.00  0.00     0.017 A 
ENDBRANCH  23  25
ENDBRANCH  18  19
ENDBRANCH  17  18
ENDBRANCH   1  17
TORSDOF 6
ENDMDL
MODEL 5
REMARK VINA RESULT:      -8.2      3.618      7.124
REMARK  6 active torsions:
REMARK  status: ('A' for Active; 'I' for Inactive)
REMARK       I    between atoms: N_2  and  C_3 
REMARK    1  A    between atoms: N_2  and  C_15 
REMARK       I    between atoms: C_3  and  N_4 
REMARK    2  A    between atoms: N_4  and  C_5 
REMARK    3  A    between atoms: C_15  and  C_16 
REMARK    4  A    between atoms: C_16  and  C_17 
REMARK    5  A    between atoms: C_17  and  C_18 
REMARK    6  A    between atoms: C_22  and  C_23 
ROOT
HETATM    1  C   UNL     1     -41.094  57.738 -51.816  1.00  0.00     0.127 C 
ENDROOT
BRANCH   1   2
HETATM    2  N   UNL     1     -42.192  56.791 -51.598  1.00  0.00    -0.338 N 
HETATM    3  C   UNL     1     -43.515  57.384 -51.427  1.00  0.00     0.154 C 
HETATM    4  C   UNL     1     -42.167  55.445 -51.966  1.00  0.00     0.322 C 
HETATM    5  N   UNL     1     -40.917  54.881 -52.022  1.00  0.00    -0.309 N 
HETATM    6  O   UNL     1     -43.205  54.870 -52.286  1.00  0.00    -0.247 OA
HETATM    7  H   UNL     1     -40.191  55.362 -51.519  1.00  0.00     0.170 HD
BRANCH   5   8
HETATM    8  C   UNL     1     -40.556  53.627 -52.564  1.00  0.00     0.036 A 
HETATM    9  C   UNL     1     -40.283  52.494 -51.793  1.00  0.00     0.039 A 
HETATM   10  C   UNL     1     -39.954  51.309 -52.438  1.00  0.00    -0.024 A 
HETATM   11  C   UNL     1     -39.919  51.223 -53.820  1.00  0.00    -0.026 A 
HETATM   12  C   UNL     1     -39.621  49.987 -51.853  1.00  0.00     0.207 C 
HETATM   13  C   UNL     1     -39.586  49.833 -54.213  1.00  0.00     0.207 C 
HETATM   14  C   UNL     1     -40.199  52.324 -54.607  1.00  0.00     0.012 A 
HETATM   15  O   UNL     1     -39.184  49.191 -52.981  1.00  0.00    -0.382 OA
HETATM   16  C   UNL     1     -40.508  53.531 -53.970  1.00  0.00     0.030 A 
ENDBRANCH   5   8
ENDBRANCH   1   2
BRANCH   1  17
HETATM   17  C   UNL     1     -40.664  57.865 -53.286  1.00  0.00     0.026 C 
BRANCH  17  18
HETATM   18  C   UNL     1     -41.710  58.529 -54.187  1.00  0.00     0.060 C 
BRANCH  18  19
HETATM   19  C   UNL     1     -42.254  57.631 -55.243  1.00  0.00     0.030 A 
HETATM   20  N   UNL     1     -41.898  56.318 -55.394  1.00  0.00    -0.282 N 
HETATM   21  H   UNL     1     -41.262  55.759 -54.831  1.00  0.00     0.189 HD
HETATM   22  N   UNL     1     -42.482  55.723 -56.445  1.00  0.00    -0.174 NA
HETATM   23  C   UNL     1     -43.227  56.679 -57.023  1.00  0.00     0.089 A 
HETATM   24  C   UNL     1     -43.126  57.887 -56.279  1.00  0.00     0.060 A 
BRANCH  23  25
HETATM   25  C   UNL     1     -43.986  56.423 -58.254  1.00  0.00    -0.005 A 
HETATM   26  C   UNL     1     -43.712  55.306 -59.062  1.00  0.00     0.017 A 
HETATM   27  C   UNL     1     -44.458  55.065 -60.220  1.00  0.00     0.043 A 
HETATM   28  C   UNL     1     -45.479  55.938 -60.576  1.00  0.00     0.116 A 
HETATM   29  F   UNL     1     -46.193  55.702 -61.684  1.00  0.00    -0.206 F 
HETATM   30  C   UNL     1     -45.770  57.049 -59.796  1.00  0.00     0.043 A 
HETATM   31  C   UNL     1     -45.024  57.290 -58.639  1.00  0.00     0.017 A 
ENDBRANCH  23  25
ENDBRANCH  18  19
ENDBRANCH  17  18
ENDBRANCH   1  17
TORSDOF 6
ENDMDL
MODEL 6
REMARK VINA RESULT:      -7.9      2.426      5.454
REMARK  6 active torsions:
REMARK  status: ('A' for Active; 'I' for Inactive)
REMARK       I    between atoms: N_2  and  C_3 
REMARK    1  A    between atoms: N_2  and  C_15 
REMARK       I    between atoms: C_3  and  N_4 
REMARK    2  A    between atoms: N_4  and  C_5 
REMARK    3  A    between atoms: C_15  and  C_16 
REMARK    4  A    between atoms: C_16  and  C_17 
REMARK    5  A    between atoms: C_17  and  C_18 
REMARK    6  A    between atoms: C_22  and  C_23 
ROOT
HETATM    1  C   UNL     1     -43.454  57.446 -57.740  1.00  0.00     0.127 C 
ENDROOT
BRANCH   1   2
HETATM    2  N   UNL     1     -42.470  58.532 -57.704  1.00  0.00    -0.338 N 
HETATM    3  C   UNL     1     -42.330  59.301 -58.936  1.00  0.00     0.154 C 
HETATM    4  C   UNL     1     -42.010  59.152 -56.540  1.00  0.00     0.322 C 
HETATM    5  N   UNL     1     -42.057  58.373 -55.411  1.00  0.00    -0.309 N 
HETATM    6  O   UNL     1     -41.673  60.333 -56.558  1.00  0.00    -0.247 OA
HETATM    7  H   UNL     1     -42.117  57.380 -55.559  1.00  0.00     0.170 HD
BRANCH   5   8
HETATM    8  C   UNL     1     -41.871  58.780 -54.070  1.00  0.00     0.036 A 
HETATM    9  C   UNL     1     -42.879  59.334 -53.276  1.00  0.00     0.039 A 
HETATM   10  C   UNL     1     -42.582  59.681 -51.965  1.00  0.00    -0.024 A 
HETATM   11  C   UNL     1     -41.325  59.466 -51.426  1.00  0.00    -0.026 A 
HETATM   12  C   UNL     1     -43.465  60.281 -50.933  1.00  0.00     0.207 C 
HETATM   13  C   UNL     1     -41.324  59.891 -50.005  1.00  0.00     0.207 C 
HETATM   14  C   UNL     1     -40.314  58.908 -52.185  1.00  0.00     0.012 A 
HETATM   15  O   UNL     1     -42.577  60.594 -49.834  1.00  0.00    -0.382 OA
HETATM   16  C   UNL     1     -40.591  58.576 -53.515  1.00  0.00     0.030 A 
ENDBRANCH   5   8
ENDBRANCH   1   2
BRANCH   1  17
HETATM   17  C   UNL     1     -42.841  56.058 -57.986  1.00  0.00     0.026 C 
BRANCH  17  18
HETATM   18  C   UNL     1     -43.235  55.007 -56.944  1.00  0.00     0.060 C 
BRANCH  18  19
HETATM   19  C   UNL     1     -42.382  55.018 -55.723  1.00  0.00     0.030 A 
HETATM   20  N   UNL     1     -41.015  54.967 -55.740  1.00  0.00    -0.282 N 
HETATM   21  H   UNL     1     -40.386  54.941 -56.539  1.00  0.00     0.189 HD
HETATM   22  N   UNL     1     -40.465  54.940 -54.516  1.00  0.00    -0.174 NA
HETATM   23  C   UNL     1     -41.502  54.947 -53.664  1.00  0.00     0.089 A 
HETATM   24  C   UNL     1     -42.724  55.021 -54.388  1.00  0.00     0.060 A 
BRANCH  23  25
HETATM   25  C   UNL     1     -41.303  54.869 -52.211  1.00  0.00    -0.005 A 
HETATM   26  C   UNL     1     -40.476  53.887 -51.639  1.00  0.00     0.017 A 
HETATM   27  C   UNL     1     -40.280  53.839 -50.255  1.00  0.00     0.043 A 
HETATM   28  C   UNL     1     -40.909  54.770 -49.438  1.00  0.00     0.116 A 
HETATM   29  F   UNL     1     -40.716  54.723 -48.113  1.00  0.00    -0.206 F 
HETATM   30  C   UNL     1     -41.732  55.750 -49.976  1.00  0.00     0.043 A 
HETATM   31  C   UNL     1     -41.928  55.798 -51.359  1.00  0.00     0.017 A 
ENDBRANCH  23  25
ENDBRANCH  18  19
ENDBRANCH  17  18
ENDBRANCH   1  17
TORSDOF 6
ENDMDL
MODEL 7
REMARK VINA RESULT:      -7.6      2.183      2.653
REMARK  6 active torsions:
REMARK  status: ('A' for Active; 'I' for Inactive)
REMARK       I    between atoms: N_2  and  C_3 
REMARK    1  A    between atoms: N_2  and  C_15 
REMARK       I    between atoms: C_3  and  N_4 
REMARK    2  A    between atoms: N_4  and  C_5 
REMARK    3  A    between atoms: C_15  and  C_16 
REMARK    4  A    between atoms: C_16  and  C_17 
REMARK    5  A    between atoms: C_17  and  C_18 
REMARK    6  A    between atoms: C_22  and  C_23 
ROOT
HETATM    1  C   UNL     1     -45.143  59.014 -52.238  1.00  0.00     0.127 C 
ENDROOT
BRANCH   1   2
HETATM    2  N   UNL     1     -45.167  59.956 -53.361  1.00  0.00    -0.338 N 
HETATM    3  C   UNL     1     -45.149  61.371 -53.000  1.00  0.00     0.154 C 
HETATM    4  C   UNL     1     -44.773  59.651 -54.665  1.00  0.00     0.322 C 
HETATM    5  N   UNL     1     -44.895  58.330 -55.014  1.00  0.00    -0.309 N 
HETATM    6  O   UNL     1     -44.284  60.519 -55.384  1.00  0.00    -0.247 OA
HETATM    7  H   UNL     1     -45.515  57.777 -54.447  1.00  0.00     0.170 HD
BRANCH   5   8
HETATM    8  C   UNL     1     -44.383  57.687 -56.164  1.00  0.00     0.036 A 
HETATM    9  C   UNL     1     -44.774  57.997 -57.469  1.00  0.00     0.039 A 
HETATM   10  C   UNL     1     -44.189  57.309 -58.523  1.00  0.00    -0.024 A 
HETATM   11  C   UNL     1     -43.215  56.348 -58.309  1.00  0.00    -0.026 A 
HETATM   12  C   UNL     1     -44.432  57.448 -59.981  1.00  0.00     0.207 C 
HETATM   13  C   UNL     1     -42.751  55.825 -59.617  1.00  0.00     0.207 C 
HETATM   14  C   UNL     1     -42.800  56.031 -57.030  1.00  0.00     0.012 A 
HETATM   15  O   UNL     1     -43.691  56.357 -60.578  1.00  0.00    -0.382 OA
HETATM   16  C   UNL     1     -43.398  56.700 -55.956  1.00  0.00     0.030 A 
ENDBRANCH   5   8
ENDBRANCH   1   2
BRANCH   1  17
HETATM   17  C   UNL     1     -43.989  59.250 -51.251  1.00  0.00     0.026 C 
BRANCH  17  18
HETATM   18  C   UNL     1     -42.607  58.902 -51.812  1.00  0.00     0.060 C 
BRANCH  18  19
HETATM   19  C   UNL     1     -42.264  57.456 -51.717  1.00  0.00     0.030 A 
HETATM   20  N   UNL     1     -42.427  56.700 -50.589  1.00  0.00    -0.282 N 
HETATM   21  H   UNL     1     -42.811  56.971 -49.686  1.00  0.00     0.189 HD
HETATM   22  N   UNL     1     -42.003  55.434 -50.727  1.00  0.00    -0.174 NA
HETATM   23  C   UNL     1     -41.521  55.359 -51.978  1.00  0.00     0.089 A 
HETATM   24  C   UNL     1     -41.690  56.606 -52.639  1.00  0.00     0.060 A 
BRANCH  23  25
HETATM   25  C   UNL     1     -40.908  54.127 -52.492  1.00  0.00    -0.005 A 
HETATM   26  C   UNL     1     -40.243  53.230 -51.638  1.00  0.00     0.017 A 
HETATM   27  C   UNL     1     -39.683  52.051 -52.140  1.00  0.00     0.043 A 
HETATM   28  C   UNL     1     -39.784  51.763 -53.495  1.00  0.00     0.116 A 
HETATM   29  F   UNL     1     -39.249  50.631 -53.971  1.00  0.00    -0.206 F 
HETATM   30  C   UNL     1     -40.434  52.632 -54.361  1.00  0.00     0.043 A 
HETATM   31  C   UNL     1     -40.994  53.810 -53.859  1.00  0.00     0.017 A 
ENDBRANCH  23  25
ENDBRANCH  18  19
ENDBRANCH  17  18
ENDBRANCH   1  17
TORSDOF 6
ENDMDL
MODEL 8
REMARK VINA RESULT:      -7.6      2.340      3.255
REMARK  6 active torsions:
REMARK  status: ('A' for Active; 'I' for Inactive)
REMARK       I    between atoms: N_2  and  C_3 
REMARK    1  A    between atoms: N_2  and  C_15 
REMARK       I    between atoms: C_3  and  N_4 
REMARK    2  A    between atoms: N_4  and  C_5 
REMARK    3  A    between atoms: C_15  and  C_16 
REMARK    4  A    between atoms: C_16  and  C_17 
REMARK    5  A    between atoms: C_17  and  C_18 
REMARK    6  A    between atoms: C_22  and  C_23 
ROOT
HETATM    1  C   UNL     1     -41.755  59.348 -54.514  1.00  0.00     0.127 C 
ENDROOT
BRANCH   1   2
HETATM    2  N   UNL     1     -43.211  59.482 -54.636  1.00  0.00    -0.338 N 
HETATM    3  C   UNL     1     -43.805  60.608 -53.922  1.00  0.00     0.154 C 
HETATM    4  C   UNL     1     -43.977  58.939 -55.668  1.00  0.00     0.322 C 
HETATM    5  N   UNL     1     -43.446  57.819 -56.258  1.00  0.00    -0.309 N 
HETATM    6  O   UNL     1     -45.003  59.501 -56.042  1.00  0.00    -0.247 OA
HETATM    7  H   UNL     1     -42.750  57.325 -55.726  1.00  0.00     0.170 HD
BRANCH   5   8
HETATM    8  C   UNL     1     -43.868  57.184 -57.448  1.00  0.00     0.036 A 
HETATM    9  C   UNL     1     -45.044  57.507 -58.130  1.00  0.00     0.039 A 
HETATM   10  C   UNL     1     -45.347  56.825 -59.301  1.00  0.00    -0.024 A 
HETATM   11  C   UNL     1     -44.500  55.858 -59.815  1.00  0.00    -0.026 A 
HETATM   12  C   UNL     1     -46.522  56.978 -60.195  1.00  0.00     0.207 C 
HETATM   13  C   UNL     1     -45.064  55.343 -61.086  1.00  0.00     0.207 C 
HETATM   14  C   UNL     1     -43.325  55.527 -59.168  1.00  0.00     0.012 A 
HETATM   15  O   UNL     1     -46.402  55.888 -61.141  1.00  0.00    -0.382 OA
HETATM   16  C   UNL     1     -43.018  56.189 -57.974  1.00  0.00     0.030 A 
ENDBRANCH   5   8
ENDBRANCH   1   2
BRANCH   1  17
HETATM   17  C   UNL     1     -41.296  58.729 -53.185  1.00  0.00     0.026 C 
BRANCH  17  18
HETATM   18  C   UNL     1     -42.060  57.461 -52.790  1.00  0.00     0.060 C 
BRANCH  18  19
HETATM   19  C   UNL     1     -41.383  56.198 -53.193  1.00  0.00     0.030 A 
HETATM   20  N   UNL     1     -40.713  56.027 -54.373  1.00  0.00    -0.282 N 
HETATM   21  H   UNL     1     -40.551  56.699 -55.120  1.00  0.00     0.189 HD
HETATM   22  N   UNL     1     -40.226  54.788 -54.538  1.00  0.00    -0.174 NA
HETATM   23  C   UNL     1     -40.607  54.111 -53.443  1.00  0.00     0.089 A 
HETATM   24  C   UNL     1     -41.317  54.973 -52.563  1.00  0.00     0.060 A 
BRANCH  23  25
HETATM   25  C   UNL     1     -40.304  52.683 -53.278  1.00  0.00    -0.005 A 
HETATM   26  C   UNL     1     -40.509  51.767 -54.325  1.00  0.00     0.017 A 
HETATM   27  C   UNL     1     -40.195  50.415 -54.159  1.00  0.00     0.043 A 
HETATM   28  C   UNL     1     -39.678  49.971 -52.948  1.00  0.00     0.116 A 
HETATM   29  F   UNL     1     -39.376  48.676 -52.794  1.00  0.00    -0.206 F 
HETATM   30  C   UNL     1     -39.468  50.854 -51.898  1.00  0.00     0.043 A 
HETATM   31  C   UNL     1     -39.780  52.206 -52.064  1.00  0.00     0.017 A 
ENDBRANCH  23  25
ENDBRANCH  18  19
ENDBRANCH  17  18
ENDBRANCH   1  17
TORSDOF 6
ENDMDL
MODEL 9
REMARK VINA RESULT:      -7.6      4.975      8.789
REMARK  6 active torsions:
REMARK  status: ('A' for Active; 'I' for Inactive)
REMARK       I    between atoms: N_2  and  C_3 
REMARK    1  A    between atoms: N_2  and  C_15 
REMARK       I    between atoms: C_3  and  N_4 
REMARK    2  A    between atoms: N_4  and  C_5 
REMARK    3  A    between atoms: C_15  and  C_16 
REMARK    4  A    between atoms: C_16  and  C_17 
REMARK    5  A    between atoms: C_17  and  C_18 
REMARK    6  A    between atoms: C_22  and  C_23 
ROOT
HETATM    1  C   UNL     1     -41.474  57.411 -51.505  1.00  0.00     0.127 C 
ENDROOT
BRANCH   1   2
HETATM    2  N   UNL     1     -42.468  56.362 -51.255  1.00  0.00    -0.338 N 
HETATM    3  C   UNL     1     -43.820  56.827 -50.963  1.00  0.00     0.154 C 
HETATM    4  C   UNL     1     -42.355  55.040 -51.688  1.00  0.00     0.322 C 
HETATM    5  N   UNL     1     -41.069  54.593 -51.858  1.00  0.00    -0.309 N 
HETATM    6  O   UNL     1     -43.361  54.388 -51.961  1.00  0.00    -0.247 OA
HETATM    7  H   UNL     1     -40.352  55.115 -51.385  1.00  0.00     0.170 HD
BRANCH   5   8
HETATM    8  C   UNL     1     -40.643  53.399 -52.483  1.00  0.00     0.036 A 
HETATM    9  C   UNL     1     -40.292  52.237 -51.789  1.00  0.00     0.039 A 
HETATM   10  C   UNL     1     -39.904  51.118 -52.512  1.00  0.00    -0.024 A 
HETATM   11  C   UNL     1     -39.884  51.121 -53.896  1.00  0.00    -0.026 A 
HETATM   12  C   UNL     1     -39.485  49.783 -52.016  1.00  0.00     0.207 C 
HETATM   13  C   UNL     1     -39.475  49.781 -54.381  1.00  0.00     0.207 C 
HETATM   14  C   UNL     1     -40.239  52.251 -54.608  1.00  0.00     0.012 A 
HETATM   15  O   UNL     1     -39.019  49.087 -53.197  1.00  0.00    -0.382 OA
HETATM   16  C   UNL     1     -40.609  53.395 -53.892  1.00  0.00     0.030 A 
ENDBRANCH   5   8
ENDBRANCH   1   2
BRANCH   1  17
HETATM   17  C   UNL     1     -41.916  58.452 -52.545  1.00  0.00     0.026 C 
BRANCH  17  18
HETATM   18  C   UNL     1     -41.765  59.904 -52.080  1.00  0.00     0.060 C 
BRANCH  18  19
HETATM   19  C   UNL     1     -42.847  60.359 -51.163  1.00  0.00     0.030 A 
HETATM   20  N   UNL     1     -44.172  60.405 -51.500  1.00  0.00    -0.282 N 
HETATM   21  H   UNL     1     -44.620  60.129 -52.371  1.00  0.00     0.189 HD
HETATM   22  N   UNL     1     -44.955  60.895 -50.527  1.00  0.00    -0.174 NA
HETATM   23  C   UNL     1     -44.118  61.207 -49.525  1.00  0.00     0.089 A 
HETATM   24  C   UNL     1     -42.786  60.861 -49.880  1.00  0.00     0.060 A 
BRANCH  23  25
HETATM   25  C   UNL     1     -44.602  61.831 -48.286  1.00  0.00    -0.005 A 
HETATM   26  C   UNL     1     -44.754  63.224 -48.180  1.00  0.00     0.017 A 
HETATM   27  C   UNL     1     -45.236  63.800 -47.001  1.00  0.00     0.043 A 
HETATM   28  C   UNL     1     -45.567  62.988 -45.923  1.00  0.00     0.116 A 
HETATM   29  F   UNL     1     -46.031  63.544 -44.797  1.00  0.00    -0.206 F 
HETATM   30  C   UNL     1     -45.426  61.610 -46.000  1.00  0.00     0.043 A 
HETATM   31  C   UNL     1     -44.944  61.034 -47.179  1.00  0.00     0.017 A 
ENDBRANCH  23  25
ENDBRANCH  18  19
ENDBRANCH  17  18
ENDBRANCH   1  17
TORSDOF 6
ENDMDL
MODEL 10
REMARK VINA RESULT:      -7.5     16.605     19.167
REMARK  6 active torsions:
REMARK  status: ('A' for Active; 'I' for Inactive)
REMARK       I    between atoms: N_2  and  C_3 
REMARK    1  A    between atoms: N_2  and  C_15 
REMARK       I    between atoms: C_3  and  N_4 
REMARK    2  A    between atoms: N_4  and  C_5 
REMARK    3  A    between atoms: C_15  and  C_16 
REMARK    4  A    between atoms: C_16  and  C_17 
REMARK    5  A    between atoms: C_17  and  C_18 
REMARK    6  A    between atoms: C_22  and  C_23 
ROOT
HETATM    1  C   UNL     1     -33.890  41.582 -51.385  1.00  0.00     0.127 C 
ENDROOT
BRANCH   1   2
HETATM    2  N   UNL     1     -32.825  40.588 -51.221  1.00  0.00    -0.338 N 
HETATM    3  C   UNL     1     -32.618  40.100 -49.861  1.00  0.00     0.154 C 
HETATM    4  C   UNL     1     -32.326  39.779 -52.243  1.00  0.00     0.322 C 
HETATM    5  N   UNL     1     -32.440  40.304 -53.506  1.00  0.00    -0.309 N 
HETATM    6  O   UNL     1     -31.899  38.655 -51.993  1.00  0.00    -0.247 OA
HETATM    7  H   UNL     1     -32.576  41.299 -53.562  1.00  0.00     0.170 HD
BRANCH   5   8
HETATM    8  C   UNL     1     -32.232  39.647 -54.740  1.00  0.00     0.036 A 
HETATM    9  C   UNL     1     -30.974  39.272 -55.221  1.00  0.00     0.039 A 
HETATM   10  C   UNL     1     -30.895  38.615 -56.441  1.00  0.00    -0.024 A 
HETATM   11  C   UNL     1     -32.029  38.302 -57.171  1.00  0.00    -0.026 A 
HETATM   12  C   UNL     1     -29.694  38.122 -57.162  1.00  0.00     0.207 C 
HETATM   13  C   UNL     1     -31.633  37.567 -58.397  1.00  0.00     0.207 C 
HETATM   14  C   UNL     1     -33.285  38.649 -56.712  1.00  0.00     0.012 A 
HETATM   15  O   UNL     1     -30.194  37.698 -58.453  1.00  0.00    -0.382 OA
HETATM   16  C   UNL     1     -33.380  39.333 -55.496  1.00  0.00     0.030 A 
ENDBRANCH   5   8
ENDBRANCH   1   2
BRANCH   1  17
HETATM   17  C   UNL     1     -35.249  40.981 -51.777  1.00  0.00     0.026 C 
BRANCH  17  18
HETATM   18  C   UNL     1     -36.161  41.945 -52.542  1.00  0.00     0.060 C 
BRANCH  18  19
HETATM   19  C   UNL     1     -35.975  41.907 -54.019  1.00  0.00     0.030 A 
HETATM   20  N   UNL     1     -35.038  42.639 -54.695  1.00  0.00    -0.282 N 
HETATM   21  H   UNL     1     -34.334  43.274 -54.326  1.00  0.00     0.189 HD
HETATM   22  N   UNL     1     -35.090  42.477 -56.027  1.00  0.00    -0.174 NA
HETATM   23  C   UNL     1     -36.112  41.632 -56.239  1.00  0.00     0.089 A 
HETATM   24  C   UNL     1     -36.677  41.233 -54.996  1.00  0.00     0.060 A 
BRANCH  23  25
HETATM   25  C   UNL     1     -36.523  41.248 -57.596  1.00  0.00    -0.005 A 
HETATM   26  C   UNL     1     -36.983  42.205 -58.517  1.00  0.00     0.017 A 
HETATM   27  C   UNL     1     -37.350  41.826 -59.812  1.00  0.00     0.043 A 
HETATM   28  C   UNL     1     -37.261  40.493 -60.192  1.00  0.00     0.116 A 
HETATM   29  F   UNL     1     -37.611  40.135 -61.434  1.00  0.00    -0.206 F 
HETATM   30  C   UNL     1     -36.812  39.528 -59.301  1.00  0.00     0.043 A 
HETATM   31  C   UNL     1     -36.444  39.906 -58.007  1.00  0.00     0.017 A 
ENDBRANCH  23  25
ENDBRANCH  18  19
ENDBRANCH  17  18
ENDBRANCH   1  17
TORSDOF 6
ENDMDL
