MODEL 1
REMARK VINA RESULT:      -9.0      0.000      0.000
REMARK  7 active torsions:
REMARK  status: ('A' for Active; 'I' for Inactive)
REMARK    1  A    between atoms: N_7  and  C_8 
REMARK    2  A    between atoms: C_8  and  C_9 
REMARK       I    between atoms: C_9  and  N_10 
REMARK    3  A    between atoms: N_10  and  C_11 
REMARK    4  A    between atoms: C_11  and  C_12 
REMARK    5  A    between atoms: C_12  and  C_13 
REMARK    6  A    between atoms: C_12  and  C_23 
REMARK    7  A    between atoms: C_26  and  O_27 
ROOT
HETATM    1  C   UNL     1     -41.748  56.548 -51.202  1.00  0.00     0.136 C 
ENDROOT
BRANCH   1   2
HETATM    2  N   UNL     1     -42.847  57.483 -50.974  1.00  0.00    -0.359 N 
HETATM    3  C   UNL     1     -42.550  58.835 -51.080  1.00  0.00     0.236 C 
HETATM    4  O   UNL     1     -41.390  59.246 -51.118  1.00  0.00    -0.272 OA
HETATM    5  H   UNL     1     -43.788  57.190 -51.235  1.00  0.00     0.162 HD
BRANCH   3   6
HETATM    6  C   UNL     1     -43.717  59.763 -51.384  1.00  0.00     0.239 C 
BRANCH   6   7
HETATM    7  N   UNL     1     -44.137  60.609 -50.294  1.00  0.00    -0.259 N 
HETATM    8  C   UNL     1     -43.573  61.816 -50.013  1.00  0.00     0.326 C 
HETATM    9  N   UNL     1     -44.322  62.429 -49.034  1.00  0.00    -0.324 N 
HETATM   10  O   UNL     1     -42.599  62.326 -50.536  1.00  0.00    -0.247 OA
HETATM   11  C   UNL     1     -45.574  61.739 -48.799  1.00  0.00     0.119 C 
HETATM   12  H   UNL     1     -44.125  63.392 -48.789  1.00  0.00     0.165 HD
HETATM   13  C   UNL     1     -45.903  61.556 -47.307  1.00  0.00     0.019 C 
HETATM   14  C   UNL     1     -45.269  60.425 -49.553  1.00  0.00     0.257 C 
HETATM   15  C   UNL     1     -46.723  62.438 -49.555  1.00  0.00     0.041 C 
HETATM   16  C   UNL     1     -44.751  60.948 -46.501  1.00  0.00     0.013 C 
HETATM   17  C   UNL     1     -46.331  62.892 -46.668  1.00  0.00     0.007 C 
HETATM   18  C   UNL     1     -47.475  63.557 -47.429  1.00  0.00     0.001 C 
HETATM   19  C   UNL     1     -47.136  63.752 -48.901  1.00  0.00     0.003 C 
HETATM   20  O   UNL     1     -45.970  59.421 -49.573  1.00  0.00    -0.270 OA
ENDBRANCH   6   7
ENDBRANCH   3   6
ENDBRANCH   1   2
BRANCH   1  21
HETATM   21  C   UNL     1     -41.435  56.185 -52.669  1.00  0.00     0.071 C 
BRANCH  21  22
HETATM   22  C   UNL     1     -42.670  56.322 -53.546  1.00  0.00    -0.020 A 
HETATM   23  C   UNL     1     -42.955  57.375 -54.484  1.00  0.00    -0.001 A 
HETATM   24  C   UNL     1     -44.199  57.105 -55.059  1.00  0.00     0.042 A 
HETATM   25  C   UNL     1     -42.269  58.535 -54.903  1.00  0.00     0.014 A 
HETATM   26  C   UNL     1     -44.788  57.928 -56.025  1.00  0.00     0.030 A 
HETATM   27  N   UNL     1     -44.660  55.940 -54.499  1.00  0.00    -0.365 N 
HETATM   28  C   UNL     1     -44.085  59.068 -56.423  1.00  0.00     0.002 A 
HETATM   29  C   UNL     1     -42.843  59.369 -55.871  1.00  0.00     0.001 A 
HETATM   30  H   UNL     1     -45.542  55.503 -54.730  1.00  0.00     0.165 HD
HETATM   31  C   UNL     1     -43.756  55.461 -53.593  1.00  0.00     0.097 A 
ENDBRANCH  21  22
BRANCH  21  32
HETATM   32  C   UNL     1     -40.941  54.769 -52.943  1.00  0.00    -0.048 A 
HETATM   33  C   UNL     1     -40.730  53.899 -51.859  1.00  0.00     0.011 A 
HETATM   34  C   UNL     1     -40.237  52.607 -52.061  1.00  0.00     0.037 A 
HETATM   35  C   UNL     1     -39.942  52.151 -53.345  1.00  0.00     0.068 A 
HETATM   36  C   UNL     1     -40.150  53.002 -54.430  1.00  0.00     0.037 A 
HETATM   37  C   UNL     1     -40.641  54.299 -54.230  1.00  0.00     0.011 A 
BRANCH  35  38
HETATM   38  O   UNL     1     -39.456  50.874 -53.401  1.00  0.00    -0.356 OA
HETATM   39  C   UNL     1     -39.982  50.031 -54.417  1.00  0.00     0.210 C 
ENDBRANCH  35  38
ENDBRANCH  21  32
ENDBRANCH   1  21
TORSDOF 7
ENDMDL
MODEL 2
REMARK VINA RESULT:      -8.9      4.603      9.049
REMARK  7 active torsions:
REMARK  status: ('A' for Active; 'I' for Inactive)
REMARK    1  A    between atoms: N_7  and  C_8 
REMARK    2  A    between atoms: C_8  and  C_9 
REMARK       I    between atoms: C_9  and  N_10 
REMARK    3  A    between atoms: N_10  and  C_11 
REMARK    4  A    between atoms: C_11  and  C_12 
REMARK    5  A    between atoms: C_12  and  C_13 
REMARK    6  A    between atoms: C_12  and  C_23 
REMARK    7  A    between atoms: C_26  and  O_27 
ROOT
HETATM    1  C   UNL     1     -42.568  60.073 -57.310  1.00  0.00     0.136 C 
ENDROOT
BRANCH   1   2
HETATM    2  N   UNL     1     -42.947  59.065 -56.323  1.00  0.00    -0.359 N 
HETATM    3  C   UNL     1     -42.355  59.161 -55.071  1.00  0.00     0.236 C 
HETATM    4  O   UNL     1     -41.385  59.890 -54.864  1.00  0.00    -0.272 OA
HETATM    5  H   UNL     1     -43.894  58.688 -56.363  1.00  0.00     0.162 HD
BRANCH   3   6
HETATM    6  C   UNL     1     -43.101  58.509 -53.917  1.00  0.00     0.239 C 
BRANCH   6   7
HETATM    7  N   UNL     1     -42.783  57.123 -53.676  1.00  0.00    -0.259 N 
HETATM    8  C   UNL     1     -43.543  56.084 -54.120  1.00  0.00     0.326 C 
HETATM    9  N   UNL     1     -42.866  54.911 -53.873  1.00  0.00    -0.324 N 
HETATM   10  O   UNL     1     -44.622  56.134 -54.682  1.00  0.00    -0.247 OA
HETATM   11  C   UNL     1     -41.497  55.153 -53.465  1.00  0.00     0.119 C 
HETATM   12  H   UNL     1     -43.223  54.043 -54.253  1.00  0.00     0.165 HD
HETATM   13  C   UNL     1     -41.055  54.302 -52.261  1.00  0.00     0.019 C 
HETATM   14  C   UNL     1     -41.596  56.668 -53.176  1.00  0.00     0.257 C 
HETATM   15  C   UNL     1     -40.541  54.985 -54.664  1.00  0.00     0.041 C 
HETATM   16  C   UNL     1     -42.028  54.371 -51.080  1.00  0.00     0.013 C 
HETATM   17  C   UNL     1     -40.846  52.831 -52.672  1.00  0.00     0.007 C 
HETATM   18  C   UNL     1     -39.889  52.692 -53.854  1.00  0.00     0.001 C 
HETATM   19  C   UNL     1     -40.341  53.522 -55.048  1.00  0.00     0.003 C 
HETATM   20  O   UNL     1     -40.725  57.370 -52.679  1.00  0.00    -0.270 OA
ENDBRANCH   6   7
ENDBRANCH   3   6
ENDBRANCH   1   2
BRANCH   1  21
HETATM   21  C   UNL     1     -43.080  59.865 -58.751  1.00  0.00     0.071 C 
BRANCH  21  22
HETATM   22  C   UNL     1     -42.936  58.414 -59.184  1.00  0.00    -0.020 A 
HETATM   23  C   UNL     1     -43.997  57.490 -59.481  1.00  0.00    -0.001 A 
HETATM   24  C   UNL     1     -43.411  56.269 -59.824  1.00  0.00     0.042 A 
HETATM   25  C   UNL     1     -45.406  57.575 -59.496  1.00  0.00     0.014 A 
HETATM   26  C   UNL     1     -44.155  55.138 -60.180  1.00  0.00     0.030 A 
HETATM   27  N   UNL     1     -42.051  56.433 -59.739  1.00  0.00    -0.365 N 
HETATM   28  C   UNL     1     -45.548  55.253 -60.189  1.00  0.00     0.002 A 
HETATM   29  C   UNL     1     -46.166  56.454 -59.852  1.00  0.00     0.001 A 
HETATM   30  H   UNL     1     -41.374  55.710 -59.934  1.00  0.00     0.165 HD
HETATM   31  C   UNL     1     -41.753  57.711 -59.356  1.00  0.00     0.097 A 
ENDBRANCH  21  22
BRANCH  21  32
HETATM   32  C   UNL     1     -42.381  60.651 -59.855  1.00  0.00    -0.048 A 
HETATM   33  C   UNL     1     -41.358  61.550 -59.509  1.00  0.00     0.011 A 
HETATM   34  C   UNL     1     -40.722  62.323 -60.484  1.00  0.00     0.037 A 
HETATM   35  C   UNL     1     -41.089  62.219 -61.825  1.00  0.00     0.068 A 
HETATM   36  C   UNL     1     -42.099  61.329 -62.183  1.00  0.00     0.037 A 
HETATM   37  C   UNL     1     -42.742  60.555 -61.208  1.00  0.00     0.011 A 
BRANCH  35  38
HETATM   38  O   UNL     1     -40.395  63.038 -62.673  1.00  0.00    -0.356 OA
HETATM   39  C   UNL     1     -39.032  63.285 -62.355  1.00  0.00     0.210 C 
ENDBRANCH  35  38
ENDBRANCH  21  32
ENDBRANCH   1  21
TORSDOF 7
ENDMDL
MODEL 3
REMARK VINA RESULT:      -8.9      4.126      8.134
REMARK  7 active torsions:
REMARK  status: ('A' for Active; 'I' for Inactive)
REMARK    1  A    between atoms: N_7  and  C_8 
REMARK    2  A    between atoms: C_8  and  C_9 
REMARK       I    between atoms: C_9  and  N_10 
REMARK    3  A    between atoms: N_10  and  C_11 
REMARK    4  A    between atoms: C_11  and  C_12 
REMARK    5  A    between atoms: C_12  and  C_13 
REMARK    6  A    between atoms: C_12  and  C_23 
REMARK    7  A    between atoms: C_26  and  O_27 
ROOT
HETATM    1  C   UNL     1     -43.620  55.881 -52.592  1.00  0.00     0.136 C 
ENDROOT
BRANCH   1   2
HETATM    2  N   UNL     1     -44.418  56.553 -53.614  1.00  0.00    -0.359 N 
HETATM    3  C   UNL     1     -44.799  57.862 -53.350  1.00  0.00     0.236 C 
HETATM    4  O   UNL     1     -44.693  58.357 -52.228  1.00  0.00    -0.272 OA
HETATM    5  H   UNL     1     -44.257  56.303 -54.589  1.00  0.00     0.162 HD
BRANCH   3   6
HETATM    6  C   UNL     1     -45.130  58.728 -54.556  1.00  0.00     0.239 C 
BRANCH   6   7
HETATM    7  N   UNL     1     -44.742  58.185 -55.835  1.00  0.00    -0.259 N 
HETATM    8  C   UNL     1     -45.612  57.967 -56.859  1.00  0.00     0.326 C 
HETATM    9  N   UNL     1     -44.890  57.616 -57.977  1.00  0.00    -0.324 N 
HETATM   10  O   UNL     1     -46.824  58.088 -56.850  1.00  0.00    -0.247 OA
HETATM   11  C   UNL     1     -43.469  57.827 -57.792  1.00  0.00     0.119 C 
HETATM   12  H   UNL     1     -45.363  57.541 -58.870  1.00  0.00     0.165 HD
HETATM   13  C   UNL     1     -42.603  56.657 -58.291  1.00  0.00     0.019 C 
HETATM   14  C   UNL     1     -43.454  58.026 -56.259  1.00  0.00     0.257 C 
HETATM   15  C   UNL     1     -43.038  59.166 -58.425  1.00  0.00     0.041 C 
HETATM   16  C   UNL     1     -43.057  55.295 -57.755  1.00  0.00     0.013 C 
HETATM   17  C   UNL     1     -42.562  56.618 -59.831  1.00  0.00     0.007 C 
HETATM   18  C   UNL     1     -42.124  57.952 -60.432  1.00  0.00     0.001 C 
HETATM   19  C   UNL     1     -42.995  59.103 -59.948  1.00  0.00     0.003 C 
HETATM   20  O   UNL     1     -42.461  58.130 -55.551  1.00  0.00    -0.270 OA
ENDBRANCH   6   7
ENDBRANCH   3   6
ENDBRANCH   1   2
BRANCH   1  21
HETATM   21  C   UNL     1     -42.086  55.946 -52.750  1.00  0.00     0.071 C 
BRANCH  21  22
HETATM   22  C   UNL     1     -41.416  54.730 -52.132  1.00  0.00    -0.020 A 
HETATM   23  C   UNL     1     -40.827  53.617 -52.828  1.00  0.00    -0.001 A 
HETATM   24  C   UNL     1     -40.339  52.727 -51.868  1.00  0.00     0.042 A 
HETATM   25  C   UNL     1     -40.658  53.283 -54.188  1.00  0.00     0.014 A 
HETATM   26  C   UNL     1     -39.695  51.529 -52.196  1.00  0.00     0.030 A 
HETATM   27  N   UNL     1     -40.618  53.265 -50.637  1.00  0.00    -0.365 N 
HETATM   28  C   UNL     1     -39.539  51.225 -53.551  1.00  0.00     0.002 A 
HETATM   29  C   UNL     1     -40.012  52.089 -54.535  1.00  0.00     0.001 A 
HETATM   30  H   UNL     1     -40.377  52.834 -49.755  1.00  0.00     0.165 HD
HETATM   31  C   UNL     1     -41.262  54.463 -50.779  1.00  0.00     0.097 A 
ENDBRANCH  21  22
BRANCH  21  32
HETATM   32  C   UNL     1     -41.373  57.130 -52.105  1.00  0.00    -0.048 A 
HETATM   33  C   UNL     1     -40.394  57.820 -52.841  1.00  0.00     0.011 A 
HETATM   34  C   UNL     1     -39.686  58.882 -52.273  1.00  0.00     0.037 A 
HETATM   35  C   UNL     1     -39.935  59.283 -50.962  1.00  0.00     0.068 A 
HETATM   36  C   UNL     1     -40.906  58.611 -50.222  1.00  0.00     0.037 A 
HETATM   37  C   UNL     1     -41.616  57.543 -50.786  1.00  0.00     0.011 A 
BRANCH  35  38
HETATM   38  O   UNL     1     -39.166  60.327 -50.527  1.00  0.00    -0.356 OA
HETATM   39  C   UNL     1     -37.966  59.998 -49.840  1.00  0.00     0.210 C 
ENDBRANCH  35  38
ENDBRANCH  21  32
ENDBRANCH   1  21
TORSDOF 7
ENDMDL
MODEL 4
REMARK VINA RESULT:      -8.9      3.926      8.176
REMARK  7 active torsions:
REMARK  status: ('A' for Active; 'I' for Inactive)
REMARK    1  A    between atoms: N_7  and  C_8 
REMARK    2  A    between atoms: C_8  and  C_9 
REMARK       I    between atoms: C_9  and  N_10 
REMARK    3  A    between atoms: N_10  and  C_11 
REMARK    4  A    between atoms: C_11  and  C_12 
REMARK    5  A    between atoms: C_12  and  C_13 
REMARK    6  A    between atoms: C_12  and  C_23 
REMARK    7  A    between atoms: C_26  and  O_27 
ROOT
HETATM    1  C   UNL     1     -42.132  58.274 -55.232  1.00  0.00     0.136 C 
ENDROOT
BRANCH   1   2
HETATM    2  N   UNL     1     -43.107  59.131 -55.900  1.00  0.00    -0.359 N 
HETATM    3  C   UNL     1     -42.614  60.024 -56.842  1.00  0.00     0.236 C 
HETATM    4  O   UNL     1     -41.411  60.267 -56.942  1.00  0.00    -0.272 OA
HETATM    5  H   UNL     1     -44.044  58.760 -56.056  1.00  0.00     0.162 HD
BRANCH   3   6
HETATM    6  C   UNL     1     -43.597  60.508 -57.897  1.00  0.00     0.239 C 
BRANCH   6   7
HETATM    7  N   UNL     1     -44.093  59.494 -58.795  1.00  0.00    -0.259 N 
HETATM    8  C   UNL     1     -43.593  59.277 -60.042  1.00  0.00     0.326 C 
HETATM    9  N   UNL     1     -44.167  58.134 -60.550  1.00  0.00    -0.324 N 
HETATM   10  O   UNL     1     -42.751  59.929 -60.633  1.00  0.00    -0.247 OA
HETATM   11  C   UNL     1     -44.905  57.405 -59.539  1.00  0.00     0.119 C 
HETATM   12  H   UNL     1     -43.818  57.747 -61.418  1.00  0.00     0.165 HD
HETATM   13  C   UNL     1     -46.284  56.915 -60.018  1.00  0.00     0.019 C 
HETATM   14  C   UNL     1     -44.958  58.496 -58.446  1.00  0.00     0.257 C 
HETATM   15  C   UNL     1     -44.052  56.248 -58.980  1.00  0.00     0.041 C 
HETATM   16  C   UNL     1     -47.128  58.019 -60.663  1.00  0.00     0.013 C 
HETATM   17  C   UNL     1     -46.140  55.735 -60.999  1.00  0.00     0.007 C 
HETATM   18  C   UNL     1     -45.300  54.600 -60.418  1.00  0.00     0.001 C 
HETATM   19  C   UNL     1     -43.931  55.086 -59.962  1.00  0.00     0.003 C 
HETATM   20  O   UNL     1     -45.583  58.440 -57.395  1.00  0.00    -0.270 OA
ENDBRANCH   6   7
ENDBRANCH   3   6
ENDBRANCH   1   2
BRANCH   1  21
HETATM   21  C   UNL     1     -42.675  57.305 -54.160  1.00  0.00     0.071 C 
BRANCH  21  22
HETATM   22  C   UNL     1     -42.569  57.906 -52.768  1.00  0.00    -0.020 A 
HETATM   23  C   UNL     1     -41.390  58.447 -52.145  1.00  0.00    -0.001 A 
HETATM   24  C   UNL     1     -41.748  58.878 -50.865  1.00  0.00     0.042 A 
HETATM   25  C   UNL     1     -40.049  58.615 -52.550  1.00  0.00     0.014 A 
HETATM   26  C   UNL     1     -40.840  59.465 -49.976  1.00  0.00     0.030 A 
HETATM   27  N   UNL     1     -43.084  58.612 -50.706  1.00  0.00    -0.365 N 
HETATM   28  C   UNL     1     -39.520  59.622 -50.405  1.00  0.00     0.002 A 
HETATM   29  C   UNL     1     -39.128  59.204 -51.674  1.00  0.00     0.001 A 
HETATM   30  H   UNL     1     -43.615  58.821 -49.871  1.00  0.00     0.165 HD
HETATM   31  C   UNL     1     -43.588  58.031 -51.835  1.00  0.00     0.097 A 
ENDBRANCH  21  22
BRANCH  21  32
HETATM   32  C   UNL     1     -41.981  55.953 -54.033  1.00  0.00    -0.048 A 
HETATM   33  C   UNL     1     -40.865  55.681 -54.842  1.00  0.00     0.011 A 
HETATM   34  C   UNL     1     -40.226  54.439 -54.790  1.00  0.00     0.037 A 
HETATM   35  C   UNL     1     -40.682  53.440 -53.932  1.00  0.00     0.068 A 
HETATM   36  C   UNL     1     -41.786  53.697 -53.121  1.00  0.00     0.037 A 
HETATM   37  C   UNL     1     -42.431  54.940 -53.173  1.00  0.00     0.011 A 
BRANCH  35  38
HETATM   38  O   UNL     1     -39.975  52.271 -53.987  1.00  0.00    -0.356 OA
HETATM   39  C   UNL     1     -39.651  51.657 -52.747  1.00  0.00     0.210 C 
ENDBRANCH  35  38
ENDBRANCH  21  32
ENDBRANCH   1  21
TORSDOF 7
ENDMDL
MODEL 5
REMARK VINA RESULT:      -8.8      4.024      7.886
REMARK  7 active torsions:
REMARK  status: ('A' for Active; 'I' for Inactive)
REMARK    1  A    between atoms: N_7  and  C_8 
REMARK    2  A    between atoms: C_8  and  C_9 
REMARK       I    between atoms: C_9  and  N_10 
REMARK    3  A    between atoms: N_10  and  C_11 
REMARK    4  A    between atoms: C_11  and  C_12 
REMARK    5  A    between atoms: C_12  and  C_13 
REMARK    6  A    between atoms: C_12  and  C_23 
REMARK    7  A    between atoms: C_26  and  O_27 
ROOT
HETATM    1  C   UNL     1     -44.349  57.706 -52.961  1.00  0.00     0.136 C 
ENDROOT
BRANCH   1   2
HETATM    2  N   UNL     1     -45.063  58.350 -54.060  1.00  0.00    -0.359 N 
HETATM    3  C   UNL     1     -45.083  59.738 -54.065  1.00  0.00     0.236 C 
HETATM    4  O   UNL     1     -44.738  60.398 -53.084  1.00  0.00    -0.272 OA
HETATM    5  H   UNL     1     -45.075  57.880 -54.965  1.00  0.00     0.162 HD
BRANCH   3   6
HETATM    6  C   UNL     1     -45.320  60.408 -55.411  1.00  0.00     0.239 C 
BRANCH   6   7
HETATM    7  N   UNL     1     -44.681  59.776 -56.539  1.00  0.00    -0.259 N 
HETATM    8  C   UNL     1     -43.358  59.905 -56.829  1.00  0.00     0.326 C 
HETATM    9  N   UNL     1     -43.049  59.039 -57.854  1.00  0.00    -0.324 N 
HETATM   10  O   UNL     1     -42.538  60.618 -56.279  1.00  0.00    -0.247 OA
HETATM   11  C   UNL     1     -44.130  58.112 -58.123  1.00  0.00     0.119 C 
HETATM   12  H   UNL     1     -42.080  58.906 -58.116  1.00  0.00     0.165 HD
HETATM   13  C   UNL     1     -44.431  57.938 -59.622  1.00  0.00     0.019 C 
HETATM   14  C   UNL     1     -45.251  58.812 -57.322  1.00  0.00     0.257 C 
HETATM   15  C   UNL     1     -43.861  56.759 -57.434  1.00  0.00     0.041 C 
HETATM   16  C   UNL     1     -44.614  59.266 -60.362  1.00  0.00     0.013 C 
HETATM   17  C   UNL     1     -43.330  57.109 -60.313  1.00  0.00     0.007 C 
HETATM   18  C   UNL     1     -43.090  55.771 -59.618  1.00  0.00     0.001 C 
HETATM   19  C   UNL     1     -42.775  55.951 -58.139  1.00  0.00     0.003 C 
HETATM   20  O   UNL     1     -46.434  58.498 -57.306  1.00  0.00    -0.270 OA
ENDBRANCH   6   7
ENDBRANCH   3   6
ENDBRANCH   1   2
BRANCH   1  21
HETATM   21  C   UNL     1     -42.862  57.366 -53.200  1.00  0.00     0.071 C 
BRANCH  21  22
HETATM   22  C   UNL     1     -42.579  55.900 -52.914  1.00  0.00    -0.020 A 
HETATM   23  C   UNL     1     -41.691  55.031 -53.639  1.00  0.00    -0.001 A 
HETATM   24  C   UNL     1     -41.747  53.771 -53.038  1.00  0.00     0.042 A 
HETATM   25  C   UNL     1     -40.837  55.197 -54.750  1.00  0.00     0.014 A 
HETATM   26  C   UNL     1     -40.999  52.677 -53.488  1.00  0.00     0.030 A 
HETATM   27  N   UNL     1     -42.632  53.859 -51.993  1.00  0.00    -0.365 N 
HETATM   28  C   UNL     1     -40.160  52.872 -54.588  1.00  0.00     0.002 A 
HETATM   29  C   UNL     1     -40.079  54.114 -55.212  1.00  0.00     0.001 A 
HETATM   30  H   UNL     1     -42.869  53.093 -51.377  1.00  0.00     0.165 HD
HETATM   31  C   UNL     1     -43.137  55.126 -51.907  1.00  0.00     0.097 A 
ENDBRANCH  21  22
BRANCH  21  32
HETATM   32  C   UNL     1     -41.836  58.114 -52.356  1.00  0.00    -0.048 A 
HETATM   33  C   UNL     1     -40.570  58.384 -52.903  1.00  0.00     0.011 A 
HETATM   34  C   UNL     1     -39.585  59.028 -52.149  1.00  0.00     0.037 A 
HETATM   35  C   UNL     1     -39.837  59.418 -50.835  1.00  0.00     0.068 A 
HETATM   36  C   UNL     1     -41.090  59.161 -50.281  1.00  0.00     0.037 A 
HETATM   37  C   UNL     1     -42.079  58.512 -51.033  1.00  0.00     0.011 A 
BRANCH  35  38
HETATM   38  O   UNL     1     -38.786  60.028 -50.207  1.00  0.00    -0.356 OA
HETATM   39  C   UNL     1     -37.532  59.363 -50.263  1.00  0.00     0.210 C 
ENDBRANCH  35  38
ENDBRANCH  21  32
ENDBRANCH   1  21
TORSDOF 7
ENDMDL
MODEL 6
REMARK VINA RESULT:      -8.7      3.294      8.973
REMARK  7 active torsions:
REMARK  status: ('A' for Active; 'I' for Inactive)
REMARK    1  A    between atoms: N_7  and  C_8 
REMARK    2  A    between atoms: C_8  and  C_9 
REMARK       I    between atoms: C_9  and  N_10 
REMARK    3  A    between atoms: N_10  and  C_11 
REMARK    4  A    between atoms: C_11  and  C_12 
REMARK    5  A    between atoms: C_12  and  C_13 
REMARK    6  A    between atoms: C_12  and  C_23 
REMARK    7  A    between atoms: C_26  and  O_27 
ROOT
HETATM    1  C   UNL     1     -41.374  59.486 -53.938  1.00  0.00     0.136 C 
ENDROOT
BRANCH   1   2
HETATM    2  N   UNL     1     -42.578  59.953 -54.620  1.00  0.00    -0.359 N 
HETATM    3  C   UNL     1     -42.460  60.244 -55.972  1.00  0.00     0.236 C 
HETATM    4  O   UNL     1     -41.363  60.346 -56.522  1.00  0.00    -0.272 OA
HETATM    5  H   UNL     1     -43.479  59.601 -54.296  1.00  0.00     0.162 HD
BRANCH   3   6
HETATM    6  C   UNL     1     -43.741  60.197 -56.791  1.00  0.00     0.239 C 
BRANCH   6   7
HETATM    7  N   UNL     1     -43.988  58.957 -57.486  1.00  0.00    -0.259 N 
HETATM    8  C   UNL     1     -44.442  57.827 -56.878  1.00  0.00     0.326 C 
HETATM    9  N   UNL     1     -44.735  56.897 -57.849  1.00  0.00    -0.324 N 
HETATM   10  O   UNL     1     -44.615  57.637 -55.687  1.00  0.00    -0.247 OA
HETATM   11  C   UNL     1     -44.712  57.476 -59.177  1.00  0.00     0.119 C 
HETATM   12  H   UNL     1     -45.206  56.039 -57.588  1.00  0.00     0.165 HD
HETATM   13  C   UNL     1     -43.972  56.610 -60.212  1.00  0.00     0.019 C 
HETATM   14  C   UNL     1     -44.012  58.813 -58.844  1.00  0.00     0.257 C 
HETATM   15  C   UNL     1     -46.143  57.818 -59.638  1.00  0.00     0.041 C 
HETATM   16  C   UNL     1     -42.578  56.172 -59.751  1.00  0.00     0.013 C 
HETATM   17  C   UNL     1     -44.804  55.369 -60.590  1.00  0.00     0.007 C 
HETATM   18  C   UNL     1     -46.212  55.736 -61.052  1.00  0.00     0.001 C 
HETATM   19  C   UNL     1     -46.946  56.578 -60.016  1.00  0.00     0.003 C 
HETATM   20  O   UNL     1     -43.634  59.654 -59.649  1.00  0.00    -0.270 OA
ENDBRANCH   6   7
ENDBRANCH   3   6
ENDBRANCH   1   2
BRANCH   1  21
HETATM   21  C   UNL     1     -41.563  58.854 -52.543  1.00  0.00     0.071 C 
BRANCH  21  22
HETATM   22  C   UNL     1     -41.640  57.338 -52.630  1.00  0.00    -0.020 A 
HETATM   23  C   UNL     1     -41.493  56.399 -51.550  1.00  0.00    -0.001 A 
HETATM   24  C   UNL     1     -41.625  55.115 -52.084  1.00  0.00     0.042 A 
HETATM   25  C   UNL     1     -41.263  56.519 -50.163  1.00  0.00     0.014 A 
HETATM   26  C   UNL     1     -41.542  53.953 -51.308  1.00  0.00     0.030 A 
HETATM   27  N   UNL     1     -41.841  55.256 -53.432  1.00  0.00    -0.365 N 
HETATM   28  C   UNL     1     -41.317  54.103 -49.937  1.00  0.00     0.002 A 
HETATM   29  C   UNL     1     -41.180  55.367 -49.371  1.00  0.00     0.001 A 
HETATM   30  H   UNL     1     -41.974  54.488 -54.074  1.00  0.00     0.165 HD
HETATM   31  C   UNL     1     -41.852  56.580 -53.773  1.00  0.00     0.097 A 
ENDBRANCH  21  22
BRANCH  21  32
HETATM   32  C   UNL     1     -42.818  59.245 -51.770  1.00  0.00    -0.048 A 
HETATM   33  C   UNL     1     -42.773  60.357 -50.913  1.00  0.00     0.011 A 
HETATM   34  C   UNL     1     -43.886  60.724 -50.153  1.00  0.00     0.037 A 
HETATM   35  C   UNL     1     -45.071  59.993 -50.228  1.00  0.00     0.068 A 
HETATM   36  C   UNL     1     -45.132  58.889 -51.077  1.00  0.00     0.037 A 
HETATM   37  C   UNL     1     -44.016  58.517 -51.838  1.00  0.00     0.011 A 
BRANCH  35  38
HETATM   38  O   UNL     1     -46.078  60.452 -49.425  1.00  0.00    -0.356 OA
HETATM   39  C   UNL     1     -45.770  61.541 -48.567  1.00  0.00     0.210 C 
ENDBRANCH  35  38
ENDBRANCH  21  32
ENDBRANCH   1  21
TORSDOF 7
ENDMDL
MODEL 7
REMARK VINA RESULT:      -8.6      3.848      8.040
REMARK  7 active torsions:
REMARK  status: ('A' for Active; 'I' for Inactive)
REMARK    1  A    between atoms: N_7  and  C_8 
REMARK    2  A    between atoms: C_8  and  C_9 
REMARK       I    between atoms: C_9  and  N_10 
REMARK    3  A    between atoms: N_10  and  C_11 
REMARK    4  A    between atoms: C_11  and  C_12 
REMARK    5  A    between atoms: C_12  and  C_13 
REMARK    6  A    between atoms: C_12  and  C_23 
REMARK    7  A    between atoms: C_26  and  O_27 
ROOT
HETATM    1  C   UNL     1     -43.217  55.241 -54.886  1.00  0.00     0.136 C 
ENDROOT
BRANCH   1   2
HETATM    2  N   UNL     1     -42.695  56.429 -55.556  1.00  0.00    -0.359 N 
HETATM    3  C   UNL     1     -42.806  56.466 -56.940  1.00  0.00     0.236 C 
HETATM    4  O   UNL     1     -43.097  55.466 -57.597  1.00  0.00    -0.272 OA
HETATM    5  H   UNL     1     -42.743  57.318 -55.061  1.00  0.00     0.162 HD
BRANCH   3   6
HETATM    6  C   UNL     1     -42.787  57.845 -57.584  1.00  0.00     0.239 C 
BRANCH   6   7
HETATM    7  N   UNL     1     -43.751  58.051 -58.637  1.00  0.00    -0.259 N 
HETATM    8  C   UNL     1     -43.447  57.988 -59.963  1.00  0.00     0.326 C 
HETATM    9  N   UNL     1     -44.619  58.054 -60.682  1.00  0.00    -0.324 N 
HETATM   10  O   UNL     1     -42.349  57.855 -60.473  1.00  0.00    -0.247 OA
HETATM   11  C   UNL     1     -45.783  57.919 -59.832  1.00  0.00     0.119 C 
HETATM   12  H   UNL     1     -44.597  57.893 -61.682  1.00  0.00     0.165 HD
HETATM   13  C   UNL     1     -46.895  58.937 -60.145  1.00  0.00     0.019 C 
HETATM   14  C   UNL     1     -45.103  58.116 -58.458  1.00  0.00     0.257 C 
HETATM   15  C   UNL     1     -46.311  56.469 -59.870  1.00  0.00     0.041 C 
HETATM   16  C   UNL     1     -46.392  60.383 -60.206  1.00  0.00     0.013 C 
HETATM   17  C   UNL     1     -47.613  58.583 -61.462  1.00  0.00     0.007 C 
HETATM   18  C   UNL     1     -48.133  57.148 -61.470  1.00  0.00     0.001 C 
HETATM   19  C   UNL     1     -47.026  56.144 -61.177  1.00  0.00     0.003 C 
HETATM   20  O   UNL     1     -45.667  58.212 -57.376  1.00  0.00    -0.270 OA
ENDBRANCH   6   7
ENDBRANCH   3   6
ENDBRANCH   1   2
BRANCH   1  21
HETATM   21  C   UNL     1     -42.986  55.142 -53.363  1.00  0.00     0.071 C 
BRANCH  21  22
HETATM   22  C   UNL     1     -42.532  56.473 -52.786  1.00  0.00    -0.020 A 
HETATM   23  C   UNL     1     -43.352  57.463 -52.141  1.00  0.00    -0.001 A 
HETATM   24  C   UNL     1     -42.524  58.529 -51.780  1.00  0.00     0.042 A 
HETATM   25  C   UNL     1     -44.724  57.554 -51.825  1.00  0.00     0.014 A 
HETATM   26  C   UNL     1     -42.994  59.672 -51.122  1.00  0.00     0.030 A 
HETATM   27  N   UNL     1     -41.252  58.211 -52.186  1.00  0.00    -0.365 N 
HETATM   28  C   UNL     1     -44.356  59.733 -50.819  1.00  0.00     0.002 A 
HETATM   29  C   UNL     1     -45.211  58.690 -51.165  1.00  0.00     0.001 A 
HETATM   30  H   UNL     1     -40.444  58.802 -52.053  1.00  0.00     0.165 HD
HETATM   31  C   UNL     1     -41.242  56.984 -52.790  1.00  0.00     0.097 A 
ENDBRANCH  21  22
BRANCH  21  32
HETATM   32  C   UNL     1     -41.930  54.151 -52.885  1.00  0.00    -0.048 A 
HETATM   33  C   UNL     1     -41.189  53.432 -53.838  1.00  0.00     0.011 A 
HETATM   34  C   UNL     1     -40.242  52.483 -53.444  1.00  0.00     0.037 A 
HETATM   35  C   UNL     1     -40.010  52.228 -52.093  1.00  0.00     0.068 A 
HETATM   36  C   UNL     1     -40.736  52.936 -51.137  1.00  0.00     0.037 A 
HETATM   37  C   UNL     1     -41.688  53.886 -51.528  1.00  0.00     0.011 A 
BRANCH  35  38
HETATM   38  O   UNL     1     -39.067  51.269 -51.845  1.00  0.00    -0.356 OA
HETATM   39  C   UNL     1     -39.509  50.087 -51.192  1.00  0.00     0.210 C 
ENDBRANCH  35  38
ENDBRANCH  21  32
ENDBRANCH   1  21
TORSDOF 7
ENDMDL
MODEL 8
REMARK VINA RESULT:      -8.6      4.239      7.861
REMARK  7 active torsions:
REMARK  status: ('A' for Active; 'I' for Inactive)
REMARK    1  A    between atoms: N_7  and  C_8 
REMARK    2  A    between atoms: C_8  and  C_9 
REMARK       I    between atoms: C_9  and  N_10 
REMARK    3  A    between atoms: N_10  and  C_11 
REMARK    4  A    between atoms: C_11  and  C_12 
REMARK    5  A    between atoms: C_12  and  C_13 
REMARK    6  A    between atoms: C_12  and  C_23 
REMARK    7  A    between atoms: C_26  and  O_27 
ROOT
HETATM    1  C   UNL     1     -42.496  55.077 -56.119  1.00  0.00     0.136 C 
ENDROOT
BRANCH   1   2
HETATM    2  N   UNL     1     -43.499  55.668 -56.999  1.00  0.00    -0.359 N 
HETATM    3  C   UNL     1     -43.313  56.997 -57.357  1.00  0.00     0.236 C 
HETATM    4  O   UNL     1     -42.497  57.718 -56.781  1.00  0.00    -0.272 OA
HETATM    5  H   UNL     1     -43.957  55.063 -57.680  1.00  0.00     0.162 HD
BRANCH   3   6
HETATM    6  C   UNL     1     -43.988  57.455 -58.641  1.00  0.00     0.239 C 
BRANCH   6   7
HETATM    7  N   UNL     1     -43.552  58.732 -59.150  1.00  0.00    -0.259 N 
HETATM    8  C   UNL     1     -44.176  59.909 -58.874  1.00  0.00     0.326 C 
HETATM    9  N   UNL     1     -43.404  60.938 -59.365  1.00  0.00    -0.324 N 
HETATM   10  O   UNL     1     -45.216  60.079 -58.263  1.00  0.00    -0.247 OA
HETATM   11  C   UNL     1     -42.095  60.480 -59.783  1.00  0.00     0.119 C 
HETATM   12  H   UNL     1     -43.649  61.894 -59.138  1.00  0.00     0.165 HD
HETATM   13  C   UNL     1     -41.651  61.047 -61.144  1.00  0.00     0.019 C 
HETATM   14  C   UNL     1     -42.361  58.957 -59.780  1.00  0.00     0.257 C 
HETATM   15  C   UNL     1     -41.052  60.758 -58.682  1.00  0.00     0.041 C 
HETATM   16  C   UNL     1     -42.701  60.871 -62.246  1.00  0.00     0.013 C 
HETATM   17  C   UNL     1     -41.272  62.536 -61.024  1.00  0.00     0.007 C 
HETATM   18  C   UNL     1     -40.232  62.782 -59.934  1.00  0.00     0.001 C 
HETATM   19  C   UNL     1     -40.684  62.235 -58.587  1.00  0.00     0.003 C 
HETATM   20  O   UNL     1     -41.597  58.087 -60.177  1.00  0.00    -0.270 OA
ENDBRANCH   6   7
ENDBRANCH   3   6
ENDBRANCH   1   2
BRANCH   1  21
HETATM   21  C   UNL     1     -42.943  54.739 -54.680  1.00  0.00     0.071 C 
BRANCH  21  22
HETATM   22  C   UNL     1     -43.239  56.000 -53.884  1.00  0.00    -0.020 A 
HETATM   23  C   UNL     1     -42.300  57.016 -53.490  1.00  0.00    -0.001 A 
HETATM   24  C   UNL     1     -43.002  57.983 -52.766  1.00  0.00     0.042 A 
HETATM   25  C   UNL     1     -40.916  57.208 -53.682  1.00  0.00     0.014 A 
HETATM   26  C   UNL     1     -42.396  59.125 -52.230  1.00  0.00     0.030 A 
HETATM   27  N   UNL     1     -44.313  57.580 -52.715  1.00  0.00    -0.365 N 
HETATM   28  C   UNL     1     -41.024  59.291 -52.440  1.00  0.00     0.002 A 
HETATM   29  C   UNL     1     -40.293  58.347 -53.156  1.00  0.00     0.001 A 
HETATM   30  H   UNL     1     -45.052  58.091 -52.252  1.00  0.00     0.165 HD
HETATM   31  C   UNL     1     -44.469  56.395 -53.379  1.00  0.00     0.097 A 
ENDBRANCH  21  22
BRANCH  21  32
HETATM   32  C   UNL     1     -41.953  53.974 -53.809  1.00  0.00    -0.048 A 
HETATM   33  C   UNL     1     -40.954  53.203 -54.427  1.00  0.00     0.011 A 
HETATM   34  C   UNL     1     -40.054  52.451 -53.667  1.00  0.00     0.037 A 
HETATM   35  C   UNL     1     -40.127  52.450 -52.274  1.00  0.00     0.068 A 
HETATM   36  C   UNL     1     -41.111  53.213 -51.648  1.00  0.00     0.037 A 
HETATM   37  C   UNL     1     -42.017  53.965 -52.407  1.00  0.00     0.011 A 
BRANCH  35  38
HETATM   38  O   UNL     1     -39.195  51.665 -51.654  1.00  0.00    -0.356 OA
HETATM   39  C   UNL     1     -39.533  50.298 -51.460  1.00  0.00     0.210 C 
ENDBRANCH  35  38
ENDBRANCH  21  32
ENDBRANCH   1  21
TORSDOF 7
ENDMDL
MODEL 9
REMARK VINA RESULT:      -8.6      3.524      5.878
REMARK  7 active torsions:
REMARK  status: ('A' for Active; 'I' for Inactive)
REMARK    1  A    between atoms: N_7  and  C_8 
REMARK    2  A    between atoms: C_8  and  C_9 
REMARK       I    between atoms: C_9  and  N_10 
REMARK    3  A    between atoms: N_10  and  C_11 
REMARK    4  A    between atoms: C_11  and  C_12 
REMARK    5  A    between atoms: C_12  and  C_13 
REMARK    6  A    between atoms: C_12  and  C_23 
REMARK    7  A    between atoms: C_26  and  O_27 
ROOT
HETATM    1  C   UNL     1     -42.994  55.370 -55.577  1.00  0.00     0.136 C 
ENDROOT
BRANCH   1   2
HETATM    2  N   UNL     1     -42.211  56.354 -56.319  1.00  0.00    -0.359 N 
HETATM    3  C   UNL     1     -42.678  56.704 -57.579  1.00  0.00     0.236 C 
HETATM    4  O   UNL     1     -43.554  56.055 -58.152  1.00  0.00    -0.272 OA
HETATM    5  H   UNL     1     -41.717  57.072 -55.790  1.00  0.00     0.162 HD
BRANCH   3   6
HETATM    6  C   UNL     1     -42.231  58.055 -58.117  1.00  0.00     0.239 C 
BRANCH   6   7
HETATM    7  N   UNL     1     -42.940  59.197 -57.593  1.00  0.00    -0.259 N 
HETATM    8  C   UNL     1     -44.154  59.609 -58.051  1.00  0.00     0.326 C 
HETATM    9  N   UNL     1     -44.618  60.604 -57.221  1.00  0.00    -0.324 N 
HETATM   10  O   UNL     1     -44.781  59.175 -59.000  1.00  0.00    -0.247 OA
HETATM   11  C   UNL     1     -43.819  60.723 -56.019  1.00  0.00     0.119 C 
HETATM   12  H   UNL     1     -45.566  60.942 -57.334  1.00  0.00     0.165 HD
HETATM   13  C   UNL     1     -43.475  62.178 -55.651  1.00  0.00     0.019 C 
HETATM   14  C   UNL     1     -42.605  59.869 -56.452  1.00  0.00     0.257 C 
HETATM   15  C   UNL     1     -44.496  59.983 -54.848  1.00  0.00     0.041 C 
HETATM   16  C   UNL     1     -42.883  62.975 -56.818  1.00  0.00     0.013 C 
HETATM   17  C   UNL     1     -44.712  62.914 -55.098  1.00  0.00     0.007 C 
HETATM   18  C   UNL     1     -45.357  62.165 -53.934  1.00  0.00     0.001 C 
HETATM   19  C   UNL     1     -45.711  60.733 -54.310  1.00  0.00     0.003 C 
HETATM   20  O   UNL     1     -41.558  59.731 -55.833  1.00  0.00    -0.270 OA
ENDBRANCH   6   7
ENDBRANCH   3   6
ENDBRANCH   1   2
BRANCH   1  21
HETATM   21  C   UNL     1     -42.764  55.302 -54.052  1.00  0.00     0.071 C 
BRANCH  21  22
HETATM   22  C   UNL     1     -42.203  56.611 -53.521  1.00  0.00    -0.020 A 
HETATM   23  C   UNL     1     -42.881  57.571 -52.690  1.00  0.00    -0.001 A 
HETATM   24  C   UNL     1     -41.995  58.625 -52.452  1.00  0.00     0.042 A 
HETATM   25  C   UNL     1     -44.166  57.642 -52.113  1.00  0.00     0.014 A 
HETATM   26  C   UNL     1     -42.326  59.738 -51.671  1.00  0.00     0.030 A 
HETATM   27  N   UNL     1     -40.827  58.330 -53.108  1.00  0.00    -0.365 N 
HETATM   28  C   UNL     1     -43.605  59.780 -51.109  1.00  0.00     0.002 A 
HETATM   29  C   UNL     1     -44.513  58.748 -51.325  1.00  0.00     0.001 A 
HETATM   30  H   UNL     1     -40.006  58.919 -53.110  1.00  0.00     0.165 HD
HETATM   31  C   UNL     1     -40.937  57.129 -53.752  1.00  0.00     0.097 A 
ENDBRANCH  21  22
BRANCH  21  32
HETATM   32  C   UNL     1     -41.786  54.247 -53.545  1.00  0.00    -0.048 A 
HETATM   33  C   UNL     1     -41.120  53.431 -54.475  1.00  0.00     0.011 A 
HETATM   34  C   UNL     1     -40.250  52.423 -54.052  1.00  0.00     0.037 A 
HETATM   35  C   UNL     1     -40.022  52.204 -52.694  1.00  0.00     0.068 A 
HETATM   36  C   UNL     1     -40.672  53.009 -51.761  1.00  0.00     0.037 A 
HETATM   37  C   UNL     1     -41.549  54.018 -52.181  1.00  0.00     0.011 A 
BRANCH  35  38
HETATM   38  O   UNL     1     -39.157  51.182 -52.417  1.00  0.00    -0.356 OA
HETATM   39  C   UNL     1     -39.482  50.348 -51.313  1.00  0.00     0.210 C 
ENDBRANCH  35  38
ENDBRANCH  21  32
ENDBRANCH   1  21
TORSDOF 7
ENDMDL
MODEL 10
REMARK VINA RESULT:      -8.6      4.930      8.526
REMARK  7 active torsions:
REMARK  status: ('A' for Active; 'I' for Inactive)
REMARK    1  A    between atoms: N_7  and  C_8 
REMARK    2  A    between atoms: C_8  and  C_9 
REMARK       I    between atoms: C_9  and  N_10 
REMARK    3  A    between atoms: N_10  and  C_11 
REMARK    4  A    between atoms: C_11  and  C_12 
REMARK    5  A    between atoms: C_12  and  C_13 
REMARK    6  A    between atoms: C_12  and  C_23 
REMARK    7  A    between atoms: C_26  and  O_27 
ROOT
HETATM    1  C   UNL     1     -43.022  61.479 -58.054  1.00  0.00     0.136 C 
ENDROOT
BRANCH   1   2
HETATM    2  N   UNL     1     -43.105  61.285 -56.609  1.00  0.00    -0.359 N 
HETATM    3  C   UNL     1     -44.252  60.670 -56.125  1.00  0.00     0.236 C 
HETATM    4  O   UNL     1     -45.253  60.517 -56.825  1.00  0.00    -0.272 OA
HETATM    5  H   UNL     1     -42.238  61.123 -56.096  1.00  0.00     0.162 HD
BRANCH   3   6
HETATM    6  C   UNL     1     -44.135  59.985 -54.771  1.00  0.00     0.239 C 
BRANCH   6   7
HETATM    7  N   UNL     1     -43.456  58.713 -54.777  1.00  0.00    -0.259 N 
HETATM    8  C   UNL     1     -42.107  58.575 -54.654  1.00  0.00     0.326 C 
HETATM    9  N   UNL     1     -41.816  57.236 -54.520  1.00  0.00    -0.324 N 
HETATM   10  O   UNL     1     -41.265  59.455 -54.621  1.00  0.00    -0.247 OA
HETATM   11  C   UNL     1     -43.008  56.443 -54.305  1.00  0.00     0.119 C 
HETATM   12  H   UNL     1     -40.871  56.955 -54.289  1.00  0.00     0.165 HD
HETATM   13  C   UNL     1     -43.052  55.158 -55.151  1.00  0.00     0.019 C 
HETATM   14  C   UNL     1     -44.072  57.497 -54.687  1.00  0.00     0.257 C 
HETATM   15  C   UNL     1     -43.190  56.143 -52.803  1.00  0.00     0.041 C 
HETATM   16  C   UNL     1     -42.785  55.402 -56.639  1.00  0.00     0.013 C 
HETATM   17  C   UNL     1     -42.059  54.108 -54.614  1.00  0.00     0.007 C 
HETATM   18  C   UNL     1     -42.266  53.823 -53.128  1.00  0.00     0.001 C 
HETATM   19  C   UNL     1     -42.204  55.096 -52.294  1.00  0.00     0.003 C 
HETATM   20  O   UNL     1     -45.276  57.307 -54.792  1.00  0.00    -0.270 OA
ENDBRANCH   6   7
ENDBRANCH   3   6
ENDBRANCH   1   2
BRANCH   1  21
HETATM   21  C   UNL     1     -42.073  60.541 -58.830  1.00  0.00     0.071 C 
BRANCH  21  22
HETATM   22  C   UNL     1     -41.528  61.216 -60.078  1.00  0.00    -0.020 A 
HETATM   23  C   UNL     1     -40.509  62.230 -60.140  1.00  0.00    -0.001 A 
HETATM   24  C   UNL     1     -40.331  62.570 -61.483  1.00  0.00     0.042 A 
HETATM   25  C   UNL     1     -39.716  62.891 -59.178  1.00  0.00     0.014 A 
HETATM   26  C   UNL     1     -39.405  63.529 -61.911  1.00  0.00     0.030 A 
HETATM   27  N   UNL     1     -41.202  61.803 -62.215  1.00  0.00    -0.365 N 
HETATM   28  C   UNL     1     -38.631  64.164 -60.938  1.00  0.00     0.002 A 
HETATM   29  C   UNL     1     -38.782  63.851 -59.590  1.00  0.00     0.001 A 
HETATM   30  H   UNL     1     -41.290  61.838 -63.221  1.00  0.00     0.165 HD
HETATM   31  C   UNL     1     -41.925  60.989 -61.388  1.00  0.00     0.097 A 
ENDBRANCH  21  22
BRANCH  21  32
HETATM   32  C   UNL     1     -42.663  59.232 -59.345  1.00  0.00    -0.048 A 
HETATM   33  C   UNL     1     -41.821  58.118 -59.498  1.00  0.00     0.011 A 
HETATM   34  C   UNL     1     -42.310  56.912 -60.008  1.00  0.00     0.037 A 
HETATM   35  C   UNL     1     -43.649  56.787 -60.377  1.00  0.00     0.068 A 
HETATM   36  C   UNL     1     -44.496  57.883 -60.227  1.00  0.00     0.037 A 
HETATM   37  C   UNL     1     -44.008  59.095 -59.720  1.00  0.00     0.011 A 
BRANCH  35  38
HETATM   38  O   UNL     1     -43.994  55.560 -60.870  1.00  0.00    -0.356 OA
HETATM   39  C   UNL     1     -45.382  55.268 -60.952  1.00  0.00     0.210 C 
ENDBRANCH  35  38
ENDBRANCH  21  32
ENDBRANCH   1  21
TORSDOF 7
ENDMDL
