MODEL 1
REMARK VINA RESULT:      -8.1      0.000      0.000
REMARK  4 active torsions:
REMARK  status: ('A' for Active; 'I' for Inactive)
REMARK    1  A    between atoms: O_2  and  C_3 
REMARK    2  A    between atoms: C_7  and  N_8 
REMARK       I    between atoms: N_8  and  C_9 
REMARK    3  A    between atoms: C_9  and  C_10 
REMARK    4  A    between atoms: C_12  and  C_13 
ROOT
HETATM    1  N   UNL     1     -42.202  56.981 -52.518  1.00  0.00    -0.320 N 
HETATM    2  C   UNL     1     -41.561  55.907 -51.928  1.00  0.00     0.256 C 
HETATM    3  O   UNL     1     -41.384  55.755 -50.724  1.00  0.00    -0.267 OA
HETATM    4  H   UNL     1     -42.198  57.051 -53.529  1.00  0.00     0.169 HD
ENDROOT
BRANCH   2   5
HETATM    5  C   UNL     1     -41.039  54.859 -52.860  1.00  0.00     0.033 A 
HETATM    6  C   UNL     1     -40.722  53.558 -52.437  1.00  0.00     0.029 A 
HETATM    7  C   UNL     1     -40.216  52.610 -53.342  1.00  0.00    -0.023 A 
HETATM    8  C   UNL     1     -40.009  52.995 -54.675  1.00  0.00     0.012 A 
HETATM    9  C   UNL     1     -40.306  54.292 -55.099  1.00  0.00     0.002 A 
HETATM   10  C   UNL     1     -40.818  55.220 -54.195  1.00  0.00     0.017 A 
BRANCH   7  11
HETATM   11  C   UNL     1     -39.906  51.260 -52.886  1.00  0.00    -0.002 A 
HETATM   12  C   UNL     1     -39.752  50.166 -53.716  1.00  0.00     0.153 A 
HETATM   13  O   UNL     1     -39.485  49.043 -52.999  1.00  0.00    -0.334 OA
HETATM   14  C   UNL     1     -39.470  49.405 -51.693  1.00  0.00     0.142 A 
HETATM   15  C   UNL     1     -39.724  50.751 -51.567  1.00  0.00     0.038 A 
ENDBRANCH   7  11
ENDBRANCH   2   5
BRANCH   1  16
HETATM   16  C   UNL     1     -42.867  58.045 -51.866  1.00  0.00     0.077 A 
HETATM   17  C   UNL     1     -44.231  58.075 -51.586  1.00  0.00     0.077 A 
HETATM   18  C   UNL     1     -44.795  59.192 -50.963  1.00  0.00     0.152 A 
HETATM   19  C   UNL     1     -44.018  60.300 -50.613  1.00  0.00     0.109 A 
HETATM   20  F   UNL     1     -46.112  59.159 -50.713  1.00  0.00    -0.203 F 
HETATM   21  C   UNL     1     -42.648  60.266 -50.881  1.00  0.00     0.084 A 
HETATM   22  C   UNL     1     -42.090  59.150 -51.498  1.00  0.00     0.145 A 
HETATM   23  F   UNL     1     -40.773  59.145 -51.763  1.00  0.00    -0.204 F 
BRANCH  19  24
HETATM   24  O   UNL     1     -44.441  61.457 -50.018  1.00  0.00    -0.353 OA
HETATM   25  C   UNL     1     -44.734  61.399 -48.626  1.00  0.00     0.210 C 
ENDBRANCH  19  24
ENDBRANCH   1  16
TORSDOF 4
ENDMDL
MODEL 2
REMARK VINA RESULT:      -7.9      4.815      6.504
REMARK  4 active torsions:
REMARK  status: ('A' for Active; 'I' for Inactive)
REMARK    1  A    between atoms: O_2  and  C_3 
REMARK    2  A    between atoms: C_7  and  N_8 
REMARK       I    between atoms: N_8  and  C_9 
REMARK    3  A    between atoms: C_9  and  C_10 
REMARK    4  A    between atoms: C_12  and  C_13 
ROOT
HETATM    1  N   UNL     1     -42.181  55.131 -56.172  1.00  0.00    -0.320 N 
HETATM    2  C   UNL     1     -42.754  54.701 -54.990  1.00  0.00     0.256 C 
HETATM    3  O   UNL     1     -43.926  54.859 -54.666  1.00  0.00    -0.267 OA
HETATM    4  H   UNL     1     -41.178  55.037 -56.287  1.00  0.00     0.169 HD
ENDROOT
BRANCH   2   5
HETATM    5  C   UNL     1     -41.844  53.995 -54.035  1.00  0.00     0.033 A 
HETATM    6  C   UNL     1     -41.780  54.316 -52.670  1.00  0.00     0.029 A 
HETATM    7  C   UNL     1     -40.897  53.640 -51.812  1.00  0.00    -0.023 A 
HETATM    8  C   UNL     1     -40.059  52.651 -52.350  1.00  0.00     0.012 A 
HETATM    9  C   UNL     1     -40.105  52.339 -53.710  1.00  0.00     0.002 A 
HETATM   10  C   UNL     1     -40.994  53.008 -54.549  1.00  0.00     0.017 A 
BRANCH   7  11
HETATM   11  C   UNL     1     -40.855  53.979 -50.394  1.00  0.00    -0.002 A 
HETATM   12  C   UNL     1     -41.526  55.042 -49.820  1.00  0.00     0.153 A 
HETATM   13  O   UNL     1     -41.279  55.112 -48.486  1.00  0.00    -0.334 OA
HETATM   14  C   UNL     1     -40.439  54.092 -48.187  1.00  0.00     0.142 A 
HETATM   15  C   UNL     1     -40.145  53.368 -49.320  1.00  0.00     0.038 A 
ENDBRANCH   7  11
ENDBRANCH   2   5
BRANCH   1  16
HETATM   16  C   UNL     1     -42.836  55.729 -57.274  1.00  0.00     0.077 A 
HETATM   17  C   UNL     1     -43.311  55.036 -58.385  1.00  0.00     0.077 A 
HETATM   18  C   UNL     1     -43.918  55.728 -59.437  1.00  0.00     0.152 A 
HETATM   19  C   UNL     1     -44.058  57.119 -59.408  1.00  0.00     0.109 A 
HETATM   20  F   UNL     1     -44.363  55.006 -60.475  1.00  0.00    -0.203 F 
HETATM   21  C   UNL     1     -43.592  57.814 -58.290  1.00  0.00     0.084 A 
HETATM   22  C   UNL     1     -42.992  57.119 -57.243  1.00  0.00     0.145 A 
HETATM   23  F   UNL     1     -42.536  57.809 -56.183  1.00  0.00    -0.204 F 
BRANCH  19  24
HETATM   24  O   UNL     1     -44.612  57.918 -60.370  1.00  0.00    -0.353 OA
HETATM   25  C   UNL     1     -43.905  59.106 -60.711  1.00  0.00     0.210 C 
ENDBRANCH  19  24
ENDBRANCH   1  16
TORSDOF 4
ENDMDL
MODEL 3
REMARK VINA RESULT:      -7.7      3.376      4.289
REMARK  4 active torsions:
REMARK  status: ('A' for Active; 'I' for Inactive)
REMARK    1  A    between atoms: O_2  and  C_3 
REMARK    2  A    between atoms: C_7  and  N_8 
REMARK       I    between atoms: N_8  and  C_9 
REMARK    3  A    between atoms: C_9  and  C_10 
REMARK    4  A    between atoms: C_12  and  C_13 
ROOT
HETATM    1  N   UNL     1     -42.551  55.678 -54.044  1.00  0.00    -0.320 N 
HETATM    2  C   UNL     1     -41.613  55.956 -53.067  1.00  0.00     0.256 C 
HETATM    3  O   UNL     1     -41.216  57.073 -52.755  1.00  0.00    -0.267 OA
HETATM    4  H   UNL     1     -42.725  54.710 -54.287  1.00  0.00     0.169 HD
ENDROOT
BRANCH   2   5
HETATM    5  C   UNL     1     -41.040  54.774 -52.350  1.00  0.00     0.033 A 
HETATM    6  C   UNL     1     -40.758  53.558 -52.994  1.00  0.00     0.029 A 
HETATM    7  C   UNL     1     -40.238  52.468 -52.278  1.00  0.00    -0.023 A 
HETATM    8  C   UNL     1     -40.028  52.607 -50.898  1.00  0.00     0.012 A 
HETATM    9  C   UNL     1     -40.322  53.806 -50.248  1.00  0.00     0.002 A 
HETATM   10  C   UNL     1     -40.826  54.885 -50.970  1.00  0.00     0.017 A 
BRANCH   7  11
HETATM   11  C   UNL     1     -39.939  51.218 -52.969  1.00  0.00    -0.002 A 
HETATM   12  C   UNL     1     -39.561  50.045 -52.344  1.00  0.00     0.153 A 
HETATM   13  O   UNL     1     -39.334  49.060 -53.251  1.00  0.00    -0.334 OA
HETATM   14  C   UNL     1     -39.559  49.594 -54.476  1.00  0.00     0.142 A 
HETATM   15  C   UNL     1     -39.930  50.914 -54.361  1.00  0.00     0.038 A 
ENDBRANCH   7  11
ENDBRANCH   2   5
BRANCH   1  16
HETATM   16  C   UNL     1     -43.310  56.609 -54.791  1.00  0.00     0.077 A 
HETATM   17  C   UNL     1     -44.175  57.551 -54.240  1.00  0.00     0.077 A 
HETATM   18  C   UNL     1     -44.903  58.406 -55.072  1.00  0.00     0.152 A 
HETATM   19  C   UNL     1     -44.791  58.337 -56.464  1.00  0.00     0.109 A 
HETATM   20  F   UNL     1     -45.713  59.297 -54.483  1.00  0.00    -0.203 F 
HETATM   21  C   UNL     1     -43.915  57.401 -57.018  1.00  0.00     0.084 A 
HETATM   22  C   UNL     1     -43.189  56.554 -56.185  1.00  0.00     0.145 A 
HETATM   23  F   UNL     1     -42.364  55.650 -56.739  1.00  0.00    -0.204 F 
BRANCH  19  24
HETATM   24  O   UNL     1     -45.454  59.097 -57.389  1.00  0.00    -0.353 OA
HETATM   25  C   UNL     1     -46.748  58.652 -57.784  1.00  0.00     0.210 C 
ENDBRANCH  19  24
ENDBRANCH   1  16
TORSDOF 4
ENDMDL
MODEL 4
REMARK VINA RESULT:      -7.7      3.944      5.215
REMARK  4 active torsions:
REMARK  status: ('A' for Active; 'I' for Inactive)
REMARK    1  A    between atoms: O_2  and  C_3 
REMARK    2  A    between atoms: C_7  and  N_8 
REMARK       I    between atoms: N_8  and  C_9 
REMARK    3  A    between atoms: C_9  and  C_10 
REMARK    4  A    between atoms: C_12  and  C_13 
ROOT
HETATM    1  N   UNL     1     -41.753  55.965 -54.935  1.00  0.00    -0.320 N 
HETATM    2  C   UNL     1     -41.965  56.013 -53.570  1.00  0.00     0.256 C 
HETATM    3  O   UNL     1     -42.634  56.855 -52.980  1.00  0.00    -0.267 OA
HETATM    4  H   UNL     1     -41.096  55.284 -55.300  1.00  0.00     0.169 HD
ENDROOT
BRANCH   2   5
HETATM    5  C   UNL     1     -41.303  54.941 -52.762  1.00  0.00     0.033 A 
HETATM    6  C   UNL     1     -40.981  53.681 -53.292  1.00  0.00     0.029 A 
HETATM    7  C   UNL     1     -40.376  52.697 -52.493  1.00  0.00    -0.023 A 
HETATM    8  C   UNL     1     -40.121  52.988 -51.144  1.00  0.00     0.012 A 
HETATM    9  C   UNL     1     -40.454  54.232 -50.606  1.00  0.00     0.002 A 
HETATM   10  C   UNL     1     -41.042  55.205 -51.412  1.00  0.00     0.017 A 
BRANCH   7  11
HETATM   11  C   UNL     1     -40.037  51.399 -53.066  1.00  0.00    -0.002 A 
HETATM   12  C   UNL     1     -39.620  50.302 -52.336  1.00  0.00     0.153 A 
HETATM   13  O   UNL     1     -39.362  49.246 -53.149  1.00  0.00    -0.334 OA
HETATM   14  C   UNL     1     -39.607  49.655 -54.417  1.00  0.00     0.142 A 
HETATM   15  C   UNL     1     -40.021  50.967 -54.424  1.00  0.00     0.038 A 
ENDBRANCH   7  11
ENDBRANCH   2   5
BRANCH   1  16
HETATM   16  C   UNL     1     -42.339  56.791 -55.922  1.00  0.00     0.077 A 
HETATM   17  C   UNL     1     -42.298  58.183 -55.917  1.00  0.00     0.077 A 
HETATM   18  C   UNL     1     -42.938  58.908 -56.926  1.00  0.00     0.152 A 
HETATM   19  C   UNL     1     -43.634  58.265 -57.955  1.00  0.00     0.109 A 
HETATM   20  F   UNL     1     -42.857  60.245 -56.872  1.00  0.00    -0.203 F 
HETATM   21  C   UNL     1     -43.665  56.869 -57.968  1.00  0.00     0.084 A 
HETATM   22  C   UNL     1     -43.023  56.151 -56.962  1.00  0.00     0.145 A 
HETATM   23  F   UNL     1     -43.080  54.809 -56.985  1.00  0.00    -0.204 F 
BRANCH  19  24
HETATM   24  O   UNL     1     -44.314  58.848 -58.988  1.00  0.00    -0.353 OA
HETATM   25  C   UNL     1     -43.966  58.436 -60.306  1.00  0.00     0.210 C 
ENDBRANCH  19  24
ENDBRANCH   1  16
TORSDOF 4
ENDMDL
MODEL 5
REMARK VINA RESULT:      -7.6      1.736      2.716
REMARK  4 active torsions:
REMARK  status: ('A' for Active; 'I' for Inactive)
REMARK    1  A    between atoms: O_2  and  C_3 
REMARK    2  A    between atoms: C_7  and  N_8 
REMARK       I    between atoms: N_8  and  C_9 
REMARK    3  A    between atoms: C_9  and  C_10 
REMARK    4  A    between atoms: C_12  and  C_13 
ROOT
HETATM    1  N   UNL     1     -42.240  57.014 -51.547  1.00  0.00    -0.320 N 
HETATM    2  C   UNL     1     -42.200  55.883 -52.341  1.00  0.00     0.256 C 
HETATM    3  O   UNL     1     -42.819  55.723 -53.387  1.00  0.00    -0.267 OA
HETATM    4  H   UNL     1     -41.769  56.993 -50.650  1.00  0.00     0.169 HD
ENDROOT
BRANCH   2   5
HETATM    5  C   UNL     1     -41.328  54.768 -51.855  1.00  0.00     0.033 A 
HETATM    6  C   UNL     1     -41.088  53.608 -52.610  1.00  0.00     0.029 A 
HETATM    7  C   UNL     1     -40.277  52.578 -52.107  1.00  0.00    -0.023 A 
HETATM    8  C   UNL     1     -39.730  52.716 -50.823  1.00  0.00     0.012 A 
HETATM    9  C   UNL     1     -39.979  53.858 -50.060  1.00  0.00     0.002 A 
HETATM   10  C   UNL     1     -40.775  54.879 -50.573  1.00  0.00     0.017 A 
BRANCH   7  11
HETATM   11  C   UNL     1     -40.028  51.387 -52.913  1.00  0.00    -0.002 A 
HETATM   12  C   UNL     1     -39.597  50.174 -52.411  1.00  0.00     0.153 A 
HETATM   13  O   UNL     1     -39.438  49.264 -53.406  1.00  0.00    -0.334 OA
HETATM   14  C   UNL     1     -39.763  49.886 -54.565  1.00  0.00     0.142 A 
HETATM   15  C   UNL     1     -40.129  51.189 -54.321  1.00  0.00     0.038 A 
ENDBRANCH   7  11
ENDBRANCH   2   5
BRANCH   1  16
HETATM   16  C   UNL     1     -42.900  58.233 -51.826  1.00  0.00     0.077 A 
HETATM   17  C   UNL     1     -42.312  59.325 -52.461  1.00  0.00     0.077 A 
HETATM   18  C   UNL     1     -43.045  60.498 -52.662  1.00  0.00     0.152 A 
HETATM   19  C   UNL     1     -44.371  60.611 -52.231  1.00  0.00     0.109 A 
HETATM   20  F   UNL     1     -42.428  61.512 -53.286  1.00  0.00    -0.203 F 
HETATM   21  C   UNL     1     -44.965  59.513 -51.606  1.00  0.00     0.084 A 
HETATM   22  C   UNL     1     -44.232  58.345 -51.412  1.00  0.00     0.145 A 
HETATM   23  F   UNL     1     -44.818  57.307 -50.793  1.00  0.00    -0.204 F 
BRANCH  19  24
HETATM   24  O   UNL     1     -45.192  61.698 -52.348  1.00  0.00    -0.353 OA
HETATM   25  C   UNL     1     -44.905  62.818 -51.517  1.00  0.00     0.210 C 
ENDBRANCH  19  24
ENDBRANCH   1  16
TORSDOF 4
ENDMDL
MODEL 6
REMARK VINA RESULT:      -7.6      4.934      6.382
REMARK  4 active torsions:
REMARK  status: ('A' for Active; 'I' for Inactive)
REMARK    1  A    between atoms: O_2  and  C_3 
REMARK    2  A    between atoms: C_7  and  N_8 
REMARK       I    between atoms: N_8  and  C_9 
REMARK    3  A    between atoms: C_9  and  C_10 
REMARK    4  A    between atoms: C_12  and  C_13 
ROOT
HETATM    1  N   UNL     1     -42.095  55.888 -56.417  1.00  0.00    -0.320 N 
HETATM    2  C   UNL     1     -42.656  55.524 -55.208  1.00  0.00     0.256 C 
HETATM    3  O   UNL     1     -43.732  55.919 -54.771  1.00  0.00    -0.267 OA
HETATM    4  H   UNL     1     -41.153  55.580 -56.627  1.00  0.00     0.169 HD
ENDROOT
BRANCH   2   5
HETATM    5  C   UNL     1     -41.859  54.573 -54.372  1.00  0.00     0.033 A 
HETATM    6  C   UNL     1     -41.809  54.652 -52.970  1.00  0.00     0.029 A 
HETATM    7  C   UNL     1     -41.032  53.750 -52.226  1.00  0.00    -0.023 A 
HETATM    8  C   UNL     1     -40.284  52.779 -52.910  1.00  0.00     0.012 A 
HETATM    9  C   UNL     1     -40.315  52.706 -54.303  1.00  0.00     0.002 A 
HETATM   10  C   UNL     1     -41.099  53.599 -55.031  1.00  0.00     0.017 A 
BRANCH   7  11
HETATM   11  C   UNL     1     -41.005  53.840 -50.770  1.00  0.00    -0.002 A 
HETATM   12  C   UNL     1     -41.748  54.735 -50.024  1.00  0.00     0.153 A 
HETATM   13  O   UNL     1     -41.496  54.591 -48.697  1.00  0.00    -0.334 OA
HETATM   14  C   UNL     1     -40.581  53.600 -48.575  1.00  0.00     0.142 A 
HETATM   15  C   UNL     1     -40.243  53.107 -49.814  1.00  0.00     0.038 A 
ENDBRANCH   7  11
ENDBRANCH   2   5
BRANCH   1  16
HETATM   16  C   UNL     1     -42.682  56.686 -57.427  1.00  0.00     0.077 A 
HETATM   17  C   UNL     1     -42.510  58.063 -57.549  1.00  0.00     0.077 A 
HETATM   18  C   UNL     1     -43.162  58.764 -58.568  1.00  0.00     0.152 A 
HETATM   19  C   UNL     1     -43.999  58.112 -59.479  1.00  0.00     0.109 A 
HETATM   20  F   UNL     1     -42.951  60.086 -58.640  1.00  0.00    -0.203 F 
HETATM   21  C   UNL     1     -44.162  56.730 -59.366  1.00  0.00     0.084 A 
HETATM   22  C   UNL     1     -43.508  56.036 -58.351  1.00  0.00     0.145 A 
HETATM   23  F   UNL     1     -43.692  54.709 -58.250  1.00  0.00    -0.204 F 
BRANCH  19  24
HETATM   24  O   UNL     1     -44.706  58.675 -60.507  1.00  0.00    -0.353 OA
HETATM   25  C   UNL     1     -46.096  58.892 -60.292  1.00  0.00     0.210 C 
ENDBRANCH  19  24
ENDBRANCH   1  16
TORSDOF 4
ENDMDL
MODEL 7
REMARK VINA RESULT:      -7.5      4.740      8.339
REMARK  4 active torsions:
REMARK  status: ('A' for Active; 'I' for Inactive)
REMARK    1  A    between atoms: O_2  and  C_3 
REMARK    2  A    between atoms: C_7  and  N_8 
REMARK       I    between atoms: N_8  and  C_9 
REMARK    3  A    between atoms: C_9  and  C_10 
REMARK    4  A    between atoms: C_12  and  C_13 
ROOT
HETATM    1  N   UNL     1     -41.762  54.247 -54.426  1.00  0.00    -0.320 N 
HETATM    2  C   UNL     1     -41.296  55.459 -54.901  1.00  0.00     0.256 C 
HETATM    3  O   UNL     1     -40.162  55.899 -54.745  1.00  0.00    -0.267 OA
HETATM    4  H   UNL     1     -42.747  54.035 -54.526  1.00  0.00     0.169 HD
ENDROOT
BRANCH   2   5
HETATM    5  C   UNL     1     -42.282  56.293 -55.658  1.00  0.00     0.033 A 
HETATM    6  C   UNL     1     -42.757  55.937 -56.930  1.00  0.00     0.029 A 
HETATM    7  C   UNL     1     -43.669  56.759 -57.613  1.00  0.00    -0.023 A 
HETATM    8  C   UNL     1     -44.078  57.958 -57.011  1.00  0.00     0.012 A 
HETATM    9  C   UNL     1     -43.595  58.327 -55.754  1.00  0.00     0.002 A 
HETATM   10  C   UNL     1     -42.701  57.498 -55.080  1.00  0.00     0.017 A 
BRANCH   7  11
HETATM   11  C   UNL     1     -44.162  56.365 -58.929  1.00  0.00    -0.002 A 
HETATM   12  C   UNL     1     -43.374  55.854 -59.943  1.00  0.00     0.153 A 
HETATM   13  O   UNL     1     -44.114  55.598 -61.053  1.00  0.00    -0.334 OA
HETATM   14  C   UNL     1     -45.391  55.948 -60.764  1.00  0.00     0.142 A 
HETATM   15  C   UNL     1     -45.475  56.426 -59.477  1.00  0.00     0.038 A 
ENDBRANCH   7  11
ENDBRANCH   2   5
BRANCH   1  16
HETATM   16  C   UNL     1     -41.015  53.239 -53.774  1.00  0.00     0.077 A 
HETATM   17  C   UNL     1     -40.517  52.095 -54.394  1.00  0.00     0.077 A 
HETATM   18  C   UNL     1     -39.816  51.142 -53.649  1.00  0.00     0.152 A 
HETATM   19  C   UNL     1     -39.602  51.305 -52.277  1.00  0.00     0.109 A 
HETATM   20  F   UNL     1     -39.355  50.066 -54.303  1.00  0.00    -0.203 F 
HETATM   21  C   UNL     1     -40.089  52.457 -51.657  1.00  0.00     0.084 A 
HETATM   22  C   UNL     1     -40.784  53.405 -52.404  1.00  0.00     0.145 A 
HETATM   23  F   UNL     1     -41.259  54.498 -51.784  1.00  0.00    -0.204 F 
BRANCH  19  24
HETATM   24  O   UNL     1     -38.951  50.448 -51.431  1.00  0.00    -0.353 OA
HETATM   25  C   UNL     1     -39.759  49.583 -50.640  1.00  0.00     0.210 C 
ENDBRANCH  19  24
ENDBRANCH   1  16
TORSDOF 4
ENDMDL
MODEL 8
REMARK VINA RESULT:      -7.5      3.935      5.383
REMARK  4 active torsions:
REMARK  status: ('A' for Active; 'I' for Inactive)
REMARK    1  A    between atoms: O_2  and  C_3 
REMARK    2  A    between atoms: C_7  and  N_8 
REMARK       I    between atoms: N_8  and  C_9 
REMARK    3  A    between atoms: C_9  and  C_10 
REMARK    4  A    between atoms: C_12  and  C_13 
ROOT
HETATM    1  N   UNL     1     -41.771  55.791 -54.635  1.00  0.00    -0.320 N 
HETATM    2  C   UNL     1     -42.399  55.800 -53.404  1.00  0.00     0.256 C 
HETATM    3  O   UNL     1     -43.508  56.268 -53.171  1.00  0.00    -0.267 OA
HETATM    4  H   UNL     1     -40.811  55.471 -54.687  1.00  0.00     0.169 HD
ENDROOT
BRANCH   2   5
HETATM    5  C   UNL     1     -41.635  55.189 -52.271  1.00  0.00     0.033 A 
HETATM    6  C   UNL     1     -41.232  53.844 -52.265  1.00  0.00     0.029 A 
HETATM    7  C   UNL     1     -40.532  53.307 -51.172  1.00  0.00    -0.023 A 
HETATM    8  C   UNL     1     -40.264  54.135 -50.071  1.00  0.00     0.012 A 
HETATM    9  C   UNL     1     -40.677  55.468 -50.063  1.00  0.00     0.002 A 
HETATM   10  C   UNL     1     -41.360  55.993 -51.157  1.00  0.00     0.017 A 
BRANCH   7  11
HETATM   11  C   UNL     1     -40.110  51.911 -51.191  1.00  0.00    -0.002 A 
HETATM   12  C   UNL     1     -39.518  51.284 -52.271  1.00  0.00     0.153 A 
HETATM   13  O   UNL     1     -39.256  49.980 -51.994  1.00  0.00    -0.334 OA
HETATM   14  C   UNL     1     -39.683  49.753 -50.728  1.00  0.00     0.142 A 
HETATM   15  C   UNL     1     -40.217  50.901 -50.191  1.00  0.00     0.038 A 
ENDBRANCH   7  11
ENDBRANCH   2   5
BRANCH   1  16
HETATM   16  C   UNL     1     -42.310  56.210 -55.874  1.00  0.00     0.077 A 
HETATM   17  C   UNL     1     -42.804  55.353 -56.854  1.00  0.00     0.077 A 
HETATM   18  C   UNL     1     -43.287  55.870 -58.060  1.00  0.00     0.152 A 
HETATM   19  C   UNL     1     -43.282  57.244 -58.316  1.00  0.00     0.109 A 
HETATM   20  F   UNL     1     -43.757  54.996 -58.961  1.00  0.00    -0.203 F 
HETATM   21  C   UNL     1     -42.799  58.106 -57.330  1.00  0.00     0.084 A 
HETATM   22  C   UNL     1     -42.322  57.587 -56.129  1.00  0.00     0.145 A 
HETATM   23  F   UNL     1     -41.846  58.432 -55.200  1.00  0.00    -0.204 F 
BRANCH  19  24
HETATM   24  O   UNL     1     -43.707  57.879 -59.452  1.00  0.00    -0.353 OA
HETATM   25  C   UNL     1     -45.107  58.102 -59.583  1.00  0.00     0.210 C 
ENDBRANCH  19  24
ENDBRANCH   1  16
TORSDOF 4
ENDMDL
MODEL 9
REMARK VINA RESULT:      -7.5      1.923      2.589
REMARK  4 active torsions:
REMARK  status: ('A' for Active; 'I' for Inactive)
REMARK    1  A    between atoms: O_2  and  C_3 
REMARK    2  A    between atoms: C_7  and  N_8 
REMARK       I    between atoms: N_8  and  C_9 
REMARK    3  A    between atoms: C_9  and  C_10 
REMARK    4  A    between atoms: C_12  and  C_13 
ROOT
HETATM    1  N   UNL     1     -42.228  57.049 -52.010  1.00  0.00    -0.320 N 
HETATM    2  C   UNL     1     -42.068  55.921 -52.793  1.00  0.00     0.256 C 
HETATM    3  O   UNL     1     -42.533  55.759 -53.916  1.00  0.00    -0.267 OA
HETATM    4  H   UNL     1     -41.886  57.030 -51.057  1.00  0.00     0.169 HD
ENDROOT
BRANCH   2   5
HETATM    5  C   UNL     1     -41.264  54.811 -52.192  1.00  0.00     0.033 A 
HETATM    6  C   UNL     1     -41.008  53.607 -52.869  1.00  0.00     0.029 A 
HETATM    7  C   UNL     1     -40.264  52.584 -52.259  1.00  0.00    -0.023 A 
HETATM    8  C   UNL     1     -39.800  52.776 -50.949  1.00  0.00     0.012 A 
HETATM    9  C   UNL     1     -40.066  53.963 -50.264  1.00  0.00     0.002 A 
HETATM   10  C   UNL     1     -40.795  54.976 -50.883  1.00  0.00     0.017 A 
BRANCH   7  11
HETATM   11  C   UNL     1     -39.996  51.346 -52.984  1.00  0.00    -0.002 A 
HETATM   12  C   UNL     1     -39.558  50.173 -52.401  1.00  0.00     0.153 A 
HETATM   13  O   UNL     1     -39.382  49.201 -53.334  1.00  0.00    -0.334 OA
HETATM   14  C   UNL     1     -39.702  49.744 -54.533  1.00  0.00     0.142 A 
HETATM   15  C   UNL     1     -40.083  51.057 -54.377  1.00  0.00     0.038 A 
ENDBRANCH   7  11
ENDBRANCH   2   5
BRANCH   1  16
HETATM   16  C   UNL     1     -42.851  58.265 -52.377  1.00  0.00     0.077 A 
HETATM   17  C   UNL     1     -44.211  58.531 -52.239  1.00  0.00     0.077 A 
HETATM   18  C   UNL     1     -44.733  59.756 -52.663  1.00  0.00     0.152 A 
HETATM   19  C   UNL     1     -43.916  60.736 -53.237  1.00  0.00     0.109 A 
HETATM   20  F   UNL     1     -46.048  59.958 -52.497  1.00  0.00    -0.203 F 
HETATM   21  C   UNL     1     -42.551  60.475 -53.365  1.00  0.00     0.084 A 
HETATM   22  C   UNL     1     -42.035  59.254 -52.937  1.00  0.00     0.145 A 
HETATM   23  F   UNL     1     -40.721  59.018 -53.085  1.00  0.00    -0.204 F 
BRANCH  19  24
HETATM   24  O   UNL     1     -44.296  61.963 -53.707  1.00  0.00    -0.353 OA
HETATM   25  C   UNL     1     -43.514  62.525 -54.756  1.00  0.00     0.210 C 
ENDBRANCH  19  24
ENDBRANCH   1  16
TORSDOF 4
ENDMDL
MODEL 10
REMARK VINA RESULT:      -7.4     16.314     19.447
REMARK  4 active torsions:
REMARK  status: ('A' for Active; 'I' for Inactive)
REMARK    1  A    between atoms: O_2  and  C_3 
REMARK    2  A    between atoms: C_7  and  N_8 
REMARK       I    between atoms: N_8  and  C_9 
REMARK    3  A    between atoms: C_9  and  C_10 
REMARK    4  A    between atoms: C_12  and  C_13 
ROOT
HETATM    1  N   UNL     1     -36.864  39.667 -59.386  1.00  0.00    -0.320 N 
HETATM    2  C   UNL     1     -36.943  40.980 -58.961  1.00  0.00     0.256 C 
HETATM    3  O   UNL     1     -37.520  41.887 -59.550  1.00  0.00    -0.267 OA
HETATM    4  H   UNL     1     -36.272  39.026 -58.871  1.00  0.00     0.169 HD
ENDROOT
BRANCH   2   5
HETATM    5  C   UNL     1     -36.249  41.299 -57.674  1.00  0.00     0.033 A 
HETATM    6  C   UNL     1     -34.996  40.763 -57.335  1.00  0.00     0.029 A 
HETATM    7  C   UNL     1     -34.388  41.075 -56.107  1.00  0.00    -0.023 A 
HETATM    8  C   UNL     1     -35.069  41.914 -55.213  1.00  0.00     0.012 A 
HETATM    9  C   UNL     1     -36.322  42.436 -55.536  1.00  0.00     0.002 A 
HETATM   10  C   UNL     1     -36.910  42.130 -56.761  1.00  0.00     0.017 A 
BRANCH   7  11
HETATM   11  C   UNL     1     -33.080  40.519 -55.780  1.00  0.00    -0.002 A 
HETATM   12  C   UNL     1     -32.600  40.343 -54.496  1.00  0.00     0.153 A 
HETATM   13  O   UNL     1     -31.345  39.822 -54.512  1.00  0.00    -0.334 OA
HETATM   14  C   UNL     1     -31.002  39.661 -55.813  1.00  0.00     0.142 A 
HETATM   15  C   UNL     1     -32.027  40.075 -56.632  1.00  0.00     0.038 A 
ENDBRANCH   7  11
ENDBRANCH   2   5
BRANCH   1  16
HETATM   16  C   UNL     1     -37.509  39.088 -60.504  1.00  0.00     0.077 A 
HETATM   17  C   UNL     1     -37.013  39.113 -61.805  1.00  0.00     0.077 A 
HETATM   18  C   UNL     1     -37.747  38.537 -62.846  1.00  0.00     0.152 A 
HETATM   19  C   UNL     1     -38.986  37.932 -62.615  1.00  0.00     0.109 A 
HETATM   20  F   UNL     1     -37.214  38.585 -64.076  1.00  0.00    -0.203 F 
HETATM   21  C   UNL     1     -39.478  37.895 -61.310  1.00  0.00     0.084 A 
HETATM   22  C   UNL     1     -38.742  38.467 -60.275  1.00  0.00     0.145 A 
HETATM   23  F   UNL     1     -39.242  38.436 -59.029  1.00  0.00    -0.204 F 
BRANCH  19  24
HETATM   24  O   UNL     1     -39.810  37.349 -63.539  1.00  0.00    -0.353 OA
HETATM   25  C   UNL     1     -41.170  37.770 -63.549  1.00  0.00     0.210 C 
ENDBRANCH  19  24
ENDBRANCH   1  16
TORSDOF 4
ENDMDL
