MODEL 1
REMARK VINA RESULT:      -8.7      0.000      0.000
REMARK  7 active torsions:
REMARK  status: ('A' for Active; 'I' for Inactive)
REMARK       I    between atoms: N_2  and  C_3 
REMARK    1  A    between atoms: C_3  and  C_4 
REMARK    2  A    between atoms: C_4  and  O_5 
REMARK    3  A    between atoms: O_5  and  C_6 
REMARK    4  A    between atoms: C_9  and  N_10 
REMARK    5  A    between atoms: N_10  and  C_11 
REMARK    6  A    between atoms: C_14  and  C_15 
REMARK    7  A    between atoms: C_18  and  O_19 
ROOT
HETATM    1  C   UNL     1     -41.778  56.418 -54.256  1.00  0.00     0.161 A 
HETATM    2  N   UNL     1     -40.979  55.679 -55.050  1.00  0.00    -0.131 NA
HETATM    3  N   UNL     1     -40.604  54.410 -54.705  1.00  0.00    -0.147 NA
HETATM    4  C   UNL     1     -41.058  53.852 -53.563  1.00  0.00     0.100 A 
HETATM    5  C   UNL     1     -41.950  54.537 -52.716  1.00  0.00     0.009 A 
HETATM    6  C   UNL     1     -42.327  55.856 -53.076  1.00  0.00     0.024 A 
HETATM    7  C   UNL     1     -42.503  53.967 -51.539  1.00  0.00     0.015 A 
HETATM    8  C   UNL     1     -43.390  54.673 -50.726  1.00  0.00     0.001 A 
HETATM    9  C   UNL     1     -43.762  55.960 -51.075  1.00  0.00     0.001 A 
HETATM   10  C   UNL     1     -43.245  56.540 -52.235  1.00  0.00     0.016 A 
ENDROOT
BRANCH   1  11
HETATM   11  N   UNL     1     -42.146  57.740 -54.641  1.00  0.00    -0.339 N 
HETATM   12  H   UNL     1     -41.300  58.286 -54.772  1.00  0.00     0.167 HD
BRANCH  11  13
HETATM   13  C   UNL     1     -43.081  58.158 -55.618  1.00  0.00     0.033 A 
HETATM   14  C   UNL     1     -42.581  58.694 -56.811  1.00  0.00     0.032 A 
HETATM   15  C   UNL     1     -43.439  59.083 -57.845  1.00  0.00     0.039 A 
HETATM   16  C   UNL     1     -44.819  58.931 -57.715  1.00  0.00     0.069 A 
HETATM   17  C   UNL     1     -45.330  58.396 -56.534  1.00  0.00     0.039 A 
HETATM   18  C   UNL     1     -44.466  58.008 -55.499  1.00  0.00     0.032 A 
BRANCH  16  19
HETATM   19  O   UNL     1     -45.548  59.332 -58.799  1.00  0.00    -0.342 OA
BRANCH  19  20
HETATM   20  C   UNL     1     -45.191  58.762 -60.058  1.00  0.00     0.278 C 
BRANCH  20  21
HETATM   21  C   UNL     1     -45.671  57.315 -60.169  1.00  0.00     0.241 C 
HETATM   22  N   UNL     1     -44.785  56.462 -60.790  1.00  0.00    -0.364 N 
HETATM   23  C   UNL     1     -45.030  55.048 -60.885  1.00  0.00     0.149 C 
HETATM   24  H   UNL     1     -43.854  56.827 -60.968  1.00  0.00     0.161 HD
HETATM   25  O   UNL     1     -46.768  56.958 -59.743  1.00  0.00    -0.271 OA
ENDBRANCH  20  21
ENDBRANCH  19  20
ENDBRANCH  16  19
ENDBRANCH  11  13
ENDBRANCH   1  11
BRANCH   4  26
HETATM   26  C   UNL     1     -40.532  52.500 -53.320  1.00  0.00    -0.005 A 
HETATM   27  C   UNL     1     -40.640  51.485 -54.289  1.00  0.00     0.016 A 
HETATM   28  C   UNL     1     -40.154  50.198 -54.042  1.00  0.00     0.037 A 
HETATM   29  C   UNL     1     -39.563  49.913 -52.816  1.00  0.00     0.065 A 
HETATM   30  C   UNL     1     -39.456  50.891 -51.836  1.00  0.00     0.037 A 
HETATM   31  C   UNL     1     -39.942  52.177 -52.085  1.00  0.00     0.016 A 
BRANCH  29  32
HETATM   32  O   UNL     1     -39.080  48.672 -52.530  1.00  0.00    -0.361 OA
HETATM   33  H   UNL     1     -38.406  48.440 -53.189  1.00  0.00     0.217 HD
ENDBRANCH  29  32
ENDBRANCH   4  26
TORSDOF 7
ENDMDL
MODEL 2
REMARK VINA RESULT:      -8.6      4.456      6.467
REMARK  7 active torsions:
REMARK  status: ('A' for Active; 'I' for Inactive)
REMARK       I    between atoms: N_2  and  C_3 
REMARK    1  A    between atoms: C_3  and  C_4 
REMARK    2  A    between atoms: C_4  and  O_5 
REMARK    3  A    between atoms: O_5  and  C_6 
REMARK    4  A    between atoms: C_9  and  N_10 
REMARK    5  A    between atoms: N_10  and  C_11 
REMARK    6  A    between atoms: C_14  and  C_15 
REMARK    7  A    between atoms: C_18  and  O_19 
ROOT
HETATM    1  C   UNL     1     -41.525  56.773 -53.459  1.00  0.00     0.161 A 
HETATM    2  N   UNL     1     -40.600  56.166 -54.229  1.00  0.00    -0.131 NA
HETATM    3  N   UNL     1     -40.299  54.842 -54.076  1.00  0.00    -0.147 NA
HETATM    4  C   UNL     1     -40.952  54.096 -53.160  1.00  0.00     0.100 A 
HETATM    5  C   UNL     1     -41.978  54.642 -52.365  1.00  0.00     0.009 A 
HETATM    6  C   UNL     1     -42.278  56.019 -52.524  1.00  0.00     0.024 A 
HETATM    7  C   UNL     1     -42.734  53.882 -51.435  1.00  0.00     0.015 A 
HETATM    8  C   UNL     1     -43.748  54.455 -50.668  1.00  0.00     0.001 A 
HETATM    9  C   UNL     1     -44.047  55.798 -50.821  1.00  0.00     0.001 A 
HETATM   10  C   UNL     1     -43.328  56.566 -51.739  1.00  0.00     0.016 A 
ENDROOT
BRANCH   1  11
HETATM   11  N   UNL     1     -41.813  58.156 -53.639  1.00  0.00    -0.339 N 
HETATM   12  H   UNL     1     -42.508  58.248 -54.374  1.00  0.00     0.167 HD
BRANCH  11  13
HETATM   13  C   UNL     1     -42.086  59.147 -52.666  1.00  0.00     0.033 A 
HETATM   14  C   UNL     1     -43.282  59.867 -52.787  1.00  0.00     0.032 A 
HETATM   15  C   UNL     1     -43.646  60.826 -51.837  1.00  0.00     0.039 A 
HETATM   16  C   UNL     1     -42.831  61.078 -50.735  1.00  0.00     0.069 A 
HETATM   17  C   UNL     1     -41.641  60.366 -50.601  1.00  0.00     0.039 A 
HETATM   18  C   UNL     1     -41.277  59.406 -51.556  1.00  0.00     0.032 A 
BRANCH  16  19
HETATM   19  O   UNL     1     -43.305  62.025 -49.870  1.00  0.00    -0.342 OA
BRANCH  19  20
HETATM   20  C   UNL     1     -44.672  61.907 -49.478  1.00  0.00     0.278 C 
BRANCH  20  21
HETATM   21  C   UNL     1     -44.832  62.071 -47.967  1.00  0.00     0.241 C 
HETATM   22  N   UNL     1     -44.751  60.896 -47.251  1.00  0.00    -0.364 N 
HETATM   23  C   UNL     1     -44.774  60.879 -45.812  1.00  0.00     0.149 C 
HETATM   24  H   UNL     1     -44.440  60.075 -47.761  1.00  0.00     0.161 HD
HETATM   25  O   UNL     1     -45.029  63.167 -47.447  1.00  0.00    -0.271 OA
ENDBRANCH  20  21
ENDBRANCH  19  20
ENDBRANCH  16  19
ENDBRANCH  11  13
ENDBRANCH   1  11
BRANCH   4  26
HETATM   26  C   UNL     1     -40.484  52.703 -53.095  1.00  0.00    -0.005 A 
HETATM   27  C   UNL     1     -40.604  51.835 -54.197  1.00  0.00     0.016 A 
HETATM   28  C   UNL     1     -40.173  50.508 -54.120  1.00  0.00     0.037 A 
HETATM   29  C   UNL     1     -39.627  50.034 -52.932  1.00  0.00     0.065 A 
HETATM   30  C   UNL     1     -39.509  50.863 -51.825  1.00  0.00     0.037 A 
HETATM   31  C   UNL     1     -39.940  52.189 -51.904  1.00  0.00     0.016 A 
BRANCH  29  32
HETATM   32  O   UNL     1     -39.199  48.746 -52.810  1.00  0.00    -0.361 OA
HETATM   33  H   UNL     1     -39.594  48.217 -53.522  1.00  0.00     0.217 HD
ENDBRANCH  29  32
ENDBRANCH   4  26
TORSDOF 7
ENDMDL
MODEL 3
REMARK VINA RESULT:      -8.5      4.519      7.003
REMARK  7 active torsions:
REMARK  status: ('A' for Active; 'I' for Inactive)
REMARK       I    between atoms: N_2  and  C_3 
REMARK    1  A    between atoms: C_3  and  C_4 
REMARK    2  A    between atoms: C_4  and  O_5 
REMARK    3  A    between atoms: O_5  and  C_6 
REMARK    4  A    between atoms: C_9  and  N_10 
REMARK    5  A    between atoms: N_10  and  C_11 
REMARK    6  A    between atoms: C_14  and  C_15 
REMARK    7  A    between atoms: C_18  and  O_19 
ROOT
HETATM    1  C   UNL     1     -41.771  56.933 -52.526  1.00  0.00     0.161 A 
HETATM    2  N   UNL     1     -41.022  56.313 -51.593  1.00  0.00    -0.131 NA
HETATM    3  N   UNL     1     -40.650  55.005 -51.730  1.00  0.00    -0.147 NA
HETATM    4  C   UNL     1     -41.000  54.307 -52.831  1.00  0.00     0.100 A 
HETATM    5  C   UNL     1     -41.723  54.906 -53.880  1.00  0.00     0.009 A 
HETATM    6  C   UNL     1     -42.114  56.261 -53.726  1.00  0.00     0.024 A 
HETATM    7  C   UNL     1     -42.059  54.232 -55.083  1.00  0.00     0.015 A 
HETATM    8  C   UNL     1     -42.771  54.859 -56.105  1.00  0.00     0.001 A 
HETATM    9  C   UNL     1     -43.153  56.183 -55.960  1.00  0.00     0.001 A 
HETATM   10  C   UNL     1     -42.824  56.874 -54.794  1.00  0.00     0.016 A 
ENDROOT
BRANCH   1  11
HETATM   11  N   UNL     1     -42.148  58.296 -52.353  1.00  0.00    -0.339 N 
HETATM   12  H   UNL     1     -42.210  58.733 -53.267  1.00  0.00     0.167 HD
BRANCH  11  13
HETATM   13  C   UNL     1     -43.174  58.844 -51.547  1.00  0.00     0.033 A 
HETATM   14  C   UNL     1     -42.910  60.053 -50.888  1.00  0.00     0.032 A 
HETATM   15  C   UNL     1     -43.890  60.683 -50.114  1.00  0.00     0.039 A 
HETATM   16  C   UNL     1     -45.162  60.126 -49.992  1.00  0.00     0.069 A 
HETATM   17  C   UNL     1     -45.439  58.927 -50.645  1.00  0.00     0.039 A 
HETATM   18  C   UNL     1     -44.453  58.297 -51.419  1.00  0.00     0.032 A 
BRANCH  16  19
HETATM   19  O   UNL     1     -46.035  60.845 -49.223  1.00  0.00    -0.342 OA
BRANCH  19  20
HETATM   20  C   UNL     1     -45.545  61.317 -47.969  1.00  0.00     0.278 C 
BRANCH  20  21
HETATM   21  C   UNL     1     -46.362  60.755 -46.806  1.00  0.00     0.241 C 
HETATM   22  N   UNL     1     -46.181  59.409 -46.576  1.00  0.00    -0.364 N 
HETATM   23  C   UNL     1     -46.790  58.740 -45.457  1.00  0.00     0.149 C 
HETATM   24  H   UNL     1     -45.423  58.961 -47.081  1.00  0.00     0.161 HD
HETATM   25  O   UNL     1     -47.123  61.458 -46.144  1.00  0.00    -0.271 OA
ENDBRANCH  20  21
ENDBRANCH  19  20
ENDBRANCH  16  19
ENDBRANCH  11  13
ENDBRANCH   1  11
BRANCH   4  26
HETATM   26  C   UNL     1     -40.555  52.906 -52.805  1.00  0.00    -0.005 A 
HETATM   27  C   UNL     1     -40.106  52.299 -51.616  1.00  0.00     0.016 A 
HETATM   28  C   UNL     1     -39.667  50.972 -51.605  1.00  0.00     0.037 A 
HETATM   29  C   UNL     1     -39.663  50.243 -52.789  1.00  0.00     0.065 A 
HETATM   30  C   UNL     1     -40.087  50.820 -53.979  1.00  0.00     0.037 A 
HETATM   31  C   UNL     1     -40.525  52.145 -53.987  1.00  0.00     0.016 A 
BRANCH  29  32
HETATM   32  O   UNL     1     -39.239  48.949 -52.826  1.00  0.00    -0.361 OA
HETATM   33  H   UNL     1     -39.665  48.502 -53.575  1.00  0.00     0.217 HD
ENDBRANCH  29  32
ENDBRANCH   4  26
TORSDOF 7
ENDMDL
MODEL 4
REMARK VINA RESULT:      -7.9     15.345     19.113
REMARK  7 active torsions:
REMARK  status: ('A' for Active; 'I' for Inactive)
REMARK       I    between atoms: N_2  and  C_3 
REMARK    1  A    between atoms: C_3  and  C_4 
REMARK    2  A    between atoms: C_4  and  O_5 
REMARK    3  A    between atoms: O_5  and  C_6 
REMARK    4  A    between atoms: C_9  and  N_10 
REMARK    5  A    between atoms: N_10  and  C_11 
REMARK    6  A    between atoms: C_14  and  C_15 
REMARK    7  A    between atoms: C_18  and  O_19 
ROOT
HETATM    1  C   UNL     1     -36.086  41.188 -53.111  1.00  0.00     0.161 A 
HETATM    2  N   UNL     1     -35.155  41.150 -54.084  1.00  0.00    -0.131 NA
HETATM    3  N   UNL     1     -35.502  41.056 -55.403  1.00  0.00    -0.147 NA
HETATM    4  C   UNL     1     -36.802  41.030 -55.765  1.00  0.00     0.100 A 
HETATM    5  C   UNL     1     -37.832  41.134 -54.812  1.00  0.00     0.009 A 
HETATM    6  C   UNL     1     -37.464  41.222 -53.445  1.00  0.00     0.024 A 
HETATM    7  C   UNL     1     -39.210  41.175 -55.151  1.00  0.00     0.015 A 
HETATM    8  C   UNL     1     -40.204  41.285 -54.179  1.00  0.00     0.001 A 
HETATM    9  C   UNL     1     -39.849  41.375 -52.843  1.00  0.00     0.001 A 
HETATM   10  C   UNL     1     -38.501  41.351 -52.482  1.00  0.00     0.016 A 
ENDROOT
BRANCH   1  11
HETATM   11  N   UNL     1     -35.693  41.282 -51.745  1.00  0.00    -0.339 N 
HETATM   12  H   UNL     1     -36.524  41.419 -51.178  1.00  0.00     0.167 HD
BRANCH  11  13
HETATM   13  C   UNL     1     -34.806  40.457 -51.012  1.00  0.00     0.033 A 
HETATM   14  C   UNL     1     -33.471  40.869 -50.905  1.00  0.00     0.032 A 
HETATM   15  C   UNL     1     -32.547  40.134 -50.156  1.00  0.00     0.039 A 
HETATM   16  C   UNL     1     -32.938  38.978 -49.483  1.00  0.00     0.069 A 
HETATM   17  C   UNL     1     -34.264  38.559 -49.578  1.00  0.00     0.039 A 
HETATM   18  C   UNL     1     -35.188  39.298 -50.332  1.00  0.00     0.032 A 
BRANCH  16  19
HETATM   19  O   UNL     1     -31.948  38.360 -48.772  1.00  0.00    -0.342 OA
BRANCH  19  20
HETATM   20  C   UNL     1     -31.947  38.568 -47.360  1.00  0.00     0.278 C 
BRANCH  20  21
HETATM   21  C   UNL     1     -30.696  39.324 -46.911  1.00  0.00     0.241 C 
HETATM   22  N   UNL     1     -30.651  39.609 -45.563  1.00  0.00    -0.364 N 
HETATM   23  C   UNL     1     -29.501  40.220 -44.953  1.00  0.00     0.149 C 
HETATM   24  H   UNL     1     -31.355  39.163 -44.982  1.00  0.00     0.161 HD
HETATM   25  O   UNL     1     -29.815  39.655 -47.701  1.00  0.00    -0.271 OA
ENDBRANCH  20  21
ENDBRANCH  19  20
ENDBRANCH  16  19
ENDBRANCH  11  13
ENDBRANCH   1  11
BRANCH   4  26
HETATM   26  C   UNL     1     -37.005  40.887 -57.215  1.00  0.00    -0.005 A 
HETATM   27  C   UNL     1     -37.195  39.625 -57.810  1.00  0.00     0.016 A 
HETATM   28  C   UNL     1     -37.368  39.497 -59.191  1.00  0.00     0.037 A 
HETATM   29  C   UNL     1     -37.341  40.634 -59.992  1.00  0.00     0.065 A 
HETATM   30  C   UNL     1     -37.142  41.890 -59.434  1.00  0.00     0.037 A 
HETATM   31  C   UNL     1     -36.969  42.015 -58.054  1.00  0.00     0.016 A 
BRANCH  29  32
HETATM   32  O   UNL     1     -37.501  40.556 -61.342  1.00  0.00    -0.361 OA
HETATM   33  H   UNL     1     -38.377  40.903 -61.574  1.00  0.00     0.217 HD
ENDBRANCH  29  32
ENDBRANCH   4  26
TORSDOF 7
ENDMDL
MODEL 5
REMARK VINA RESULT:      -7.9      3.317      9.701
REMARK  7 active torsions:
REMARK  status: ('A' for Active; 'I' for Inactive)
REMARK       I    between atoms: N_2  and  C_3 
REMARK    1  A    between atoms: C_3  and  C_4 
REMARK    2  A    between atoms: C_4  and  O_5 
REMARK    3  A    between atoms: O_5  and  C_6 
REMARK    4  A    between atoms: C_9  and  N_10 
REMARK    5  A    between atoms: N_10  and  C_11 
REMARK    6  A    between atoms: C_14  and  C_15 
REMARK    7  A    between atoms: C_18  and  O_19 
ROOT
HETATM    1  C   UNL     1     -42.368  58.422 -56.223  1.00  0.00     0.161 A 
HETATM    2  N   UNL     1     -42.017  59.687 -55.922  1.00  0.00    -0.131 NA
HETATM    3  N   UNL     1     -41.616  60.567 -56.888  1.00  0.00    -0.147 NA
HETATM    4  C   UNL     1     -41.595  60.193 -58.185  1.00  0.00     0.100 A 
HETATM    5  C   UNL     1     -42.012  58.910 -58.585  1.00  0.00     0.009 A 
HETATM    6  C   UNL     1     -42.417  57.999 -57.576  1.00  0.00     0.024 A 
HETATM    7  C   UNL     1     -42.067  58.494 -59.941  1.00  0.00     0.015 A 
HETATM    8  C   UNL     1     -42.492  57.215 -60.302  1.00  0.00     0.001 A 
HETATM    9  C   UNL     1     -42.891  56.324 -59.321  1.00  0.00     0.001 A 
HETATM   10  C   UNL     1     -42.861  56.711 -57.980  1.00  0.00     0.016 A 
ENDROOT
BRANCH   1  11
HETATM   11  N   UNL     1     -42.776  57.526 -55.193  1.00  0.00    -0.339 N 
HETATM   12  H   UNL     1     -43.791  57.501 -55.170  1.00  0.00     0.167 HD
BRANCH  11  13
HETATM   13  C   UNL     1     -42.310  56.220 -54.908  1.00  0.00     0.033 A 
HETATM   14  C   UNL     1     -43.263  55.199 -54.791  1.00  0.00     0.032 A 
HETATM   15  C   UNL     1     -42.878  53.875 -54.561  1.00  0.00     0.039 A 
HETATM   16  C   UNL     1     -41.530  53.537 -54.456  1.00  0.00     0.069 A 
HETATM   17  C   UNL     1     -40.572  54.541 -54.575  1.00  0.00     0.039 A 
HETATM   18  C   UNL     1     -40.961  55.869 -54.804  1.00  0.00     0.032 A 
BRANCH  16  19
HETATM   19  O   UNL     1     -41.282  52.208 -54.248  1.00  0.00    -0.342 OA
BRANCH  19  20
HETATM   20  C   UNL     1     -39.916  51.797 -54.288  1.00  0.00     0.278 C 
BRANCH  20  21
HETATM   21  C   UNL     1     -39.678  50.574 -53.402  1.00  0.00     0.241 C 
HETATM   22  N   UNL     1     -39.537  50.855 -52.061  1.00  0.00    -0.364 N 
HETATM   23  C   UNL     1     -39.413  49.815 -51.075  1.00  0.00     0.149 C 
HETATM   24  H   UNL     1     -39.758  51.803 -51.771  1.00  0.00     0.161 HD
HETATM   25  O   UNL     1     -39.609  49.437 -53.866  1.00  0.00    -0.271 OA
ENDBRANCH  20  21
ENDBRANCH  19  20
ENDBRANCH  16  19
ENDBRANCH  11  13
ENDBRANCH   1  11
BRANCH   4  26
HETATM   26  C   UNL     1     -41.104  61.243 -59.091  1.00  0.00    -0.005 A 
HETATM   27  C   UNL     1     -40.052  62.102 -58.719  1.00  0.00     0.016 A 
HETATM   28  C   UNL     1     -39.605  63.109 -59.579  1.00  0.00     0.037 A 
HETATM   29  C   UNL     1     -40.216  63.271 -60.818  1.00  0.00     0.065 A 
HETATM   30  C   UNL     1     -41.265  62.448 -61.205  1.00  0.00     0.037 A 
HETATM   31  C   UNL     1     -41.709  61.442 -60.344  1.00  0.00     0.016 A 
BRANCH  29  32
HETATM   32  O   UNL     1     -39.816  64.242 -61.686  1.00  0.00    -0.361 OA
HETATM   33  H   UNL     1     -39.867  63.893 -62.590  1.00  0.00     0.217 HD
ENDBRANCH  29  32
ENDBRANCH   4  26
TORSDOF 7
ENDMDL
MODEL 6
REMARK VINA RESULT:      -7.9     15.568     17.447
REMARK  7 active torsions:
REMARK  status: ('A' for Active; 'I' for Inactive)
REMARK       I    between atoms: N_2  and  C_3 
REMARK    1  A    between atoms: C_3  and  C_4 
REMARK    2  A    between atoms: C_4  and  O_5 
REMARK    3  A    between atoms: O_5  and  C_6 
REMARK    4  A    between atoms: C_9  and  N_10 
REMARK    5  A    between atoms: N_10  and  C_11 
REMARK    6  A    between atoms: C_14  and  C_15 
REMARK    7  A    between atoms: C_18  and  O_19 
ROOT
HETATM    1  C   UNL     1     -34.910  41.730 -53.490  1.00  0.00     0.161 A 
HETATM    2  N   UNL     1     -35.359  41.934 -52.236  1.00  0.00    -0.131 NA
HETATM    3  N   UNL     1     -34.836  41.257 -51.170  1.00  0.00    -0.147 NA
HETATM    4  C   UNL     1     -33.824  40.382 -51.349  1.00  0.00     0.100 A 
HETATM    5  C   UNL     1     -33.256  40.165 -52.618  1.00  0.00     0.009 A 
HETATM    6  C   UNL     1     -33.810  40.865 -53.720  1.00  0.00     0.024 A 
HETATM    7  C   UNL     1     -32.151  39.304 -52.844  1.00  0.00     0.015 A 
HETATM    8  C   UNL     1     -31.609  39.119 -54.115  1.00  0.00     0.001 A 
HETATM    9  C   UNL     1     -32.145  39.802 -55.194  1.00  0.00     0.001 A 
HETATM   10  C   UNL     1     -33.224  40.666 -54.999  1.00  0.00     0.016 A 
ENDROOT
BRANCH   1  11
HETATM   11  N   UNL     1     -35.480  42.447 -54.581  1.00  0.00    -0.339 N 
HETATM   12  H   UNL     1     -34.767  43.054 -54.976  1.00  0.00     0.167 HD
BRANCH  11  13
HETATM   13  C   UNL     1     -36.272  41.967 -55.650  1.00  0.00     0.033 A 
HETATM   14  C   UNL     1     -35.827  42.217 -56.955  1.00  0.00     0.032 A 
HETATM   15  C   UNL     1     -36.528  41.731 -58.064  1.00  0.00     0.039 A 
HETATM   16  C   UNL     1     -37.683  40.970 -57.893  1.00  0.00     0.069 A 
HETATM   17  C   UNL     1     -38.135  40.711 -56.601  1.00  0.00     0.039 A 
HETATM   18  C   UNL     1     -37.430  41.201 -55.492  1.00  0.00     0.032 A 
BRANCH  16  19
HETATM   19  O   UNL     1     -38.267  40.540 -59.052  1.00  0.00    -0.342 OA
BRANCH  19  20
HETATM   20  C   UNL     1     -37.439  40.510 -60.214  1.00  0.00     0.278 C 
BRANCH  20  21
HETATM   21  C   UNL     1     -37.797  39.333 -61.121  1.00  0.00     0.241 C 
HETATM   22  N   UNL     1     -37.117  39.304 -62.319  1.00  0.00    -0.364 N 
HETATM   23  C   UNL     1     -37.253  38.211 -63.245  1.00  0.00     0.149 C 
HETATM   24  H   UNL     1     -36.345  39.956 -62.417  1.00  0.00     0.161 HD
HETATM   25  O   UNL     1     -38.636  38.494 -60.800  1.00  0.00    -0.271 OA
ENDBRANCH  20  21
ENDBRANCH  19  20
ENDBRANCH  16  19
ENDBRANCH  11  13
ENDBRANCH   1  11
BRANCH   4  26
HETATM   26  C   UNL     1     -33.403  39.710 -50.109  1.00  0.00    -0.005 A 
HETATM   27  C   UNL     1     -34.217  38.747 -49.482  1.00  0.00     0.016 A 
HETATM   28  C   UNL     1     -33.817  38.127 -48.295  1.00  0.00     0.037 A 
HETATM   29  C   UNL     1     -32.600  38.476 -47.718  1.00  0.00     0.065 A 
HETATM   30  C   UNL     1     -31.784  39.432 -48.307  1.00  0.00     0.037 A 
HETATM   31  C   UNL     1     -32.186  40.049 -49.493  1.00  0.00     0.016 A 
BRANCH  29  32
HETATM   32  O   UNL     1     -32.173  37.902 -46.559  1.00  0.00    -0.361 OA
HETATM   33  H   UNL     1     -32.012  36.958 -46.719  1.00  0.00     0.217 HD
ENDBRANCH  29  32
ENDBRANCH   4  26
TORSDOF 7
ENDMDL
MODEL 7
REMARK VINA RESULT:      -7.9      2.886      4.533
REMARK  7 active torsions:
REMARK  status: ('A' for Active; 'I' for Inactive)
REMARK       I    between atoms: N_2  and  C_3 
REMARK    1  A    between atoms: C_3  and  C_4 
REMARK    2  A    between atoms: C_4  and  O_5 
REMARK    3  A    between atoms: O_5  and  C_6 
REMARK    4  A    between atoms: C_9  and  N_10 
REMARK    5  A    between atoms: N_10  and  C_11 
REMARK    6  A    between atoms: C_14  and  C_15 
REMARK    7  A    between atoms: C_18  and  O_19 
ROOT
HETATM    1  C   UNL     1     -42.474  56.208 -56.702  1.00  0.00     0.161 A 
HETATM    2  N   UNL     1     -42.581  54.957 -56.213  1.00  0.00    -0.131 NA
HETATM    3  N   UNL     1     -42.448  54.697 -54.878  1.00  0.00    -0.147 NA
HETATM    4  C   UNL     1     -42.237  55.705 -54.005  1.00  0.00     0.100 A 
HETATM    5  C   UNL     1     -42.181  57.046 -54.431  1.00  0.00     0.009 A 
HETATM    6  C   UNL     1     -42.310  57.306 -55.819  1.00  0.00     0.024 A 
HETATM    7  C   UNL     1     -42.025  58.142 -53.543  1.00  0.00     0.015 A 
HETATM    8  C   UNL     1     -41.981  59.459 -54.000  1.00  0.00     0.001 A 
HETATM    9  C   UNL     1     -42.109  59.718 -55.354  1.00  0.00     0.001 A 
HETATM   10  C   UNL     1     -42.278  58.660 -56.249  1.00  0.00     0.016 A 
ENDROOT
BRANCH   1  11
HETATM   11  N   UNL     1     -42.612  56.447 -58.100  1.00  0.00    -0.339 N 
HETATM   12  H   UNL     1     -41.774  56.114 -58.568  1.00  0.00     0.167 HD
BRANCH  11  13
HETATM   13  C   UNL     1     -43.712  56.177 -58.948  1.00  0.00     0.033 A 
HETATM   14  C   UNL     1     -44.528  57.254 -59.318  1.00  0.00     0.032 A 
HETATM   15  C   UNL     1     -45.605  57.078 -60.193  1.00  0.00     0.039 A 
HETATM   16  C   UNL     1     -45.882  55.822 -60.731  1.00  0.00     0.069 A 
HETATM   17  C   UNL     1     -45.076  54.743 -60.374  1.00  0.00     0.039 A 
HETATM   18  C   UNL     1     -43.998  54.924 -59.495  1.00  0.00     0.032 A 
BRANCH  16  19
HETATM   19  O   UNL     1     -46.949  55.783 -61.586  1.00  0.00    -0.342 OA
BRANCH  19  20
HETATM   20  C   UNL     1     -47.930  56.808 -61.433  1.00  0.00     0.278 C 
BRANCH  20  21
HETATM   21  C   UNL     1     -48.725  57.012 -62.723  1.00  0.00     0.241 C 
HETATM   22  N   UNL     1     -49.408  58.207 -62.792  1.00  0.00    -0.364 N 
HETATM   23  C   UNL     1     -50.120  58.608 -63.976  1.00  0.00     0.149 C 
HETATM   24  H   UNL     1     -49.198  58.891 -62.072  1.00  0.00     0.161 HD
HETATM   25  O   UNL     1     -48.752  56.165 -63.613  1.00  0.00    -0.271 OA
ENDBRANCH  20  21
ENDBRANCH  19  20
ENDBRANCH  16  19
ENDBRANCH  11  13
ENDBRANCH   1  11
BRANCH   4  26
HETATM   26  C   UNL     1     -42.079  55.254 -52.614  1.00  0.00    -0.005 A 
HETATM   27  C   UNL     1     -40.806  55.018 -52.058  1.00  0.00     0.016 A 
HETATM   28  C   UNL     1     -40.666  54.572 -50.741  1.00  0.00     0.037 A 
HETATM   29  C   UNL     1     -41.803  54.346 -49.971  1.00  0.00     0.065 A 
HETATM   30  C   UNL     1     -43.070  54.555 -50.498  1.00  0.00     0.037 A 
HETATM   31  C   UNL     1     -43.207  55.002 -51.814  1.00  0.00     0.016 A 
BRANCH  29  32
HETATM   32  O   UNL     1     -41.714  53.905 -48.685  1.00  0.00    -0.361 OA
HETATM   33  H   UNL     1     -41.834  52.942 -48.676  1.00  0.00     0.217 HD
ENDBRANCH  29  32
ENDBRANCH   4  26
TORSDOF 7
ENDMDL
MODEL 8
REMARK VINA RESULT:      -7.8      3.388      4.561
REMARK  7 active torsions:
REMARK  status: ('A' for Active; 'I' for Inactive)
REMARK       I    between atoms: N_2  and  C_3 
REMARK    1  A    between atoms: C_3  and  C_4 
REMARK    2  A    between atoms: C_4  and  O_5 
REMARK    3  A    between atoms: O_5  and  C_6 
REMARK    4  A    between atoms: C_9  and  N_10 
REMARK    5  A    between atoms: N_10  and  C_11 
REMARK    6  A    between atoms: C_14  and  C_15 
REMARK    7  A    between atoms: C_18  and  O_19 
ROOT
HETATM    1  C   UNL     1     -41.183  56.752 -53.761  1.00  0.00     0.161 A 
HETATM    2  N   UNL     1     -40.969  55.868 -54.755  1.00  0.00    -0.131 NA
HETATM    3  N   UNL     1     -40.679  54.558 -54.496  1.00  0.00    -0.147 NA
HETATM    4  C   UNL     1     -40.631  54.109 -53.224  1.00  0.00     0.100 A 
HETATM    5  C   UNL     1     -40.911  54.956 -52.135  1.00  0.00     0.009 A 
HETATM    6  C   UNL     1     -41.202  56.316 -52.412  1.00  0.00     0.024 A 
HETATM    7  C   UNL     1     -40.936  54.514 -50.787  1.00  0.00     0.015 A 
HETATM    8  C   UNL     1     -41.223  55.382 -49.733  1.00  0.00     0.001 A 
HETATM    9  C   UNL     1     -41.510  56.710 -49.998  1.00  0.00     0.001 A 
HETATM   10  C   UNL     1     -41.507  57.169 -51.316  1.00  0.00     0.016 A 
ENDROOT
BRANCH   1  11
HETATM   11  N   UNL     1     -41.478  58.113 -54.063  1.00  0.00    -0.339 N 
HETATM   12  H   UNL     1     -41.074  58.338 -54.967  1.00  0.00     0.167 HD
BRANCH  11  13
HETATM   13  C   UNL     1     -42.709  58.804 -53.961  1.00  0.00     0.033 A 
HETATM   14  C   UNL     1     -42.669  60.158 -53.601  1.00  0.00     0.032 A 
HETATM   15  C   UNL     1     -43.838  60.921 -53.528  1.00  0.00     0.039 A 
HETATM   16  C   UNL     1     -45.075  60.353 -53.828  1.00  0.00     0.069 A 
HETATM   17  C   UNL     1     -45.129  59.009 -54.192  1.00  0.00     0.039 A 
HETATM   18  C   UNL     1     -43.955  58.246 -54.262  1.00  0.00     0.032 A 
BRANCH  16  19
HETATM   19  O   UNL     1     -46.139  61.207 -53.737  1.00  0.00    -0.342 OA
BRANCH  19  20
HETATM   20  C   UNL     1     -46.324  61.869 -52.487  1.00  0.00     0.278 C 
BRANCH  20  21
HETATM   21  C   UNL     1     -47.760  62.370 -52.330  1.00  0.00     0.241 C 
HETATM   22  N   UNL     1     -48.668  61.787 -53.187  1.00  0.00    -0.364 N 
HETATM   23  C   UNL     1     -50.077  62.063 -53.104  1.00  0.00     0.149 C 
HETATM   24  H   UNL     1     -48.340  60.986 -53.717  1.00  0.00     0.161 HD
HETATM   25  O   UNL     1     -48.063  63.233 -51.509  1.00  0.00    -0.271 OA
ENDBRANCH  20  21
ENDBRANCH  19  20
ENDBRANCH  16  19
ENDBRANCH  11  13
ENDBRANCH   1  11
BRANCH   4  26
HETATM   26  C   UNL     1     -40.269  52.687 -53.116  1.00  0.00    -0.005 A 
HETATM   27  C   UNL     1     -40.420  51.805 -54.203  1.00  0.00     0.016 A 
HETATM   28  C   UNL     1     -40.091  50.452 -54.086  1.00  0.00     0.037 A 
HETATM   29  C   UNL     1     -39.617  49.967 -52.872  1.00  0.00     0.065 A 
HETATM   30  C   UNL     1     -39.471  50.810 -51.779  1.00  0.00     0.037 A 
HETATM   31  C   UNL     1     -39.800  52.162 -51.899  1.00  0.00     0.016 A 
BRANCH  29  32
HETATM   32  O   UNL     1     -39.288  48.654 -52.711  1.00  0.00    -0.361 OA
HETATM   33  H   UNL     1     -38.947  48.526 -51.811  1.00  0.00     0.217 HD
ENDBRANCH  29  32
ENDBRANCH   4  26
TORSDOF 7
ENDMDL
MODEL 9
REMARK VINA RESULT:      -7.8      5.049      9.968
REMARK  7 active torsions:
REMARK  status: ('A' for Active; 'I' for Inactive)
REMARK       I    between atoms: N_2  and  C_3 
REMARK    1  A    between atoms: C_3  and  C_4 
REMARK    2  A    between atoms: C_4  and  O_5 
REMARK    3  A    between atoms: O_5  and  C_6 
REMARK    4  A    between atoms: C_9  and  N_10 
REMARK    5  A    between atoms: N_10  and  C_11 
REMARK    6  A    between atoms: C_14  and  C_15 
REMARK    7  A    between atoms: C_18  and  O_19 
ROOT
HETATM    1  C   UNL     1     -44.662  58.076 -51.584  1.00  0.00     0.161 A 
HETATM    2  N   UNL     1     -45.570  58.038 -50.588  1.00  0.00    -0.131 NA
HETATM    3  N   UNL     1     -45.859  59.145 -49.842  1.00  0.00    -0.147 NA
HETATM    4  C   UNL     1     -45.260  60.325 -50.110  1.00  0.00     0.100 A 
HETATM    5  C   UNL     1     -44.353  60.460 -51.178  1.00  0.00     0.009 A 
HETATM    6  C   UNL     1     -44.050  59.304 -51.942  1.00  0.00     0.024 A 
HETATM    7  C   UNL     1     -43.747  61.692 -51.537  1.00  0.00     0.015 A 
HETATM    8  C   UNL     1     -42.857  61.791 -52.606  1.00  0.00     0.001 A 
HETATM    9  C   UNL     1     -42.560  60.666 -53.356  1.00  0.00     0.001 A 
HETATM   10  C   UNL     1     -43.152  59.443 -53.034  1.00  0.00     0.016 A 
ENDROOT
BRANCH   1  11
HETATM   11  N   UNL     1     -44.378  56.903 -52.340  1.00  0.00    -0.339 N 
HETATM   12  H   UNL     1     -44.262  57.167 -53.314  1.00  0.00     0.167 HD
BRANCH  11  13
HETATM   13  C   UNL     1     -43.456  55.865 -52.066  1.00  0.00     0.033 A 
HETATM   14  C   UNL     1     -42.810  55.879 -50.823  1.00  0.00     0.032 A 
HETATM   15  C   UNL     1     -41.923  54.860 -50.458  1.00  0.00     0.039 A 
HETATM   16  C   UNL     1     -41.674  53.795 -51.321  1.00  0.00     0.069 A 
HETATM   17  C   UNL     1     -42.314  53.766 -52.559  1.00  0.00     0.039 A 
HETATM   18  C   UNL     1     -43.201  54.790 -52.922  1.00  0.00     0.032 A 
BRANCH  16  19
HETATM   19  O   UNL     1     -40.803  52.856 -50.843  1.00  0.00    -0.342 OA
BRANCH  19  20
HETATM   20  C   UNL     1     -39.609  52.648 -51.595  1.00  0.00     0.278 C 
BRANCH  20  21
HETATM   21  C   UNL     1     -39.577  51.250 -52.213  1.00  0.00     0.241 C 
HETATM   22  N   UNL     1     -39.754  51.223 -53.580  1.00  0.00    -0.364 N 
HETATM   23  C   UNL     1     -39.647  50.004 -54.336  1.00  0.00     0.149 C 
HETATM   24  H   UNL     1     -39.727  52.118 -54.058  1.00  0.00     0.161 HD
HETATM   25  O   UNL     1     -39.419  50.239 -51.532  1.00  0.00    -0.271 OA
ENDBRANCH  20  21
ENDBRANCH  19  20
ENDBRANCH  16  19
ENDBRANCH  11  13
ENDBRANCH   1  11
BRANCH   4  26
HETATM   26  C   UNL     1     -45.652  61.405 -49.193  1.00  0.00    -0.005 A 
HETATM   27  C   UNL     1     -45.122  61.494 -47.892  1.00  0.00     0.016 A 
HETATM   28  C   UNL     1     -45.514  62.514 -47.020  1.00  0.00     0.037 A 
HETATM   29  C   UNL     1     -46.453  63.450 -47.442  1.00  0.00     0.065 A 
HETATM   30  C   UNL     1     -47.004  63.379 -48.715  1.00  0.00     0.037 A 
HETATM   31  C   UNL     1     -46.609  62.359 -49.583  1.00  0.00     0.016 A 
BRANCH  29  32
HETATM   32  O   UNL     1     -46.869  64.458 -46.625  1.00  0.00    -0.361 OA
HETATM   33  H   UNL     1     -47.806  64.321 -46.413  1.00  0.00     0.217 HD
ENDBRANCH  29  32
ENDBRANCH   4  26
TORSDOF 7
ENDMDL
MODEL 10
REMARK VINA RESULT:      -7.8      1.561      2.252
REMARK  7 active torsions:
REMARK  status: ('A' for Active; 'I' for Inactive)
REMARK       I    between atoms: N_2  and  C_3 
REMARK    1  A    between atoms: C_3  and  C_4 
REMARK    2  A    between atoms: C_4  and  O_5 
REMARK    3  A    between atoms: O_5  and  C_6 
REMARK    4  A    between atoms: C_9  and  N_10 
REMARK    5  A    between atoms: N_10  and  C_11 
REMARK    6  A    between atoms: C_14  and  C_15 
REMARK    7  A    between atoms: C_18  and  O_19 
ROOT
HETATM    1  C   UNL     1     -42.010  56.309 -54.433  1.00  0.00     0.161 A 
HETATM    2  N   UNL     1     -41.254  55.544 -55.245  1.00  0.00    -0.131 NA
HETATM    3  N   UNL     1     -40.833  54.300 -54.868  1.00  0.00    -0.147 NA
HETATM    4  C   UNL     1     -41.196  53.791 -53.672  1.00  0.00     0.100 A 
HETATM    5  C   UNL     1     -42.040  54.501 -52.798  1.00  0.00     0.009 A 
HETATM    6  C   UNL     1     -42.465  55.795 -53.192  1.00  0.00     0.024 A 
HETATM    7  C   UNL     1     -42.500  53.981 -51.560  1.00  0.00     0.015 A 
HETATM    8  C   UNL     1     -43.342  54.711 -50.721  1.00  0.00     0.001 A 
HETATM    9  C   UNL     1     -43.761  55.974 -51.103  1.00  0.00     0.001 A 
HETATM   10  C   UNL     1     -43.336  56.505 -52.322  1.00  0.00     0.016 A 
ENDROOT
BRANCH   1  11
HETATM   11  N   UNL     1     -42.429  57.604 -54.853  1.00  0.00    -0.339 N 
HETATM   12  H   UNL     1     -41.761  58.288 -54.508  1.00  0.00     0.167 HD
BRANCH  11  13
HETATM   13  C   UNL     1     -42.858  58.034 -56.131  1.00  0.00     0.033 A 
HETATM   14  C   UNL     1     -44.116  57.605 -56.574  1.00  0.00     0.032 A 
HETATM   15  C   UNL     1     -44.632  58.027 -57.804  1.00  0.00     0.039 A 
HETATM   16  C   UNL     1     -43.908  58.901 -58.613  1.00  0.00     0.069 A 
HETATM   17  C   UNL     1     -42.658  59.339 -58.183  1.00  0.00     0.039 A 
HETATM   18  C   UNL     1     -42.142  58.912 -56.950  1.00  0.00     0.032 A 
BRANCH  16  19
HETATM   19  O   UNL     1     -44.527  59.252 -59.781  1.00  0.00    -0.342 OA
BRANCH  19  20
HETATM   20  C   UNL     1     -43.684  59.471 -60.911  1.00  0.00     0.278 C 
BRANCH  20  21
HETATM   21  C   UNL     1     -44.181  60.644 -61.757  1.00  0.00     0.241 C 
HETATM   22  N   UNL     1     -45.375  60.417 -62.407  1.00  0.00    -0.364 N 
HETATM   23  C   UNL     1     -46.040  61.448 -63.159  1.00  0.00     0.149 C 
HETATM   24  H   UNL     1     -45.880  59.576 -62.145  1.00  0.00     0.161 HD
HETATM   25  O   UNL     1     -43.551  61.695 -61.849  1.00  0.00    -0.271 OA
ENDBRANCH  20  21
ENDBRANCH  19  20
ENDBRANCH  16  19
ENDBRANCH  11  13
ENDBRANCH   1  11
BRANCH   4  26
HETATM   26  C   UNL     1     -40.629  52.460 -53.403  1.00  0.00    -0.005 A 
HETATM   27  C   UNL     1     -40.726  51.417 -54.344  1.00  0.00     0.016 A 
HETATM   28  C   UNL     1     -40.200  50.150 -54.072  1.00  0.00     0.037 A 
HETATM   29  C   UNL     1     -39.582  49.915 -52.849  1.00  0.00     0.065 A 
HETATM   30  C   UNL     1     -39.485  50.921 -51.897  1.00  0.00     0.037 A 
HETATM   31  C   UNL     1     -40.010  52.185 -52.171  1.00  0.00     0.016 A 
BRANCH  29  32
HETATM   32  O   UNL     1     -39.060  48.695 -52.539  1.00  0.00    -0.361 OA
HETATM   33  H   UNL     1     -38.161  48.818 -52.195  1.00  0.00     0.217 HD
ENDBRANCH  29  32
ENDBRANCH   4  26
TORSDOF 7
ENDMDL
