MODEL 1
REMARK VINA RESULT:      -7.4      0.000      0.000
REMARK  7 active torsions:
REMARK  status: ('A' for Active; 'I' for Inactive)
REMARK    1  A    between atoms: C_6  and  C_7 
REMARK       I    between atoms: C_7  and  N_8 
REMARK    2  A    between atoms: N_8  and  N_9 
REMARK       I    between atoms: N_9  and  C_10 
REMARK    3  A    between atoms: C_10  and  C_11 
REMARK    4  A    between atoms: C_11  and  C_12 
REMARK    5  A    between atoms: C_12  and  C_13 
REMARK    6  A    between atoms: C_13  and  O_14 
REMARK    7  A    between atoms: O_14  and  C_15 
ROOT
HETATM    1  N   UNL     1     -42.372  56.334 -56.566  1.00  0.00    -0.267 N 
HETATM    2  C   UNL     1     -42.683  56.932 -55.360  1.00  0.00     0.236 C 
HETATM    3  O   UNL     1     -43.766  57.459 -55.125  1.00  0.00    -0.272 OA
HETATM    4  H   UNL     1     -41.550  55.747 -56.693  1.00  0.00     0.190 HD
ENDROOT
BRANCH   2   5
HETATM    5  C   UNL     1     -41.528  56.894 -54.381  1.00  0.00     0.107 C 
BRANCH   5   6
HETATM    6  C   UNL     1     -41.947  57.068 -52.925  1.00  0.00     0.036 C 
BRANCH   6   7
HETATM    7  C   UNL     1     -41.344  56.006 -52.002  1.00  0.00     0.176 C 
BRANCH   7   8
HETATM    8  O   UNL     1     -41.991  54.770 -52.292  1.00  0.00    -0.349 OA
BRANCH   8   9
HETATM    9  C   UNL     1     -41.250  53.663 -52.594  1.00  0.00     0.090 A 
HETATM   10  C   UNL     1     -40.309  52.965 -51.822  1.00  0.00     0.069 A 
HETATM   11 CL   UNL     1     -39.874  53.356 -50.195  1.00  0.00    -0.081 Cl
HETATM   12  C   UNL     1     -39.682  51.822 -52.345  1.00  0.00     0.050 A 
HETATM   13  C   UNL     1     -39.997  51.364 -53.620  1.00  0.00     0.035 A 
HETATM   14 CL   UNL     1     -39.232  49.953 -54.239  1.00  0.00    -0.084 Cl
HETATM   15  C   UNL     1     -40.938  52.034 -54.391  1.00  0.00     0.026 A 
HETATM   16  C   UNL     1     -41.558  53.172 -53.875  1.00  0.00     0.040 A 
ENDBRANCH   8   9
ENDBRANCH   7   8
ENDBRANCH   6   7
ENDBRANCH   5   6
ENDBRANCH   2   5
BRANCH   1  17
HETATM   17  N   UNL     1     -43.380  56.195 -57.521  1.00  0.00    -0.262 N 
HETATM   18  C   UNL     1     -43.187  56.691 -58.795  1.00  0.00     0.290 C 
HETATM   19  O   UNL     1     -42.178  57.316 -59.121  1.00  0.00    -0.264 OA
HETATM   20  H   UNL     1     -44.186  55.602 -57.316  1.00  0.00     0.190 HD
BRANCH  18  21
HETATM   21  C   UNL     1     -44.295  56.400 -59.713  1.00  0.00     0.147 A 
HETATM   22  N   UNL     1     -44.145  55.601 -60.790  1.00  0.00    -0.169 NA
HETATM   23  N   UNL     1     -45.363  55.579 -61.357  1.00  0.00    -0.282 N 
HETATM   24  C   UNL     1     -46.294  56.330 -60.694  1.00  0.00     0.026 A 
HETATM   25  H   UNL     1     -45.490  55.026 -62.199  1.00  0.00     0.189 HD
HETATM   26  C   UNL     1     -47.699  56.444 -61.140  1.00  0.00     0.070 C 
HETATM   27  C   UNL     1     -45.627  56.880 -59.622  1.00  0.00     0.065 A 
ENDBRANCH  18  21
ENDBRANCH   1  17
TORSDOF 7
ENDMDL
MODEL 2
REMARK VINA RESULT:      -7.1      2.353      2.803
REMARK  7 active torsions:
REMARK  status: ('A' for Active; 'I' for Inactive)
REMARK    1  A    between atoms: C_6  and  C_7 
REMARK       I    between atoms: C_7  and  N_8 
REMARK    2  A    between atoms: N_8  and  N_9 
REMARK       I    between atoms: N_9  and  C_10 
REMARK    3  A    between atoms: C_10  and  C_11 
REMARK    4  A    between atoms: C_11  and  C_12 
REMARK    5  A    between atoms: C_12  and  C_13 
REMARK    6  A    between atoms: C_13  and  O_14 
REMARK    7  A    between atoms: O_14  and  C_15 
ROOT
HETATM    1  N   UNL     1     -44.060  55.674 -53.896  1.00  0.00    -0.267 N 
HETATM    2  C   UNL     1     -43.361  56.232 -52.844  1.00  0.00     0.236 C 
HETATM    3  O   UNL     1     -42.462  57.055 -52.990  1.00  0.00    -0.272 OA
HETATM    4  H   UNL     1     -44.915  55.136 -53.765  1.00  0.00     0.190 HD
ENDROOT
BRANCH   2   5
HETATM    5  C   UNL     1     -43.805  55.690 -51.501  1.00  0.00     0.107 C 
BRANCH   5   6
HETATM    6  C   UNL     1     -43.154  54.362 -51.126  1.00  0.00     0.036 C 
BRANCH   6   7
HETATM    7  C   UNL     1     -41.877  54.539 -50.301  1.00  0.00     0.176 C 
BRANCH   7   8
HETATM    8  O   UNL     1     -40.778  54.526 -51.208  1.00  0.00    -0.349 OA
BRANCH   8   9
HETATM    9  C   UNL     1     -40.447  53.376 -51.867  1.00  0.00     0.090 A 
HETATM   10  C   UNL     1     -40.180  52.092 -51.368  1.00  0.00     0.069 A 
HETATM   11 CL   UNL     1     -40.249  51.640 -49.701  1.00  0.00    -0.081 Cl
HETATM   12  C   UNL     1     -39.881  51.044 -52.255  1.00  0.00     0.050 A 
HETATM   13  C   UNL     1     -39.862  51.264 -53.628  1.00  0.00     0.035 A 
HETATM   14 CL   UNL     1     -39.509  49.966 -54.700  1.00  0.00    -0.084 Cl
HETATM   15  C   UNL     1     -40.139  52.525 -54.139  1.00  0.00     0.026 A 
HETATM   16  C   UNL     1     -40.432  53.569 -53.260  1.00  0.00     0.040 A 
ENDBRANCH   8   9
ENDBRANCH   7   8
ENDBRANCH   6   7
ENDBRANCH   5   6
ENDBRANCH   2   5
BRANCH   1  17
HETATM   17  N   UNL     1     -43.834  56.164 -55.183  1.00  0.00    -0.262 N 
HETATM   18  C   UNL     1     -43.127  55.403 -56.091  1.00  0.00     0.290 C 
HETATM   19  O   UNL     1     -42.621  54.318 -55.800  1.00  0.00    -0.264 OA
HETATM   20  H   UNL     1     -44.318  57.011 -55.488  1.00  0.00     0.190 HD
BRANCH  18  21
HETATM   21  C   UNL     1     -43.039  56.008 -57.426  1.00  0.00     0.147 A 
HETATM   22  N   UNL     1     -43.464  55.367 -58.534  1.00  0.00    -0.169 NA
HETATM   23  N   UNL     1     -43.226  56.238 -59.530  1.00  0.00    -0.282 N 
HETATM   24  C   UNL     1     -42.666  57.413 -59.113  1.00  0.00     0.026 A 
HETATM   25  H   UNL     1     -43.475  55.965 -60.475  1.00  0.00     0.189 HD
HETATM   26  C   UNL     1     -42.326  58.514 -60.040  1.00  0.00     0.070 C 
HETATM   27  C   UNL     1     -42.527  57.291 -57.748  1.00  0.00     0.065 A 
ENDBRANCH  18  21
ENDBRANCH   1  17
TORSDOF 7
ENDMDL
MODEL 3
REMARK VINA RESULT:      -7.1      1.368      2.637
REMARK  7 active torsions:
REMARK  status: ('A' for Active; 'I' for Inactive)
REMARK    1  A    between atoms: C_6  and  C_7 
REMARK       I    between atoms: C_7  and  N_8 
REMARK    2  A    between atoms: N_8  and  N_9 
REMARK       I    between atoms: N_9  and  C_10 
REMARK    3  A    between atoms: C_10  and  C_11 
REMARK    4  A    between atoms: C_11  and  C_12 
REMARK    5  A    between atoms: C_12  and  C_13 
REMARK    6  A    between atoms: C_13  and  O_14 
REMARK    7  A    between atoms: O_14  and  C_15 
ROOT
HETATM    1  N   UNL     1     -42.194  55.942 -56.818  1.00  0.00    -0.267 N 
HETATM    2  C   UNL     1     -42.522  55.963 -55.476  1.00  0.00     0.236 C 
HETATM    3  O   UNL     1     -43.677  55.999 -55.063  1.00  0.00    -0.272 OA
HETATM    4  H   UNL     1     -41.255  55.731 -57.152  1.00  0.00     0.190 HD
ENDROOT
BRANCH   2   5
HETATM    5  C   UNL     1     -41.299  55.969 -54.582  1.00  0.00     0.107 C 
BRANCH   5   6
HETATM    6  C   UNL     1     -40.412  54.739 -54.741  1.00  0.00     0.036 C 
BRANCH   6   7
HETATM    7  C   UNL     1     -41.157  53.430 -54.466  1.00  0.00     0.176 C 
BRANCH   7   8
HETATM    8  O   UNL     1     -42.001  53.648 -53.340  1.00  0.00    -0.349 OA
BRANCH   8   9
HETATM    9  C   UNL     1     -41.487  53.585 -52.075  1.00  0.00     0.090 A 
HETATM   10  C   UNL     1     -40.456  52.786 -51.556  1.00  0.00     0.069 A 
HETATM   11 CL   UNL     1     -39.524  51.652 -52.469  1.00  0.00    -0.081 Cl
HETATM   12  C   UNL     1     -40.079  52.916 -50.210  1.00  0.00     0.050 A 
HETATM   13  C   UNL     1     -40.709  53.844 -49.385  1.00  0.00     0.035 A 
HETATM   14 CL   UNL     1     -40.224  54.000 -47.743  1.00  0.00    -0.084 Cl
HETATM   15  C   UNL     1     -41.719  54.653 -49.888  1.00  0.00     0.026 A 
HETATM   16  C   UNL     1     -42.098  54.522 -51.224  1.00  0.00     0.040 A 
ENDBRANCH   8   9
ENDBRANCH   7   8
ENDBRANCH   6   7
ENDBRANCH   5   6
ENDBRANCH   2   5
BRANCH   1  17
HETATM   17  N   UNL     1     -43.221  55.818 -57.755  1.00  0.00    -0.262 N 
HETATM   18  C   UNL     1     -43.332  56.742 -58.774  1.00  0.00     0.290 C 
HETATM   19  O   UNL     1     -42.595  57.725 -58.865  1.00  0.00    -0.264 OA
HETATM   20  H   UNL     1     -43.788  54.969 -57.767  1.00  0.00     0.190 HD
BRANCH  18  21
HETATM   21  C   UNL     1     -44.405  56.440 -59.729  1.00  0.00     0.147 A 
HETATM   22  N   UNL     1     -44.229  55.593 -60.763  1.00  0.00    -0.169 NA
HETATM   23  N   UNL     1     -45.421  55.577 -61.383  1.00  0.00    -0.282 N 
HETATM   24  C   UNL     1     -46.360  56.376 -60.794  1.00  0.00     0.026 A 
HETATM   25  H   UNL     1     -45.525  54.992 -62.207  1.00  0.00     0.189 HD
HETATM   26  C   UNL     1     -47.741  56.505 -61.307  1.00  0.00     0.070 C 
HETATM   27  C   UNL     1     -45.727  56.955 -59.717  1.00  0.00     0.065 A 
ENDBRANCH  18  21
ENDBRANCH   1  17
TORSDOF 7
ENDMDL
MODEL 4
REMARK VINA RESULT:      -7.1      1.496      1.667
REMARK  7 active torsions:
REMARK  status: ('A' for Active; 'I' for Inactive)
REMARK    1  A    between atoms: C_6  and  C_7 
REMARK       I    between atoms: C_7  and  N_8 
REMARK    2  A    between atoms: N_8  and  N_9 
REMARK       I    between atoms: N_9  and  C_10 
REMARK    3  A    between atoms: C_10  and  C_11 
REMARK    4  A    between atoms: C_11  and  C_12 
REMARK    5  A    between atoms: C_12  and  C_13 
REMARK    6  A    between atoms: C_13  and  O_14 
REMARK    7  A    between atoms: O_14  and  C_15 
ROOT
HETATM    1  N   UNL     1     -43.286  56.614 -54.930  1.00  0.00    -0.267 N 
HETATM    2  C   UNL     1     -44.055  57.338 -54.041  1.00  0.00     0.236 C 
HETATM    3  O   UNL     1     -45.053  57.972 -54.371  1.00  0.00    -0.272 OA
HETATM    4  H   UNL     1     -42.574  55.950 -54.629  1.00  0.00     0.190 HD
ENDROOT
BRANCH   2   5
HETATM    5  C   UNL     1     -43.509  57.288 -52.629  1.00  0.00     0.107 C 
BRANCH   5   6
HETATM    6  C   UNL     1     -43.479  55.886 -52.029  1.00  0.00     0.036 C 
BRANCH   6   7
HETATM    7  C   UNL     1     -42.184  55.595 -51.266  1.00  0.00     0.176 C 
BRANCH   7   8
HETATM    8  O   UNL     1     -41.150  55.420 -52.230  1.00  0.00    -0.349 OA
BRANCH   8   9
HETATM    9  C   UNL     1     -40.696  54.166 -52.527  1.00  0.00     0.090 A 
HETATM   10  C   UNL     1     -40.145  53.182 -51.693  1.00  0.00     0.069 A 
HETATM   11 CL   UNL     1     -39.935  53.333 -49.984  1.00  0.00    -0.081 Cl
HETATM   12  C   UNL     1     -39.767  51.940 -52.229  1.00  0.00     0.050 A 
HETATM   13  C   UNL     1     -39.949  51.669 -53.582  1.00  0.00     0.035 A 
HETATM   14 CL   UNL     1     -39.494  50.137 -54.219  1.00  0.00    -0.084 Cl
HETATM   15  C   UNL     1     -40.508  52.627 -54.418  1.00  0.00     0.026 A 
HETATM   16  C   UNL     1     -40.879  53.863 -53.888  1.00  0.00     0.040 A 
ENDBRANCH   8   9
ENDBRANCH   7   8
ENDBRANCH   6   7
ENDBRANCH   5   6
ENDBRANCH   2   5
BRANCH   1  17
HETATM   17  N   UNL     1     -43.735  56.478 -56.245  1.00  0.00    -0.262 N 
HETATM   18  C   UNL     1     -43.150  57.225 -57.247  1.00  0.00     0.290 C 
HETATM   19  O   UNL     1     -42.279  58.067 -57.029  1.00  0.00    -0.264 OA
HETATM   20  H   UNL     1     -44.384  55.724 -56.477  1.00  0.00     0.190 HD
BRANCH  18  21
HETATM   21  C   UNL     1     -43.666  56.918 -58.587  1.00  0.00     0.147 A 
HETATM   22  N   UNL     1     -43.805  57.865 -59.538  1.00  0.00    -0.169 NA
HETATM   23  N   UNL     1     -44.286  57.197 -60.600  1.00  0.00    -0.282 N 
HETATM   24  C   UNL     1     -44.465  55.861 -60.378  1.00  0.00     0.026 A 
HETATM   25  H   UNL     1     -44.469  57.720 -61.452  1.00  0.00     0.189 HD
HETATM   26  C   UNL     1     -44.979  54.936 -61.411  1.00  0.00     0.070 C 
HETATM   27  C   UNL     1     -44.074  55.649 -59.074  1.00  0.00     0.065 A 
ENDBRANCH  18  21
ENDBRANCH   1  17
TORSDOF 7
ENDMDL
MODEL 5
REMARK VINA RESULT:      -7.1      4.048      6.685
REMARK  7 active torsions:
REMARK  status: ('A' for Active; 'I' for Inactive)
REMARK    1  A    between atoms: C_6  and  C_7 
REMARK       I    between atoms: C_7  and  N_8 
REMARK    2  A    between atoms: N_8  and  N_9 
REMARK       I    between atoms: N_9  and  C_10 
REMARK    3  A    between atoms: C_10  and  C_11 
REMARK    4  A    between atoms: C_11  and  C_12 
REMARK    5  A    between atoms: C_12  and  C_13 
REMARK    6  A    between atoms: C_13  and  O_14 
REMARK    7  A    between atoms: O_14  and  C_15 
ROOT
HETATM    1  N   UNL     1     -41.939  55.438 -54.329  1.00  0.00    -0.267 N 
HETATM    2  C   UNL     1     -43.273  55.668 -54.603  1.00  0.00     0.236 C 
HETATM    3  O   UNL     1     -44.137  54.800 -54.534  1.00  0.00    -0.272 OA
HETATM    4  H   UNL     1     -41.262  56.191 -54.212  1.00  0.00     0.190 HD
ENDROOT
BRANCH   2   5
HETATM    5  C   UNL     1     -43.537  57.098 -55.027  1.00  0.00     0.107 C 
BRANCH   5   6
HETATM    6  C   UNL     1     -43.699  58.068 -53.861  1.00  0.00     0.036 C 
BRANCH   6   7
HETATM    7  C   UNL     1     -44.408  57.439 -52.660  1.00  0.00     0.176 C 
BRANCH   7   8
HETATM    8  O   UNL     1     -43.636  57.742 -51.501  1.00  0.00    -0.349 OA
BRANCH   8   9
HETATM    9  C   UNL     1     -42.787  56.807 -50.980  1.00  0.00     0.090 A 
HETATM   10  C   UNL     1     -41.444  56.921 -50.591  1.00  0.00     0.069 A 
HETATM   11 CL   UNL     1     -40.511  58.375 -50.657  1.00  0.00    -0.081 Cl
HETATM   12  C   UNL     1     -40.774  55.811 -50.051  1.00  0.00     0.050 A 
HETATM   13  C   UNL     1     -41.437  54.598 -49.883  1.00  0.00     0.035 A 
HETATM   14 CL   UNL     1     -40.605  53.253 -49.205  1.00  0.00    -0.084 Cl
HETATM   15  C   UNL     1     -42.770  54.474 -50.248  1.00  0.00     0.026 A 
HETATM   16  C   UNL     1     -43.436  55.574 -50.789  1.00  0.00     0.040 A 
ENDBRANCH   8   9
ENDBRANCH   7   8
ENDBRANCH   6   7
ENDBRANCH   5   6
ENDBRANCH   2   5
BRANCH   1  17
HETATM   17  N   UNL     1     -41.568  54.194 -53.816  1.00  0.00    -0.262 N 
HETATM   18  C   UNL     1     -40.547  53.484 -54.415  1.00  0.00     0.290 C 
HETATM   19  O   UNL     1     -39.978  53.870 -55.437  1.00  0.00    -0.264 OA
HETATM   20  H   UNL     1     -41.949  53.888 -52.919  1.00  0.00     0.190 HD
BRANCH  18  21
HETATM   21  C   UNL     1     -40.211  52.235 -53.721  1.00  0.00     0.147 A 
HETATM   22  N   UNL     1     -40.115  51.056 -54.369  1.00  0.00    -0.169 NA
HETATM   23  N   UNL     1     -39.789  50.177 -53.407  1.00  0.00    -0.282 N 
HETATM   24  C   UNL     1     -39.670  50.735 -52.165  1.00  0.00     0.026 A 
HETATM   25  H   UNL     1     -39.659  49.205 -53.670  1.00  0.00     0.189 HD
HETATM   26  C   UNL     1     -39.314  49.952 -50.963  1.00  0.00     0.070 C 
HETATM   27  C   UNL     1     -39.945  52.074 -52.337  1.00  0.00     0.065 A 
ENDBRANCH  18  21
ENDBRANCH   1  17
TORSDOF 7
ENDMDL
MODEL 6
REMARK VINA RESULT:      -7.0      5.591      8.283
REMARK  7 active torsions:
REMARK  status: ('A' for Active; 'I' for Inactive)
REMARK    1  A    between atoms: C_6  and  C_7 
REMARK       I    between atoms: C_7  and  N_8 
REMARK    2  A    between atoms: N_8  and  N_9 
REMARK       I    between atoms: N_9  and  C_10 
REMARK    3  A    between atoms: C_10  and  C_11 
REMARK    4  A    between atoms: C_11  and  C_12 
REMARK    5  A    between atoms: C_12  and  C_13 
REMARK    6  A    between atoms: C_13  and  O_14 
REMARK    7  A    between atoms: O_14  and  C_15 
ROOT
HETATM    1  N   UNL     1     -43.895  59.103 -51.086  1.00  0.00    -0.267 N 
HETATM    2  C   UNL     1     -44.516  57.893 -51.325  1.00  0.00     0.236 C 
HETATM    3  O   UNL     1     -45.291  57.363 -50.534  1.00  0.00    -0.272 OA
HETATM    4  H   UNL     1     -43.401  59.621 -51.812  1.00  0.00     0.190 HD
ENDROOT
BRANCH   2   5
HETATM    5  C   UNL     1     -44.108  57.284 -52.650  1.00  0.00     0.107 C 
BRANCH   5   6
HETATM    6  C   UNL     1     -43.372  55.955 -52.518  1.00  0.00     0.036 C 
BRANCH   6   7
HETATM    7  C   UNL     1     -42.015  55.954 -53.225  1.00  0.00     0.176 C 
BRANCH   7   8
HETATM    8  O   UNL     1     -41.080  55.324 -52.354  1.00  0.00    -0.349 OA
BRANCH   8   9
HETATM    9  C   UNL     1     -40.635  54.061 -52.626  1.00  0.00     0.090 A 
HETATM   10  C   UNL     1     -40.140  53.070 -51.763  1.00  0.00     0.069 A 
HETATM   11 CL   UNL     1     -40.007  53.226 -50.047  1.00  0.00    -0.081 Cl
HETATM   12  C   UNL     1     -39.760  51.819 -52.277  1.00  0.00     0.050 A 
HETATM   13  C   UNL     1     -39.884  51.546 -53.635  1.00  0.00     0.035 A 
HETATM   14 CL   UNL     1     -39.428  50.003 -54.245  1.00  0.00    -0.084 Cl
HETATM   15  C   UNL     1     -40.387  52.509 -54.500  1.00  0.00     0.026 A 
HETATM   16  C   UNL     1     -40.760  53.754 -53.992  1.00  0.00     0.040 A 
ENDBRANCH   8   9
ENDBRANCH   7   8
ENDBRANCH   6   7
ENDBRANCH   5   6
ENDBRANCH   2   5
BRANCH   1  17
HETATM   17  N   UNL     1     -44.264  59.832 -49.955  1.00  0.00    -0.262 N 
HETATM   18  C   UNL     1     -45.261  60.783 -50.050  1.00  0.00     0.290 C 
HETATM   19  O   UNL     1     -45.808  61.071 -51.115  1.00  0.00    -0.264 OA
HETATM   20  H   UNL     1     -43.903  59.556 -49.041  1.00  0.00     0.190 HD
BRANCH  18  21
HETATM   21  C   UNL     1     -45.600  61.410 -48.767  1.00  0.00     0.147 A 
HETATM   22  N   UNL     1     -46.809  61.962 -48.534  1.00  0.00    -0.169 NA
HETATM   23  N   UNL     1     -46.729  62.411 -47.270  1.00  0.00    -0.282 N 
HETATM   24  C   UNL     1     -45.520  62.175 -46.676  1.00  0.00     0.026 A 
HETATM   25  H   UNL     1     -47.542  62.871 -46.873  1.00  0.00     0.189 HD
HETATM   26  C   UNL     1     -45.216  62.580 -45.287  1.00  0.00     0.070 C 
HETATM   27  C   UNL     1     -44.763  61.529 -47.628  1.00  0.00     0.065 A 
ENDBRANCH  18  21
ENDBRANCH   1  17
TORSDOF 7
ENDMDL
MODEL 7
REMARK VINA RESULT:      -7.0      1.635      2.047
REMARK  7 active torsions:
REMARK  status: ('A' for Active; 'I' for Inactive)
REMARK    1  A    between atoms: C_6  and  C_7 
REMARK       I    between atoms: C_7  and  N_8 
REMARK    2  A    between atoms: N_8  and  N_9 
REMARK       I    between atoms: N_9  and  C_10 
REMARK    3  A    between atoms: C_10  and  C_11 
REMARK    4  A    between atoms: C_11  and  C_12 
REMARK    5  A    between atoms: C_12  and  C_13 
REMARK    6  A    between atoms: C_13  and  O_14 
REMARK    7  A    between atoms: O_14  and  C_15 
ROOT
HETATM    1  N   UNL     1     -43.978  55.929 -57.764  1.00  0.00    -0.267 N 
HETATM    2  C   UNL     1     -43.285  56.635 -56.800  1.00  0.00     0.236 C 
HETATM    3  O   UNL     1     -43.317  57.858 -56.704  1.00  0.00    -0.272 OA
HETATM    4  H   UNL     1     -44.093  54.917 -57.730  1.00  0.00     0.190 HD
ENDROOT
BRANCH   2   5
HETATM    5  C   UNL     1     -42.462  55.733 -55.903  1.00  0.00     0.107 C 
BRANCH   5   6
HETATM    6  C   UNL     1     -41.659  56.483 -54.845  1.00  0.00     0.036 C 
BRANCH   6   7
HETATM    7  C   UNL     1     -40.545  55.631 -54.231  1.00  0.00     0.176 C 
BRANCH   7   8
HETATM    8  O   UNL     1     -41.147  54.772 -53.268  1.00  0.00    -0.349 OA
BRANCH   8   9
HETATM    9  C   UNL     1     -40.633  53.525 -53.046  1.00  0.00     0.090 A 
HETATM   10  C   UNL     1     -40.063  52.974 -51.888  1.00  0.00     0.069 A 
HETATM   11 CL   UNL     1     -39.904  53.792 -50.373  1.00  0.00    -0.081 Cl
HETATM   12  C   UNL     1     -39.619  51.641 -51.892  1.00  0.00     0.050 A 
HETATM   13  C   UNL     1     -39.753  50.855 -53.032  1.00  0.00     0.035 A 
HETATM   14 CL   UNL     1     -39.219  49.220 -53.013  1.00  0.00    -0.084 Cl
HETATM   15  C   UNL     1     -40.330  51.380 -54.180  1.00  0.00     0.026 A 
HETATM   16  C   UNL     1     -40.767  52.705 -54.180  1.00  0.00     0.040 A 
ENDBRANCH   8   9
ENDBRANCH   7   8
ENDBRANCH   6   7
ENDBRANCH   5   6
ENDBRANCH   2   5
BRANCH   1  17
HETATM   17  N   UNL     1     -44.867  56.620 -58.588  1.00  0.00    -0.262 N 
HETATM   18  C   UNL     1     -45.309  56.038 -59.758  1.00  0.00     0.290 C 
HETATM   19  O   UNL     1     -44.903  54.944 -60.153  1.00  0.00    -0.264 OA
HETATM   20  H   UNL     1     -45.298  57.482 -58.248  1.00  0.00     0.190 HD
BRANCH  18  21
HETATM   21  C   UNL     1     -46.302  56.844 -60.479  1.00  0.00     0.147 A 
HETATM   22  N   UNL     1     -46.241  58.191 -60.520  1.00  0.00    -0.169 NA
HETATM   23  N   UNL     1     -47.299  58.546 -61.269  1.00  0.00    -0.282 N 
HETATM   24  C   UNL     1     -48.041  57.488 -61.714  1.00  0.00     0.026 A 
HETATM   25  H   UNL     1     -47.455  59.535 -61.440  1.00  0.00     0.189 HD
HETATM   26  C   UNL     1     -49.244  57.649 -62.558  1.00  0.00     0.070 C 
HETATM   27  C   UNL     1     -47.419  56.366 -61.212  1.00  0.00     0.065 A 
ENDBRANCH  18  21
ENDBRANCH   1  17
TORSDOF 7
ENDMDL
MODEL 8
REMARK VINA RESULT:      -6.9      1.289      1.662
REMARK  7 active torsions:
REMARK  status: ('A' for Active; 'I' for Inactive)
REMARK    1  A    between atoms: C_6  and  C_7 
REMARK       I    between atoms: C_7  and  N_8 
REMARK    2  A    between atoms: N_8  and  N_9 
REMARK       I    between atoms: N_9  and  C_10 
REMARK    3  A    between atoms: C_10  and  C_11 
REMARK    4  A    between atoms: C_11  and  C_12 
REMARK    5  A    between atoms: C_12  and  C_13 
REMARK    6  A    between atoms: C_13  and  O_14 
REMARK    7  A    between atoms: O_14  and  C_15 
ROOT
HETATM    1  N   UNL     1     -42.242  57.493 -56.248  1.00  0.00    -0.267 N 
HETATM    2  C   UNL     1     -42.678  57.905 -55.004  1.00  0.00     0.236 C 
HETATM    3  O   UNL     1     -43.858  58.106 -54.733  1.00  0.00    -0.272 OA
HETATM    4  H   UNL     1     -41.294  57.157 -56.416  1.00  0.00     0.190 HD
ENDROOT
BRANCH   2   5
HETATM    5  C   UNL     1     -41.536  58.112 -54.030  1.00  0.00     0.107 C 
BRANCH   5   6
HETATM    6  C   UNL     1     -41.737  57.417 -52.687  1.00  0.00     0.036 C 
BRANCH   6   7
HETATM    7  C   UNL     1     -42.034  55.922 -52.831  1.00  0.00     0.176 C 
BRANCH   7   8
HETATM    8  O   UNL     1     -40.921  55.212 -52.297  1.00  0.00    -0.349 OA
BRANCH   8   9
HETATM    9  C   UNL     1     -40.609  53.969 -52.772  1.00  0.00     0.090 A 
HETATM   10  C   UNL     1     -40.581  53.485 -54.089  1.00  0.00     0.069 A 
HETATM   11 CL   UNL     1     -40.923  54.424 -55.500  1.00  0.00    -0.081 Cl
HETATM   12  C   UNL     1     -40.200  52.156 -54.339  1.00  0.00     0.050 A 
HETATM   13  C   UNL     1     -39.835  51.317 -53.291  1.00  0.00     0.035 A 
HETATM   14 CL   UNL     1     -39.356  49.697 -53.617  1.00  0.00    -0.084 Cl
HETATM   15  C   UNL     1     -39.842  51.785 -51.984  1.00  0.00     0.026 A 
HETATM   16  C   UNL     1     -40.225  53.104 -51.733  1.00  0.00     0.040 A 
ENDBRANCH   8   9
ENDBRANCH   7   8
ENDBRANCH   6   7
ENDBRANCH   5   6
ENDBRANCH   2   5
BRANCH   1  17
HETATM   17  N   UNL     1     -43.193  57.154 -57.210  1.00  0.00    -0.262 N 
HETATM   18  C   UNL     1     -42.916  57.356 -58.547  1.00  0.00     0.290 C 
HETATM   19  O   UNL     1     -41.877  57.890 -58.939  1.00  0.00    -0.264 OA
HETATM   20  H   UNL     1     -44.020  56.624 -56.931  1.00  0.00     0.190 HD
BRANCH  18  21
HETATM   21  C   UNL     1     -43.973  56.878 -59.447  1.00  0.00     0.147 A 
HETATM   22  N   UNL     1     -43.707  56.105 -60.520  1.00  0.00    -0.169 NA
HETATM   23  N   UNL     1     -44.912  55.876 -61.068  1.00  0.00    -0.282 N 
HETATM   24  C   UNL     1     -45.945  56.467 -60.397  1.00  0.00     0.026 A 
HETATM   25  H   UNL     1     -44.957  55.302 -61.904  1.00  0.00     0.189 HD
HETATM   26  C   UNL     1     -47.355  56.342 -60.822  1.00  0.00     0.070 C 
HETATM   27  C   UNL     1     -45.364  57.131 -59.339  1.00  0.00     0.065 A 
ENDBRANCH  18  21
ENDBRANCH   1  17
TORSDOF 7
ENDMDL
MODEL 9
REMARK VINA RESULT:      -6.8      3.432      3.991
REMARK  7 active torsions:
REMARK  status: ('A' for Active; 'I' for Inactive)
REMARK    1  A    between atoms: C_6  and  C_7 
REMARK       I    between atoms: C_7  and  N_8 
REMARK    2  A    between atoms: N_8  and  N_9 
REMARK       I    between atoms: N_9  and  C_10 
REMARK    3  A    between atoms: C_10  and  C_11 
REMARK    4  A    between atoms: C_11  and  C_12 
REMARK    5  A    between atoms: C_12  and  C_13 
REMARK    6  A    between atoms: C_13  and  O_14 
REMARK    7  A    between atoms: O_14  and  C_15 
ROOT
HETATM    1  N   UNL     1     -41.966  57.944 -53.347  1.00  0.00    -0.267 N 
HETATM    2  C   UNL     1     -41.093  58.135 -52.294  1.00  0.00     0.236 C 
HETATM    3  O   UNL     1     -40.061  58.794 -52.382  1.00  0.00    -0.272 OA
HETATM    4  H   UNL     1     -42.899  57.554 -53.225  1.00  0.00     0.190 HD
ENDROOT
BRANCH   2   5
HETATM    5  C   UNL     1     -41.535  57.414 -51.038  1.00  0.00     0.107 C 
BRANCH   5   6
HETATM    6  C   UNL     1     -42.434  56.210 -51.302  1.00  0.00     0.036 C 
BRANCH   6   7
HETATM    7  C   UNL     1     -41.872  54.911 -50.720  1.00  0.00     0.176 C 
BRANCH   7   8
HETATM    8  O   UNL     1     -40.584  54.707 -51.295  1.00  0.00    -0.349 OA
BRANCH   8   9
HETATM    9  C   UNL     1     -40.379  53.676 -52.167  1.00  0.00     0.090 A 
HETATM   10  C   UNL     1     -40.483  53.640 -53.566  1.00  0.00     0.069 A 
HETATM   11 CL   UNL     1     -40.890  54.989 -54.567  1.00  0.00    -0.081 Cl
HETATM   12  C   UNL     1     -40.195  52.453 -54.260  1.00  0.00     0.050 A 
HETATM   13  C   UNL     1     -39.790  51.313 -53.572  1.00  0.00     0.035 A 
HETATM   14 CL   UNL     1     -39.426  49.872 -54.439  1.00  0.00    -0.084 Cl
HETATM   15  C   UNL     1     -39.666  51.337 -52.190  1.00  0.00     0.026 A 
HETATM   16  C   UNL     1     -39.957  52.514 -51.498  1.00  0.00     0.040 A 
ENDBRANCH   8   9
ENDBRANCH   7   8
ENDBRANCH   6   7
ENDBRANCH   5   6
ENDBRANCH   2   5
BRANCH   1  17
HETATM   17  N   UNL     1     -41.743  58.644 -54.534  1.00  0.00    -0.262 N 
HETATM   18  C   UNL     1     -42.424  58.282 -55.679  1.00  0.00     0.290 C 
HETATM   19  O   UNL     1     -43.186  57.315 -55.723  1.00  0.00    -0.264 OA
HETATM   20  H   UNL     1     -41.196  59.505 -54.512  1.00  0.00     0.190 HD
BRANCH  18  21
HETATM   21  C   UNL     1     -42.153  59.156 -56.827  1.00  0.00     0.147 A 
HETATM   22  N   UNL     1     -41.627  60.389 -56.682  1.00  0.00    -0.169 NA
HETATM   23  N   UNL     1     -41.524  60.854 -57.939  1.00  0.00    -0.282 N 
HETATM   24  C   UNL     1     -41.961  59.974 -58.889  1.00  0.00     0.026 A 
HETATM   25  H   UNL     1     -41.142  61.785 -58.076  1.00  0.00     0.189 HD
HETATM   26  C   UNL     1     -41.934  60.277 -60.336  1.00  0.00     0.070 C 
HETATM   27  C   UNL     1     -42.381  58.861 -58.196  1.00  0.00     0.065 A 
ENDBRANCH  18  21
ENDBRANCH   1  17
TORSDOF 7
ENDMDL
MODEL 10
REMARK VINA RESULT:      -6.6      4.369      7.552
REMARK  7 active torsions:
REMARK  status: ('A' for Active; 'I' for Inactive)
REMARK    1  A    between atoms: C_6  and  C_7 
REMARK       I    between atoms: C_7  and  N_8 
REMARK    2  A    between atoms: N_8  and  N_9 
REMARK       I    between atoms: N_9  and  C_10 
REMARK    3  A    between atoms: C_10  and  C_11 
REMARK    4  A    between atoms: C_11  and  C_12 
REMARK    5  A    between atoms: C_12  and  C_13 
REMARK    6  A    between atoms: C_13  and  O_14 
REMARK    7  A    between atoms: O_14  and  C_15 
ROOT
HETATM    1  N   UNL     1     -43.603  55.395 -52.820  1.00  0.00    -0.267 N 
HETATM    2  C   UNL     1     -43.603  56.159 -51.670  1.00  0.00     0.236 C 
HETATM    3  O   UNL     1     -43.026  55.828 -50.638  1.00  0.00    -0.272 OA
HETATM    4  H   UNL     1     -43.925  55.753 -53.719  1.00  0.00     0.190 HD
ENDROOT
BRANCH   2   5
HETATM    5  C   UNL     1     -44.418  57.428 -51.817  1.00  0.00     0.107 C 
BRANCH   5   6
HETATM    6  C   UNL     1     -43.589  58.655 -52.183  1.00  0.00     0.036 C 
BRANCH   6   7
HETATM    7  C   UNL     1     -43.285  58.741 -53.680  1.00  0.00     0.176 C 
BRANCH   7   8
HETATM    8  O   UNL     1     -44.359  58.110 -54.371  1.00  0.00    -0.349 OA
BRANCH   8   9
HETATM    9  C   UNL     1     -44.191  57.692 -55.661  1.00  0.00     0.090 A 
HETATM   10  C   UNL     1     -44.851  58.089 -56.835  1.00  0.00     0.069 A 
HETATM   11 CL   UNL     1     -46.080  59.301 -56.921  1.00  0.00    -0.081 Cl
HETATM   12  C   UNL     1     -44.485  57.526 -58.068  1.00  0.00     0.050 A 
HETATM   13  C   UNL     1     -43.461  56.586 -58.141  1.00  0.00     0.035 A 
HETATM   14 CL   UNL     1     -43.015  55.920 -59.663  1.00  0.00    -0.084 Cl
HETATM   15  C   UNL     1     -42.788  56.195 -56.992  1.00  0.00     0.026 A 
HETATM   16  C   UNL     1     -43.153  56.749 -55.764  1.00  0.00     0.040 A 
ENDBRANCH   8   9
ENDBRANCH   7   8
ENDBRANCH   6   7
ENDBRANCH   5   6
ENDBRANCH   2   5
BRANCH   1  17
HETATM   17  N   UNL     1     -42.799  54.256 -52.866  1.00  0.00    -0.262 N 
HETATM   18  C   UNL     1     -41.470  54.370 -53.219  1.00  0.00     0.290 C 
HETATM   19  O   UNL     1     -40.962  55.438 -53.564  1.00  0.00    -0.264 OA
HETATM   20  H   UNL     1     -43.158  53.374 -52.495  1.00  0.00     0.190 HD
BRANCH  18  21
HETATM   21  C   UNL     1     -40.729  53.105 -53.144  1.00  0.00     0.147 A 
HETATM   22  N   UNL     1     -40.058  52.731 -52.035  1.00  0.00    -0.169 NA
HETATM   23  N   UNL     1     -39.533  51.536 -52.355  1.00  0.00    -0.282 N 
HETATM   24  C   UNL     1     -39.835  51.122 -53.623  1.00  0.00     0.026 A 
HETATM   25  H   UNL     1     -38.977  51.054 -51.656  1.00  0.00     0.189 HD
HETATM   26  C   UNL     1     -39.365  49.836 -54.181  1.00  0.00     0.070 C 
HETATM   27  C   UNL     1     -40.608  52.126 -54.163  1.00  0.00     0.065 A 
ENDBRANCH  18  21
ENDBRANCH   1  17
TORSDOF 7
ENDMDL
