MODEL 1
REMARK VINA RESULT:      -8.2      0.000      0.000
REMARK  2 active torsions:
REMARK  status: ('A' for Active; 'I' for Inactive)
REMARK    1  A    between atoms: N_9  and  N_11 
REMARK       I    between atoms: N_11  and  C_12 
REMARK    2  A    between atoms: C_12  and  C_13 
ROOT
HETATM    1  C   UNL     1     -41.283  57.270 -53.748  1.00  0.00     0.033 C 
HETATM    2  C   UNL     1     -42.781  57.554 -53.605  1.00  0.00     0.086 C 
HETATM    3  N   UNL     1     -43.258  58.657 -54.485  1.00  0.00    -0.379 N 
HETATM    4  C   UNL     1     -43.329  59.970 -53.833  1.00  0.00     0.150 C 
HETATM    5  C   UNL     1     -42.833  58.644 -55.833  1.00  0.00     0.052 A 
HETATM    6  C   UNL     1     -43.224  57.589 -56.704  1.00  0.00     0.040 A 
HETATM    7  N   UNL     1     -44.066  56.525 -56.222  1.00  0.00    -0.246 NA
HETATM    8  C   UNL     1     -43.564  55.757 -55.122  1.00  0.00     0.077 C 
HETATM    9  N   UNL     1     -43.027  54.591 -55.437  1.00  0.00    -0.291 N 
HETATM   10  H   UNL     1     -43.041  54.384 -56.443  1.00  0.00     0.188 HD
HETATM   11  C   UNL     1     -43.649  56.295 -53.753  1.00  0.00     0.096 C 
HETATM   12  C   UNL     1     -42.047  59.665 -56.389  1.00  0.00     0.031 A 
HETATM   13  C   UNL     1     -41.650  59.635 -57.732  1.00  0.00     0.002 A 
HETATM   14  C   UNL     1     -42.035  58.582 -58.557  1.00  0.00     0.002 A 
HETATM   15  C   UNL     1     -42.822  57.557 -58.044  1.00  0.00     0.026 A 
HETATM   16  H   UNL     1     -44.817  57.104 -55.820  1.00  0.00     0.135 HD
ENDROOT
BRANCH   9  17
HETATM   17  N   UNL     1     -42.488  53.699 -54.622  1.00  0.00    -0.265 N 
HETATM   18  C   UNL     1     -41.112  53.544 -54.677  1.00  0.00     0.270 C 
HETATM   19  O   UNL     1     -40.404  54.220 -55.417  1.00  0.00    -0.266 OA
HETATM   20  H   UNL     1     -43.056  53.210 -53.943  1.00  0.00     0.190 HD
BRANCH  18  21
HETATM   21  C   UNL     1     -40.526  52.533 -53.757  1.00  0.00     0.033 A 
HETATM   22  C   UNL     1     -40.271  52.810 -52.406  1.00  0.00     0.017 A 
HETATM   23  C   UNL     1     -39.712  51.826 -51.587  1.00  0.00     0.001 A 
HETATM   24  C   UNL     1     -39.415  50.568 -52.107  1.00  0.00     0.000 A 
HETATM   25  C   UNL     1     -39.685  50.282 -53.444  1.00  0.00     0.001 A 
HETATM   26  C   UNL     1     -40.244  51.259 -54.268  1.00  0.00     0.017 A 
ENDBRANCH  18  21
ENDBRANCH   9  17
TORSDOF 2
ENDMDL
MODEL 2
REMARK VINA RESULT:      -8.1      2.738      7.044
REMARK  2 active torsions:
REMARK  status: ('A' for Active; 'I' for Inactive)
REMARK    1  A    between atoms: N_9  and  N_11 
REMARK       I    between atoms: N_11  and  C_12 
REMARK    2  A    between atoms: C_12  and  C_13 
ROOT
HETATM    1  C   UNL     1     -43.826  55.803 -53.553  1.00  0.00     0.033 C 
HETATM    2  C   UNL     1     -42.647  56.776 -53.656  1.00  0.00     0.086 C 
HETATM    3  N   UNL     1     -41.449  56.334 -52.889  1.00  0.00    -0.379 N 
HETATM    4  C   UNL     1     -41.331  56.921 -51.549  1.00  0.00     0.150 C 
HETATM    5  C   UNL     1     -41.053  54.984 -53.024  1.00  0.00     0.052 A 
HETATM    6  C   UNL     1     -40.612  54.482 -54.279  1.00  0.00     0.040 A 
HETATM    7  N   UNL     1     -40.555  55.349 -55.427  1.00  0.00    -0.246 NA
HETATM    8  C   UNL     1     -41.786  55.960 -55.832  1.00  0.00     0.077 C 
HETATM    9  N   UNL     1     -42.402  55.386 -56.850  1.00  0.00    -0.291 N 
HETATM   10  H   UNL     1     -41.911  54.565 -57.225  1.00  0.00     0.188 HD
HETATM   11  C   UNL     1     -42.292  57.138 -55.105  1.00  0.00     0.096 C 
HETATM   12  C   UNL     1     -41.039  54.087 -51.944  1.00  0.00     0.031 A 
HETATM   13  C   UNL     1     -40.630  52.758 -52.101  1.00  0.00     0.002 A 
HETATM   14  C   UNL     1     -40.216  52.290 -53.345  1.00  0.00     0.002 A 
HETATM   15  C   UNL     1     -40.207  53.151 -54.437  1.00  0.00     0.026 A 
HETATM   16  H   UNL     1     -40.005  56.111 -55.008  1.00  0.00     0.135 HD
ENDROOT
BRANCH   9  17
HETATM   17  N   UNL     1     -43.546  55.741 -57.411  1.00  0.00    -0.265 N 
HETATM   18  C   UNL     1     -43.543  55.934 -58.784  1.00  0.00     0.270 C 
HETATM   19  O   UNL     1     -42.540  55.755 -59.469  1.00  0.00    -0.266 OA
HETATM   20  H   UNL     1     -44.395  55.794 -56.865  1.00  0.00     0.190 HD
BRANCH  18  21
HETATM   21  C   UNL     1     -44.837  56.337 -59.396  1.00  0.00     0.033 A 
HETATM   22  C   UNL     1     -45.397  55.648 -60.481  1.00  0.00     0.017 A 
HETATM   23  C   UNL     1     -46.612  56.072 -61.024  1.00  0.00     0.001 A 
HETATM   24  C   UNL     1     -47.273  57.174 -60.484  1.00  0.00     0.000 A 
HETATM   25  C   UNL     1     -46.729  57.850 -59.392  1.00  0.00     0.001 A 
HETATM   26  C   UNL     1     -45.516  57.431 -58.845  1.00  0.00     0.017 A 
ENDBRANCH  18  21
ENDBRANCH   9  17
TORSDOF 2
ENDMDL
MODEL 3
REMARK VINA RESULT:      -8.1      2.027      6.892
REMARK  2 active torsions:
REMARK  status: ('A' for Active; 'I' for Inactive)
REMARK    1  A    between atoms: N_9  and  N_11 
REMARK       I    between atoms: N_11  and  C_12 
REMARK    2  A    between atoms: C_12  and  C_13 
ROOT
HETATM    1  C   UNL     1     -40.267  54.793 -54.724  1.00  0.00     0.033 C 
HETATM    2  C   UNL     1     -41.090  53.520 -54.509  1.00  0.00     0.086 C 
HETATM    3  N   UNL     1     -41.109  53.063 -53.092  1.00  0.00    -0.379 N 
HETATM    4  C   UNL     1     -40.119  52.028 -52.771  1.00  0.00     0.150 C 
HETATM    5  C   UNL     1     -41.348  54.039 -52.097  1.00  0.00     0.052 A 
HETATM    6  C   UNL     1     -42.592  54.725 -52.042  1.00  0.00     0.040 A 
HETATM    7  N   UNL     1     -43.628  54.426 -52.996  1.00  0.00    -0.246 NA
HETATM    8  C   UNL     1     -43.305  54.623 -54.377  1.00  0.00     0.077 C 
HETATM    9  N   UNL     1     -43.749  55.746 -54.914  1.00  0.00    -0.291 N 
HETATM   10  H   UNL     1     -44.277  56.340 -54.262  1.00  0.00     0.188 HD
HETATM   11  C   UNL     1     -42.507  53.613 -55.094  1.00  0.00     0.096 C 
HETATM   12  C   UNL     1     -40.405  54.356 -51.107  1.00  0.00     0.031 A 
HETATM   13  C   UNL     1     -40.671  55.318 -50.124  1.00  0.00     0.002 A 
HETATM   14  C   UNL     1     -41.892  55.984 -50.103  1.00  0.00     0.002 A 
HETATM   15  C   UNL     1     -42.855  55.690 -51.063  1.00  0.00     0.026 A 
HETATM   16  H   UNL     1     -43.651  53.404 -52.872  1.00  0.00     0.135 HD
ENDROOT
BRANCH   9  17
HETATM   17  N   UNL     1     -43.587  56.173 -56.155  1.00  0.00    -0.265 N 
HETATM   18  C   UNL     1     -42.731  57.246 -56.347  1.00  0.00     0.270 C 
HETATM   19  O   UNL     1     -42.115  57.769 -55.422  1.00  0.00    -0.266 OA
HETATM   20  H   UNL     1     -44.015  55.684 -56.930  1.00  0.00     0.190 HD
BRANCH  18  21
HETATM   21  C   UNL     1     -42.565  57.715 -57.749  1.00  0.00     0.033 A 
HETATM   22  C   UNL     1     -42.205  59.034 -58.058  1.00  0.00     0.017 A 
HETATM   23  C   UNL     1     -42.070  59.425 -59.393  1.00  0.00     0.001 A 
HETATM   24  C   UNL     1     -42.282  58.503 -60.417  1.00  0.00     0.000 A 
HETATM   25  C   UNL     1     -42.621  57.185 -60.112  1.00  0.00     0.001 A 
HETATM   26  C   UNL     1     -42.757  56.788 -58.782  1.00  0.00     0.017 A 
ENDBRANCH  18  21
ENDBRANCH   9  17
TORSDOF 2
ENDMDL
MODEL 4
REMARK VINA RESULT:      -8.1     15.175     17.436
REMARK  2 active torsions:
REMARK  status: ('A' for Active; 'I' for Inactive)
REMARK    1  A    between atoms: N_9  and  N_11 
REMARK       I    between atoms: N_11  and  C_12 
REMARK    2  A    between atoms: C_12  and  C_13 
ROOT
HETATM    1  C   UNL     1     -36.431  39.254 -53.033  1.00  0.00     0.033 C 
HETATM    2  C   UNL     1     -36.884  40.369 -52.086  1.00  0.00     0.086 C 
HETATM    3  N   UNL     1     -36.172  40.357 -50.777  1.00  0.00    -0.379 N 
HETATM    4  C   UNL     1     -36.889  39.663 -49.700  1.00  0.00     0.150 C 
HETATM    5  C   UNL     1     -34.768  40.202 -50.803  1.00  0.00     0.052 A 
HETATM    6  C   UNL     1     -33.942  41.193 -51.403  1.00  0.00     0.040 A 
HETATM    7  N   UNL     1     -34.530  42.371 -51.986  1.00  0.00    -0.246 NA
HETATM    8  C   UNL     1     -35.468  42.162 -53.048  1.00  0.00     0.077 C 
HETATM    9  N   UNL     1     -34.996  42.333 -54.270  1.00  0.00    -0.291 N 
HETATM   10  H   UNL     1     -34.004  42.599 -54.300  1.00  0.00     0.188 HD
HETATM   11  C   UNL     1     -36.851  41.761 -52.736  1.00  0.00     0.096 C 
HETATM   12  C   UNL     1     -34.116  39.105 -50.219  1.00  0.00     0.031 A 
HETATM   13  C   UNL     1     -32.721  38.981 -50.246  1.00  0.00     0.002 A 
HETATM   14  C   UNL     1     -31.939  39.959 -50.854  1.00  0.00     0.002 A 
HETATM   15  C   UNL     1     -32.549  41.066 -51.435  1.00  0.00     0.026 A 
HETATM   16  H   UNL     1     -35.102  42.662 -51.181  1.00  0.00     0.135 HD
ENDROOT
BRANCH   9  17
HETATM   17  N   UNL     1     -35.641  42.198 -55.417  1.00  0.00    -0.265 N 
HETATM   18  C   UNL     1     -35.203  41.201 -56.274  1.00  0.00     0.270 C 
HETATM   19  O   UNL     1     -34.281  40.444 -55.985  1.00  0.00    -0.266 OA
HETATM   20  H   UNL     1     -36.463  42.753 -55.616  1.00  0.00     0.190 HD
BRANCH  18  21
HETATM   21  C   UNL     1     -35.939  41.067 -57.560  1.00  0.00     0.033 A 
HETATM   22  C   UNL     1     -36.615  42.145 -58.150  1.00  0.00     0.017 A 
HETATM   23  C   UNL     1     -37.298  41.964 -59.355  1.00  0.00     0.001 A 
HETATM   24  C   UNL     1     -37.299  40.716 -59.978  1.00  0.00     0.000 A 
HETATM   25  C   UNL     1     -36.612  39.648 -59.405  1.00  0.00     0.001 A 
HETATM   26  C   UNL     1     -35.928  39.822 -58.201  1.00  0.00     0.017 A 
ENDBRANCH  18  21
ENDBRANCH   9  17
TORSDOF 2
ENDMDL
MODEL 5
REMARK VINA RESULT:      -7.9      2.264      2.868
REMARK  2 active torsions:
REMARK  status: ('A' for Active; 'I' for Inactive)
REMARK    1  A    between atoms: N_9  and  N_11 
REMARK       I    between atoms: N_11  and  C_12 
REMARK    2  A    between atoms: C_12  and  C_13 
ROOT
HETATM    1  C   UNL     1     -40.932  57.514 -52.226  1.00  0.00     0.033 C 
HETATM    2  C   UNL     1     -41.983  57.785 -51.145  1.00  0.00     0.086 C 
HETATM    3  N   UNL     1     -42.703  59.075 -51.333  1.00  0.00    -0.379 N 
HETATM    4  C   UNL     1     -42.160  60.196 -50.556  1.00  0.00     0.150 C 
HETATM    5  C   UNL     1     -43.170  59.376 -52.633  1.00  0.00     0.052 A 
HETATM    6  C   UNL     1     -44.165  58.567 -53.249  1.00  0.00     0.040 A 
HETATM    7  N   UNL     1     -44.715  57.436 -52.549  1.00  0.00    -0.246 NA
HETATM    8  C   UNL     1     -43.790  56.417 -52.148  1.00  0.00     0.077 C 
HETATM    9  N   UNL     1     -43.742  55.350 -52.926  1.00  0.00    -0.291 N 
HETATM   10  H   UNL     1     -44.384  55.390 -53.728  1.00  0.00     0.188 HD
HETATM   11  C   UNL     1     -42.958  56.615 -50.948  1.00  0.00     0.096 C 
HETATM   12  C   UNL     1     -42.716  60.485 -53.363  1.00  0.00     0.031 A 
HETATM   13  C   UNL     1     -43.204  60.769 -54.644  1.00  0.00     0.002 A 
HETATM   14  C   UNL     1     -44.168  59.952 -55.228  1.00  0.00     0.002 A 
HETATM   15  C   UNL     1     -44.649  58.848 -54.531  1.00  0.00     0.026 A 
HETATM   16  H   UNL     1     -44.976  57.916 -51.676  1.00  0.00     0.135 HD
ENDROOT
BRANCH   9  17
HETATM   17  N   UNL     1     -42.978  54.279 -52.789  1.00  0.00    -0.265 N 
HETATM   18  C   UNL     1     -41.903  54.156 -53.654  1.00  0.00     0.270 C 
HETATM   19  O   UNL     1     -41.634  55.010 -54.494  1.00  0.00    -0.266 OA
HETATM   20  H   UNL     1     -43.138  53.624 -52.036  1.00  0.00     0.190 HD
BRANCH  18  21
HETATM   21  C   UNL     1     -41.058  52.943 -53.487  1.00  0.00     0.033 A 
HETATM   22  C   UNL     1     -40.956  51.961 -54.483  1.00  0.00     0.017 A 
HETATM   23  C   UNL     1     -40.155  50.836 -54.273  1.00  0.00     0.001 A 
HETATM   24  C   UNL     1     -39.450  50.692 -53.079  1.00  0.00     0.000 A 
HETATM   25  C   UNL     1     -39.533  51.676 -52.095  1.00  0.00     0.001 A 
HETATM   26  C   UNL     1     -40.331  52.803 -52.299  1.00  0.00     0.017 A 
ENDBRANCH  18  21
ENDBRANCH   9  17
TORSDOF 2
ENDMDL
MODEL 6
REMARK VINA RESULT:      -7.5      2.524      4.214
REMARK  2 active torsions:
REMARK  status: ('A' for Active; 'I' for Inactive)
REMARK    1  A    between atoms: N_9  and  N_11 
REMARK       I    between atoms: N_11  and  C_12 
REMARK    2  A    between atoms: C_12  and  C_13 
ROOT
HETATM    1  C   UNL     1     -43.128  57.855 -54.634  1.00  0.00     0.033 C 
HETATM    2  C   UNL     1     -42.094  58.754 -53.951  1.00  0.00     0.086 C 
HETATM    3  N   UNL     1     -42.685  59.985 -53.356  1.00  0.00    -0.379 N 
HETATM    4  C   UNL     1     -42.603  61.176 -54.210  1.00  0.00     0.150 C 
HETATM    5  C   UNL     1     -43.865  59.836 -52.592  1.00  0.00     0.052 A 
HETATM    6  C   UNL     1     -43.855  59.086 -51.384  1.00  0.00     0.040 A 
HETATM    7  N   UNL     1     -42.637  58.475 -50.920  1.00  0.00    -0.246 NA
HETATM    8  C   UNL     1     -42.019  57.527 -51.799  1.00  0.00     0.077 C 
HETATM    9  N   UNL     1     -42.241  56.256 -51.516  1.00  0.00    -0.291 N 
HETATM   10  H   UNL     1     -42.836  56.110 -50.690  1.00  0.00     0.188 HD
HETATM   11  C   UNL     1     -41.216  58.001 -52.940  1.00  0.00     0.096 C 
HETATM   12  C   UNL     1     -45.082  60.436 -52.954  1.00  0.00     0.031 A 
HETATM   13  C   UNL     1     -46.234  60.284 -52.174  1.00  0.00     0.002 A 
HETATM   14  C   UNL     1     -46.199  59.532 -51.003  1.00  0.00     0.002 A 
HETATM   15  C   UNL     1     -45.009  58.930 -50.607  1.00  0.00     0.026 A 
HETATM   16  H   UNL     1     -42.032  59.307 -50.960  1.00  0.00     0.135 HD
ENDROOT
BRANCH   9  17
HETATM   17  N   UNL     1     -41.800  55.190 -52.163  1.00  0.00    -0.265 N 
HETATM   18  C   UNL     1     -40.979  54.320 -51.463  1.00  0.00     0.270 C 
HETATM   19  O   UNL     1     -40.691  54.496 -50.283  1.00  0.00    -0.266 OA
HETATM   20  H   UNL     1     -42.114  54.990 -53.104  1.00  0.00     0.190 HD
BRANCH  18  21
HETATM   21  C   UNL     1     -40.490  53.131 -52.210  1.00  0.00     0.033 A 
HETATM   22  C   UNL     1     -39.860  52.054 -51.570  1.00  0.00     0.017 A 
HETATM   23  C   UNL     1     -39.412  50.963 -52.319  1.00  0.00     0.001 A 
HETATM   24  C   UNL     1     -39.598  50.939 -53.700  1.00  0.00     0.000 A 
HETATM   25  C   UNL     1     -40.242  51.999 -54.338  1.00  0.00     0.001 A 
HETATM   26  C   UNL     1     -40.692  53.091 -53.595  1.00  0.00     0.017 A 
ENDBRANCH  18  21
ENDBRANCH   9  17
TORSDOF 2
ENDMDL
MODEL 7
REMARK VINA RESULT:      -7.5      1.842      2.390
REMARK  2 active torsions:
REMARK  status: ('A' for Active; 'I' for Inactive)
REMARK    1  A    between atoms: N_9  and  N_11 
REMARK       I    between atoms: N_11  and  C_12 
REMARK    2  A    between atoms: C_12  and  C_13 
ROOT
HETATM    1  C   UNL     1     -42.058  59.119 -55.694  1.00  0.00     0.033 C 
HETATM    2  C   UNL     1     -43.543  58.801 -55.885  1.00  0.00     0.086 C 
HETATM    3  N   UNL     1     -44.146  59.487 -57.062  1.00  0.00    -0.379 N 
HETATM    4  C   UNL     1     -44.840  60.741 -56.748  1.00  0.00     0.150 C 
HETATM    5  C   UNL     1     -43.423  59.453 -58.276  1.00  0.00     0.052 A 
HETATM    6  C   UNL     1     -43.181  58.218 -58.940  1.00  0.00     0.040 A 
HETATM    7  N   UNL     1     -43.681  56.987 -58.385  1.00  0.00    -0.246 NA
HETATM    8  C   UNL     1     -43.229  56.646 -57.069  1.00  0.00     0.077 C 
HETATM    9  N   UNL     1     -42.252  55.758 -57.012  1.00  0.00    -0.291 N 
HETATM   10  H   UNL     1     -41.940  55.422 -57.932  1.00  0.00     0.188 HD
HETATM   11  C   UNL     1     -43.839  57.294 -55.894  1.00  0.00     0.096 C 
HETATM   12  C   UNL     1     -42.940  60.613 -58.902  1.00  0.00     0.031 A 
HETATM   13  C   UNL     1     -42.237  60.553 -60.111  1.00  0.00     0.002 A 
HETATM   14  C   UNL     1     -42.003  59.329 -60.732  1.00  0.00     0.002 A 
HETATM   15  C   UNL     1     -42.474  58.159 -60.146  1.00  0.00     0.026 A 
HETATM   16  H   UNL     1     -44.664  57.270 -58.263  1.00  0.00     0.135 HD
ENDROOT
BRANCH   9  17
HETATM   17  N   UNL     1     -41.652  55.279 -55.935  1.00  0.00    -0.265 N 
HETATM   18  C   UNL     1     -42.272  54.224 -55.283  1.00  0.00     0.270 C 
HETATM   19  O   UNL     1     -43.315  53.722 -55.692  1.00  0.00    -0.266 OA
HETATM   20  H   UNL     1     -40.745  55.625 -55.652  1.00  0.00     0.190 HD
BRANCH  18  21
HETATM   21  C   UNL     1     -41.585  53.702 -54.072  1.00  0.00     0.033 A 
HETATM   22  C   UNL     1     -41.832  54.218 -52.792  1.00  0.00     0.017 A 
HETATM   23  C   UNL     1     -41.153  53.697 -51.688  1.00  0.00     0.001 A 
HETATM   24  C   UNL     1     -40.237  52.659 -51.855  1.00  0.00     0.000 A 
HETATM   25  C   UNL     1     -40.003  52.130 -53.124  1.00  0.00     0.001 A 
HETATM   26  C   UNL     1     -40.679  52.646 -54.231  1.00  0.00     0.017 A 
ENDBRANCH  18  21
ENDBRANCH   9  17
TORSDOF 2
ENDMDL
MODEL 8
REMARK VINA RESULT:      -7.4      3.752      8.201
REMARK  2 active torsions:
REMARK  status: ('A' for Active; 'I' for Inactive)
REMARK    1  A    between atoms: N_9  and  N_11 
REMARK       I    between atoms: N_11  and  C_12 
REMARK    2  A    between atoms: C_12  and  C_13 
ROOT
HETATM    1  C   UNL     1     -41.488  57.727 -53.447  1.00  0.00     0.033 C 
HETATM    2  C   UNL     1     -42.728  57.096 -54.088  1.00  0.00     0.086 C 
HETATM    3  N   UNL     1     -42.594  55.629 -54.310  1.00  0.00    -0.379 N 
HETATM    4  C   UNL     1     -42.165  55.255 -55.663  1.00  0.00     0.150 C 
HETATM    5  C   UNL     1     -42.078  54.855 -53.247  1.00  0.00     0.052 A 
HETATM    6  C   UNL     1     -42.788  54.747 -52.019  1.00  0.00     0.040 A 
HETATM    7  N   UNL     1     -44.048  55.422 -51.850  1.00  0.00    -0.246 NA
HETATM    8  C   UNL     1     -44.039  56.847 -51.999  1.00  0.00     0.077 C 
HETATM    9  N   UNL     1     -44.022  57.540 -50.875  1.00  0.00    -0.291 N 
HETATM   10  H   UNL     1     -44.018  56.959 -50.027  1.00  0.00     0.188 HD
HETATM   11  C   UNL     1     -44.029  57.441 -53.348  1.00  0.00     0.096 C 
HETATM   12  C   UNL     1     -40.878  54.133 -53.349  1.00  0.00     0.031 A 
HETATM   13  C   UNL     1     -40.394  53.362 -52.285  1.00  0.00     0.002 A 
HETATM   14  C   UNL     1     -41.103  53.287 -51.090  1.00  0.00     0.002 A 
HETATM   15  C   UNL     1     -42.301  53.981 -50.955  1.00  0.00     0.026 A 
HETATM   16  H   UNL     1     -44.518  55.069 -52.695  1.00  0.00     0.135 HD
ENDROOT
BRANCH   9  17
HETATM   17  N   UNL     1     -44.003  58.855 -50.731  1.00  0.00    -0.265 N 
HETATM   18  C   UNL     1     -45.198  59.470 -50.394  1.00  0.00     0.270 C 
HETATM   19  O   UNL     1     -46.231  58.837 -50.199  1.00  0.00    -0.266 OA
HETATM   20  H   UNL     1     -43.135  59.369 -50.795  1.00  0.00     0.190 HD
BRANCH  18  21
HETATM   21  C   UNL     1     -45.158  60.949 -50.241  1.00  0.00     0.033 A 
HETATM   22  C   UNL     1     -46.187  61.777 -50.711  1.00  0.00     0.017 A 
HETATM   23  C   UNL     1     -46.096  63.162 -50.550  1.00  0.00     0.001 A 
HETATM   24  C   UNL     1     -44.989  63.721 -49.914  1.00  0.00     0.000 A 
HETATM   25  C   UNL     1     -43.973  62.899 -49.427  1.00  0.00     0.001 A 
HETATM   26  C   UNL     1     -44.057  61.516 -49.585  1.00  0.00     0.017 A 
ENDBRANCH  18  21
ENDBRANCH   9  17
TORSDOF 2
ENDMDL
MODEL 9
REMARK VINA RESULT:      -7.2      5.834      9.506
REMARK  2 active torsions:
REMARK  status: ('A' for Active; 'I' for Inactive)
REMARK    1  A    between atoms: N_9  and  N_11 
REMARK       I    between atoms: N_11  and  C_12 
REMARK    2  A    between atoms: C_12  and  C_13 
ROOT
HETATM    1  C   UNL     1     -41.121  59.620 -50.222  1.00  0.00     0.033 C 
HETATM    2  C   UNL     1     -41.735  59.862 -51.604  1.00  0.00     0.086 C 
HETATM    3  N   UNL     1     -41.753  58.645 -52.462  1.00  0.00    -0.379 N 
HETATM    4  C   UNL     1     -40.625  58.540 -53.396  1.00  0.00     0.150 C 
HETATM    5  C   UNL     1     -42.199  57.440 -51.873  1.00  0.00     0.052 A 
HETATM    6  C   UNL     1     -43.540  57.312 -51.416  1.00  0.00     0.040 A 
HETATM    7  N   UNL     1     -44.462  58.408 -51.558  1.00  0.00    -0.246 NA
HETATM    8  C   UNL     1     -44.105  59.636 -50.913  1.00  0.00     0.077 C 
HETATM    9  N   UNL     1     -44.698  59.868 -49.755  1.00  0.00    -0.291 N 
HETATM   10  H   UNL     1     -45.348  59.127 -49.464  1.00  0.00     0.188 HD
HETATM   11  C   UNL     1     -43.116  60.531 -51.540  1.00  0.00     0.096 C 
HETATM   12  C   UNL     1     -41.374  56.313 -51.737  1.00  0.00     0.031 A 
HETATM   13  C   UNL     1     -41.844  55.126 -51.161  1.00  0.00     0.002 A 
HETATM   14  C   UNL     1     -43.157  55.034 -50.710  1.00  0.00     0.002 A 
HETATM   15  C   UNL     1     -44.007  56.127 -50.836  1.00  0.00     0.026 A 
HETATM   16  H   UNL     1     -44.325  58.586 -52.563  1.00  0.00     0.135 HD
ENDROOT
BRANCH   9  17
HETATM   17  N   UNL     1     -44.542  60.911 -48.958  1.00  0.00    -0.265 N 
HETATM   18  C   UNL     1     -45.372  60.988 -47.850  1.00  0.00     0.270 C 
HETATM   19  O   UNL     1     -46.196  60.119 -47.585  1.00  0.00    -0.266 OA
HETATM   20  H   UNL     1     -43.800  61.578 -49.119  1.00  0.00     0.190 HD
BRANCH  18  21
HETATM   21  C   UNL     1     -45.185  62.171 -46.968  1.00  0.00     0.033 A 
HETATM   22  C   UNL     1     -45.194  62.070 -45.570  1.00  0.00     0.017 A 
HETATM   23  C   UNL     1     -45.022  63.214 -44.787  1.00  0.00     0.001 A 
HETATM   24  C   UNL     1     -44.832  64.455 -45.393  1.00  0.00     0.000 A 
HETATM   25  C   UNL     1     -44.802  64.557 -46.783  1.00  0.00     0.001 A 
HETATM   26  C   UNL     1     -44.973  63.418 -47.571  1.00  0.00     0.017 A 
ENDBRANCH  18  21
ENDBRANCH   9  17
TORSDOF 2
ENDMDL
MODEL 10
REMARK VINA RESULT:      -7.1      3.321      8.049
REMARK  2 active torsions:
REMARK  status: ('A' for Active; 'I' for Inactive)
REMARK    1  A    between atoms: N_9  and  N_11 
REMARK       I    between atoms: N_11  and  C_12 
REMARK    2  A    between atoms: C_12  and  C_13 
ROOT
HETATM    1  C   UNL     1     -41.500  57.033 -53.399  1.00  0.00     0.033 C 
HETATM    2  C   UNL     1     -42.708  56.125 -53.646  1.00  0.00     0.086 C 
HETATM    3  N   UNL     1     -42.445  54.695 -53.325  1.00  0.00    -0.379 N 
HETATM    4  C   UNL     1     -42.064  53.871 -54.479  1.00  0.00     0.150 C 
HETATM    5  C   UNL     1     -41.793  54.411 -52.104  1.00  0.00     0.052 A 
HETATM    6  C   UNL     1     -42.415  54.723 -50.863  1.00  0.00     0.040 A 
HETATM    7  N   UNL     1     -43.723  55.324 -50.838  1.00  0.00    -0.246 NA
HETATM    8  C   UNL     1     -43.862  56.586 -51.502  1.00  0.00     0.077 C 
HETATM    9  N   UNL     1     -43.845  57.649 -50.717  1.00  0.00    -0.291 N 
HETATM   10  H   UNL     1     -43.734  57.429 -49.719  1.00  0.00     0.188 HD
HETATM   11  C   UNL     1     -43.990  56.632 -52.969  1.00  0.00     0.096 C 
HETATM   12  C   UNL     1     -40.537  53.788 -52.043  1.00  0.00     0.031 A 
HETATM   13  C   UNL     1     -39.917  53.506 -50.820  1.00  0.00     0.002 A 
HETATM   14  C   UNL     1     -40.543  53.835 -49.621  1.00  0.00     0.002 A 
HETATM   15  C   UNL     1     -41.793  54.445 -49.641  1.00  0.00     0.026 A 
HETATM   16  H   UNL     1     -44.205  54.649 -51.448  1.00  0.00     0.135 HD
ENDROOT
BRANCH   9  17
HETATM   17  N   UNL     1     -43.946  58.920 -51.069  1.00  0.00    -0.265 N 
HETATM   18  C   UNL     1     -42.800  59.694 -50.980  1.00  0.00     0.270 C 
HETATM   19  O   UNL     1     -41.721  59.229 -50.624  1.00  0.00    -0.266 OA
HETATM   20  H   UNL     1     -44.808  59.282 -51.455  1.00  0.00     0.190 HD
BRANCH  18  21
HETATM   21  C   UNL     1     -42.935  61.121 -51.376  1.00  0.00     0.033 A 
HETATM   22  C   UNL     1     -42.937  62.160 -50.435  1.00  0.00     0.017 A 
HETATM   23  C   UNL     1     -43.075  63.484 -50.860  1.00  0.00     0.001 A 
HETATM   24  C   UNL     1     -43.202  63.774 -52.217  1.00  0.00     0.000 A 
HETATM   25  C   UNL     1     -43.181  62.745 -53.157  1.00  0.00     0.001 A 
HETATM   26  C   UNL     1     -43.043  61.420 -52.740  1.00  0.00     0.017 A 
ENDBRANCH  18  21
ENDBRANCH   9  17
TORSDOF 2
ENDMDL
