MODEL 1
REMARK VINA RESULT:      -8.7      0.000      0.000
REMARK  5 active torsions:
REMARK  status: ('A' for Active; 'I' for Inactive)
REMARK    1  A    between atoms: O_2  and  C_3 
REMARK    2  A    between atoms: C_6  and  C_7 
REMARK    3  A    between atoms: C_12  and  C_13 
REMARK    4  A    between atoms: N_14  and  N_15 
REMARK       I    between atoms: N_15  and  C_16 
REMARK    5  A    between atoms: C_16  and  C_17 
ROOT
HETATM    1  C   UNL     1     -43.122  55.897 -53.545  1.00  0.00     0.154 C 
HETATM    2  N   UNL     1     -42.764  56.598 -54.574  1.00  0.00    -0.183 NA
ENDROOT
BRANCH   1   3
HETATM    3  C   UNL     1     -42.431  56.107 -52.291  1.00  0.00     0.031 A 
HETATM    4  C   UNL     1     -41.459  55.281 -51.641  1.00  0.00     0.100 A 
HETATM    5  N   UNL     1     -41.098  55.810 -50.458  1.00  0.00    -0.174 NA
HETATM    6  N   UNL     1     -41.789  56.951 -50.371  1.00  0.00    -0.288 N 
HETATM    7  H   UNL     1     -41.662  57.528 -49.546  1.00  0.00     0.188 HD
HETATM    8  C   UNL     1     -42.600  57.179 -51.437  1.00  0.00     0.124 A 
BRANCH   4   9
HETATM    9  C   UNL     1     -40.871  54.016 -52.091  1.00  0.00    -0.005 A 
HETATM   10  C   UNL     1     -40.363  53.110 -51.151  1.00  0.00     0.016 A 
HETATM   11  C   UNL     1     -39.799  51.893 -51.556  1.00  0.00     0.037 A 
HETATM   12  C   UNL     1     -39.733  51.570 -52.910  1.00  0.00     0.068 A 
HETATM   13  C   UNL     1     -40.225  52.477 -53.851  1.00  0.00     0.037 A 
HETATM   14  C   UNL     1     -40.782  53.695 -53.448  1.00  0.00     0.016 A 
BRANCH  12  15
HETATM   15  O   UNL     1     -39.215  50.420 -53.440  1.00  0.00    -0.356 OA
HETATM   16  C   UNL     1     -39.834  49.923 -54.620  1.00  0.00     0.210 C 
ENDBRANCH  12  15
ENDBRANCH   4   9
ENDBRANCH   1   3
BRANCH   2  17
HETATM   17  N   UNL     1     -43.417  56.421 -55.769  1.00  0.00    -0.243 N 
HETATM   18  C   UNL     1     -43.140  57.074 -56.965  1.00  0.00     0.271 C 
HETATM   19  O   UNL     1     -42.272  57.924 -57.134  1.00  0.00    -0.266 OA
HETATM   20  H   UNL     1     -43.951  55.558 -55.801  1.00  0.00     0.192 HD
BRANCH  18  21
HETATM   21  C   UNL     1     -43.965  56.649 -58.134  1.00  0.00     0.036 A 
HETATM   22  C   UNL     1     -45.158  57.303 -58.478  1.00  0.00     0.057 A 
HETATM   23  C   UNL     1     -45.842  56.842 -59.584  1.00  0.00     0.106 A 
HETATM   24  C   UNL     1     -45.384  55.790 -60.343  1.00  0.00     0.105 A 
HETATM   25  O   UNL     1     -47.011  57.352 -60.059  1.00  0.00    -0.323 OA
HETATM   26  O   UNL     1     -46.207  55.506 -61.387  1.00  0.00    -0.323 OA
HETATM   27  C   UNL     1     -44.210  55.138 -60.043  1.00  0.00     0.041 A 
HETATM   28  C   UNL     1     -47.236  56.501 -61.204  1.00  0.00     0.352 A 
HETATM   29  C   UNL     1     -43.492  55.577 -58.926  1.00  0.00     0.020 A 
ENDBRANCH  18  21
ENDBRANCH   2  17
TORSDOF 5
ENDMDL
MODEL 2
REMARK VINA RESULT:      -8.5      2.265      8.405
REMARK  5 active torsions:
REMARK  status: ('A' for Active; 'I' for Inactive)
REMARK    1  A    between atoms: O_2  and  C_3 
REMARK    2  A    between atoms: C_6  and  C_7 
REMARK    3  A    between atoms: C_12  and  C_13 
REMARK    4  A    between atoms: N_14  and  N_15 
REMARK       I    between atoms: N_15  and  C_16 
REMARK    5  A    between atoms: C_16  and  C_17 
ROOT
HETATM    1  C   UNL     1     -41.871  56.930 -54.639  1.00  0.00     0.154 C 
HETATM    2  N   UNL     1     -40.841  56.602 -53.925  1.00  0.00    -0.183 NA
ENDROOT
BRANCH   1   3
HETATM    3  C   UNL     1     -42.035  58.317 -55.020  1.00  0.00     0.031 A 
HETATM    4  C   UNL     1     -42.438  58.871 -56.277  1.00  0.00     0.100 A 
HETATM    5  N   UNL     1     -42.416  60.215 -56.235  1.00  0.00    -0.174 NA
HETATM    6  N   UNL     1     -42.045  60.509 -54.984  1.00  0.00    -0.288 N 
HETATM    7  H   UNL     1     -41.969  61.487 -54.723  1.00  0.00     0.188 HD
HETATM    8  C   UNL     1     -41.806  59.415 -54.215  1.00  0.00     0.124 A 
BRANCH   4   9
HETATM    9  C   UNL     1     -42.832  58.181 -57.509  1.00  0.00    -0.005 A 
HETATM   10  C   UNL     1     -41.934  58.103 -58.582  1.00  0.00     0.016 A 
HETATM   11  C   UNL     1     -42.286  57.445 -59.768  1.00  0.00     0.037 A 
HETATM   12  C   UNL     1     -43.544  56.861 -59.896  1.00  0.00     0.068 A 
HETATM   13  C   UNL     1     -44.447  56.949 -58.835  1.00  0.00     0.037 A 
HETATM   14  C   UNL     1     -44.100  57.610 -57.652  1.00  0.00     0.016 A 
BRANCH  12  15
HETATM   15  O   UNL     1     -44.013  56.189 -60.991  1.00  0.00    -0.356 OA
HETATM   16  C   UNL     1     -44.732  54.986 -60.746  1.00  0.00     0.210 C 
ENDBRANCH  12  15
ENDBRANCH   4   9
ENDBRANCH   1   3
BRANCH   2  17
HETATM   17  N   UNL     1     -40.663  55.288 -53.565  1.00  0.00    -0.243 N 
HETATM   18  C   UNL     1     -40.412  54.225 -54.424  1.00  0.00     0.271 C 
HETATM   19  O   UNL     1     -40.324  54.294 -55.646  1.00  0.00    -0.266 OA
HETATM   20  H   UNL     1     -40.443  55.178 -52.580  1.00  0.00     0.192 HD
BRANCH  18  21
HETATM   21  C   UNL     1     -40.197  52.903 -53.764  1.00  0.00     0.036 A 
HETATM   22  C   UNL     1     -40.159  52.768 -52.368  1.00  0.00     0.057 A 
HETATM   23  C   UNL     1     -39.967  51.501 -51.855  1.00  0.00     0.106 A 
HETATM   24  C   UNL     1     -39.827  50.397 -52.663  1.00  0.00     0.105 A 
HETATM   25  O   UNL     1     -39.902  51.186 -50.532  1.00  0.00    -0.323 OA
HETATM   26  O   UNL     1     -39.655  49.251 -51.951  1.00  0.00    -0.323 OA
HETATM   27  C   UNL     1     -39.875  50.492 -54.035  1.00  0.00     0.041 A 
HETATM   28  C   UNL     1     -39.706  49.757 -50.601  1.00  0.00     0.352 A 
HETATM   29  C   UNL     1     -40.066  51.762 -54.589  1.00  0.00     0.020 A 
ENDBRANCH  18  21
ENDBRANCH   2  17
TORSDOF 5
ENDMDL
MODEL 3
REMARK VINA RESULT:      -7.7      2.313      4.409
REMARK  5 active torsions:
REMARK  status: ('A' for Active; 'I' for Inactive)
REMARK    1  A    between atoms: O_2  and  C_3 
REMARK    2  A    between atoms: C_6  and  C_7 
REMARK    3  A    between atoms: C_12  and  C_13 
REMARK    4  A    between atoms: N_14  and  N_15 
REMARK       I    between atoms: N_15  and  C_16 
REMARK    5  A    between atoms: C_16  and  C_17 
ROOT
HETATM    1  C   UNL     1     -42.642  53.978 -54.981  1.00  0.00     0.154 C 
HETATM    2  N   UNL     1     -42.301  54.762 -55.954  1.00  0.00    -0.183 NA
ENDROOT
BRANCH   1   3
HETATM    3  C   UNL     1     -41.695  53.755 -53.909  1.00  0.00     0.031 A 
HETATM    4  C   UNL     1     -41.227  54.666 -52.908  1.00  0.00     0.100 A 
HETATM    5  N   UNL     1     -40.306  54.078 -52.123  1.00  0.00    -0.174 NA
HETATM    6  N   UNL     1     -40.214  52.826 -52.584  1.00  0.00    -0.288 N 
HETATM    7  H   UNL     1     -39.571  52.191 -52.124  1.00  0.00     0.188 HD
HETATM    8  C   UNL     1     -41.022  52.578 -53.648  1.00  0.00     0.124 A 
BRANCH   4   9
HETATM    9  C   UNL     1     -41.608  56.061 -52.676  1.00  0.00    -0.005 A 
HETATM   10  C   UNL     1     -41.019  57.081 -53.434  1.00  0.00     0.016 A 
HETATM   11  C   UNL     1     -41.371  58.422 -53.232  1.00  0.00     0.037 A 
HETATM   12  C   UNL     1     -42.315  58.760 -52.265  1.00  0.00     0.068 A 
HETATM   13  C   UNL     1     -42.894  57.747 -51.496  1.00  0.00     0.037 A 
HETATM   14  C   UNL     1     -42.539  56.408 -51.692  1.00  0.00     0.016 A 
BRANCH  12  15
HETATM   15  O   UNL     1     -42.750  60.022 -51.968  1.00  0.00    -0.356 OA
HETATM   16  C   UNL     1     -42.396  60.539 -50.693  1.00  0.00     0.210 C 
ENDBRANCH  12  15
ENDBRANCH   4   9
ENDBRANCH   1   3
BRANCH   2  17
HETATM   17  N   UNL     1     -43.191  54.995 -56.974  1.00  0.00    -0.243 N 
HETATM   18  C   UNL     1     -43.206  56.099 -57.819  1.00  0.00     0.271 C 
HETATM   19  O   UNL     1     -42.430  57.047 -57.775  1.00  0.00    -0.266 OA
HETATM   20  H   UNL     1     -43.685  54.157 -57.263  1.00  0.00     0.192 HD
BRANCH  18  21
HETATM   21  C   UNL     1     -44.249  56.076 -58.887  1.00  0.00     0.036 A 
HETATM   22  C   UNL     1     -45.237  57.068 -58.982  1.00  0.00     0.057 A 
HETATM   23  C   UNL     1     -46.149  56.963 -60.013  1.00  0.00     0.106 A 
HETATM   24  C   UNL     1     -46.102  55.938 -60.931  1.00  0.00     0.105 A 
HETATM   25  O   UNL     1     -47.169  57.829 -60.255  1.00  0.00    -0.323 OA
HETATM   26  O   UNL     1     -47.088  56.032 -61.863  1.00  0.00    -0.323 OA
HETATM   27  C   UNL     1     -45.137  54.959 -60.875  1.00  0.00     0.041 A 
HETATM   28  C   UNL     1     -47.760  57.233 -61.431  1.00  0.00     0.352 A 
HETATM   29  C   UNL     1     -44.198  55.034 -59.841  1.00  0.00     0.020 A 
ENDBRANCH  18  21
ENDBRANCH   2  17
TORSDOF 5
ENDMDL
MODEL 4
REMARK VINA RESULT:      -7.7      2.237      8.418
REMARK  5 active torsions:
REMARK  status: ('A' for Active; 'I' for Inactive)
REMARK    1  A    between atoms: O_2  and  C_3 
REMARK    2  A    between atoms: C_6  and  C_7 
REMARK    3  A    between atoms: C_12  and  C_13 
REMARK    4  A    between atoms: N_14  and  N_15 
REMARK       I    between atoms: N_15  and  C_16 
REMARK    5  A    between atoms: C_16  and  C_17 
ROOT
HETATM    1  C   UNL     1     -43.946  57.104 -54.203  1.00  0.00     0.154 C 
HETATM    2  N   UNL     1     -42.670  56.985 -54.392  1.00  0.00    -0.183 NA
ENDROOT
BRANCH   1   3
HETATM    3  C   UNL     1     -44.568  58.383 -54.469  1.00  0.00     0.031 A 
HETATM    4  C   UNL     1     -45.120  58.887 -55.691  1.00  0.00     0.100 A 
HETATM    5  N   UNL     1     -45.558  60.149 -55.531  1.00  0.00    -0.174 NA
HETATM    6  N   UNL     1     -45.326  60.429 -54.244  1.00  0.00    -0.288 N 
HETATM    7  H   UNL     1     -45.593  61.344 -53.896  1.00  0.00     0.188 HD
HETATM    8  C   UNL     1     -44.738  59.411 -53.563  1.00  0.00     0.124 A 
BRANCH   4   9
HETATM    9  C   UNL     1     -45.238  58.228 -56.994  1.00  0.00    -0.005 A 
HETATM   10  C   UNL     1     -44.089  57.761 -57.647  1.00  0.00     0.016 A 
HETATM   11  C   UNL     1     -44.177  57.124 -58.891  1.00  0.00     0.037 A 
HETATM   12  C   UNL     1     -45.418  56.950 -59.501  1.00  0.00     0.068 A 
HETATM   13  C   UNL     1     -46.564  57.426 -58.861  1.00  0.00     0.037 A 
HETATM   14  C   UNL     1     -46.477  58.068 -57.621  1.00  0.00     0.016 A 
BRANCH  12  15
HETATM   15  O   UNL     1     -45.647  56.345 -60.706  1.00  0.00    -0.356 OA
HETATM   16  C   UNL     1     -45.110  55.040 -60.881  1.00  0.00     0.210 C 
ENDBRANCH  12  15
ENDBRANCH   4   9
ENDBRANCH   1   3
BRANCH   2  17
HETATM   17  N   UNL     1     -42.064  55.775 -54.157  1.00  0.00    -0.243 N 
HETATM   18  C   UNL     1     -41.383  55.405 -53.004  1.00  0.00     0.271 C 
HETATM   19  O   UNL     1     -41.204  56.111 -52.017  1.00  0.00    -0.266 OA
HETATM   20  H   UNL     1     -42.389  55.045 -54.783  1.00  0.00     0.192 HD
BRANCH  18  21
HETATM   21  C   UNL     1     -40.869  54.003 -52.984  1.00  0.00     0.036 A 
HETATM   22  C   UNL     1     -40.564  53.341 -51.784  1.00  0.00     0.057 A 
HETATM   23  C   UNL     1     -40.107  52.041 -51.872  1.00  0.00     0.106 A 
HETATM   24  C   UNL     1     -39.960  51.396 -53.078  1.00  0.00     0.105 A 
HETATM   25  O   UNL     1     -39.763  51.253 -50.817  1.00  0.00    -0.323 OA
HETATM   26  O   UNL     1     -39.503  50.123 -52.933  1.00  0.00    -0.323 OA
HETATM   27  C   UNL     1     -40.265  52.011 -54.270  1.00  0.00     0.041 A 
HETATM   28  C   UNL     1     -39.383  50.037 -51.498  1.00  0.00     0.352 A 
HETATM   29  C   UNL     1     -40.729  53.329 -54.219  1.00  0.00     0.020 A 
ENDBRANCH  18  21
ENDBRANCH   2  17
TORSDOF 5
ENDMDL
MODEL 5
REMARK VINA RESULT:      -7.6      3.617      8.523
REMARK  5 active torsions:
REMARK  status: ('A' for Active; 'I' for Inactive)
REMARK    1  A    between atoms: O_2  and  C_3 
REMARK    2  A    between atoms: C_6  and  C_7 
REMARK    3  A    between atoms: C_12  and  C_13 
REMARK    4  A    between atoms: N_14  and  N_15 
REMARK       I    between atoms: N_15  and  C_16 
REMARK    5  A    between atoms: C_16  and  C_17 
ROOT
HETATM    1  C   UNL     1     -43.019  56.139 -56.356  1.00  0.00     0.154 C 
HETATM    2  N   UNL     1     -41.815  56.113 -55.880  1.00  0.00    -0.183 NA
ENDROOT
BRANCH   1   3
HETATM    3  C   UNL     1     -43.486  57.354 -56.989  1.00  0.00     0.031 A 
HETATM    4  C   UNL     1     -43.846  58.606 -56.395  1.00  0.00     0.100 A 
HETATM    5  N   UNL     1     -44.282  59.469 -57.329  1.00  0.00    -0.174 NA
HETATM    6  N   UNL     1     -44.172  58.804 -58.485  1.00  0.00    -0.288 N 
HETATM    7  H   UNL     1     -44.443  59.278 -59.339  1.00  0.00     0.188 HD
HETATM    8  C   UNL     1     -43.701  57.537 -58.340  1.00  0.00     0.124 A 
BRANCH   4   9
HETATM    9  C   UNL     1     -43.802  59.008 -54.987  1.00  0.00    -0.005 A 
HETATM   10  C   UNL     1     -44.899  58.753 -54.153  1.00  0.00     0.016 A 
HETATM   11  C   UNL     1     -44.878  59.126 -52.802  1.00  0.00     0.037 A 
HETATM   12  C   UNL     1     -43.759  59.762 -52.270  1.00  0.00     0.068 A 
HETATM   13  C   UNL     1     -42.669  60.031 -53.101  1.00  0.00     0.037 A 
HETATM   14  C   UNL     1     -42.690  59.666 -54.451  1.00  0.00     0.016 A 
BRANCH  12  15
HETATM   15  O   UNL     1     -43.605  60.174 -50.975  1.00  0.00    -0.356 OA
HETATM   16  C   UNL     1     -42.757  61.294 -50.754  1.00  0.00     0.210 C 
ENDBRANCH  12  15
ENDBRANCH   4   9
ENDBRANCH   1   3
BRANCH   2  17
HETATM   17  N   UNL     1     -41.350  54.964 -55.287  1.00  0.00    -0.243 N 
HETATM   18  C   UNL     1     -40.963  54.820 -53.960  1.00  0.00     0.271 C 
HETATM   19  O   UNL     1     -40.964  55.706 -53.111  1.00  0.00    -0.266 OA
HETATM   20  H   UNL     1     -41.572  54.130 -55.820  1.00  0.00     0.192 HD
BRANCH  18  21
HETATM   21  C   UNL     1     -40.552  53.442 -53.557  1.00  0.00     0.036 A 
HETATM   22  C   UNL     1     -40.390  53.079 -52.211  1.00  0.00     0.057 A 
HETATM   23  C   UNL     1     -40.020  51.777 -51.942  1.00  0.00     0.106 A 
HETATM   24  C   UNL     1     -39.822  50.851 -52.940  1.00  0.00     0.105 A 
HETATM   25  O   UNL     1     -39.817  51.255 -50.702  1.00  0.00    -0.323 OA
HETATM   26  O   UNL     1     -39.469  49.631 -52.453  1.00  0.00    -0.323 OA
HETATM   27  C   UNL     1     -39.988  51.169 -54.268  1.00  0.00     0.041 A 
HETATM   28  C   UNL     1     -39.470  49.892 -51.034  1.00  0.00     0.352 A 
HETATM   29  C   UNL     1     -40.361  52.482 -54.577  1.00  0.00     0.020 A 
ENDBRANCH  18  21
ENDBRANCH   2  17
TORSDOF 5
ENDMDL
MODEL 6
REMARK VINA RESULT:      -7.5      1.471      1.945
REMARK  5 active torsions:
REMARK  status: ('A' for Active; 'I' for Inactive)
REMARK    1  A    between atoms: O_2  and  C_3 
REMARK    2  A    between atoms: C_6  and  C_7 
REMARK    3  A    between atoms: C_12  and  C_13 
REMARK    4  A    between atoms: N_14  and  N_15 
REMARK       I    between atoms: N_15  and  C_16 
REMARK    5  A    between atoms: C_16  and  C_17 
ROOT
HETATM    1  C   UNL     1     -42.424  56.427 -53.108  1.00  0.00     0.154 C 
HETATM    2  N   UNL     1     -41.616  56.605 -54.105  1.00  0.00    -0.183 NA
ENDROOT
BRANCH   1   3
HETATM    3  C   UNL     1     -41.907  56.572 -51.764  1.00  0.00     0.031 A 
HETATM    4  C   UNL     1     -41.189  55.629 -50.961  1.00  0.00     0.100 A 
HETATM    5  N   UNL     1     -40.932  56.138 -49.743  1.00  0.00    -0.174 NA
HETATM    6  N   UNL     1     -41.437  57.376 -49.778  1.00  0.00    -0.288 N 
HETATM    7  H   UNL     1     -41.346  57.955 -48.950  1.00  0.00     0.188 HD
HETATM    8  C   UNL     1     -42.030  57.688 -50.960  1.00  0.00     0.124 A 
BRANCH   4   9
HETATM    9  C   UNL     1     -40.749  54.273 -51.299  1.00  0.00    -0.005 A 
HETATM   10  C   UNL     1     -40.498  53.933 -52.635  1.00  0.00     0.016 A 
HETATM   11  C   UNL     1     -40.073  52.643 -52.981  1.00  0.00     0.037 A 
HETATM   12  C   UNL     1     -39.897  51.676 -51.994  1.00  0.00     0.068 A 
HETATM   13  C   UNL     1     -40.161  52.006 -50.663  1.00  0.00     0.037 A 
HETATM   14  C   UNL     1     -40.591  53.291 -50.315  1.00  0.00     0.016 A 
BRANCH  12  15
HETATM   15  O   UNL     1     -39.486  50.387 -52.192  1.00  0.00    -0.356 OA
HETATM   16  C   UNL     1     -39.628  49.493 -51.096  1.00  0.00     0.210 C 
ENDBRANCH  12  15
ENDBRANCH   4   9
ENDBRANCH   1   3
BRANCH   2  17
HETATM   17  N   UNL     1     -42.092  56.483 -55.387  1.00  0.00    -0.243 N 
HETATM   18  C   UNL     1     -42.372  57.524 -56.265  1.00  0.00     0.271 C 
HETATM   19  O   UNL     1     -42.248  58.720 -56.023  1.00  0.00    -0.266 OA
HETATM   20  H   UNL     1     -41.963  55.551 -55.767  1.00  0.00     0.192 HD
BRANCH  18  21
HETATM   21  C   UNL     1     -42.823  57.111 -57.627  1.00  0.00     0.036 A 
HETATM   22  C   UNL     1     -43.800  56.122 -57.817  1.00  0.00     0.057 A 
HETATM   23  C   UNL     1     -44.158  55.821 -59.116  1.00  0.00     0.106 A 
HETATM   24  C   UNL     1     -43.599  56.462 -60.197  1.00  0.00     0.105 A 
HETATM   25  O   UNL     1     -45.082  54.893 -59.485  1.00  0.00    -0.323 OA
HETATM   26  O   UNL     1     -44.099  56.016 -61.381  1.00  0.00    -0.323 OA
HETATM   27  C   UNL     1     -42.650  57.447 -60.045  1.00  0.00     0.041 A 
HETATM   28  C   UNL     1     -45.040  55.023 -60.923  1.00  0.00     0.352 A 
HETATM   29  C   UNL     1     -42.263  57.776 -58.742  1.00  0.00     0.020 A 
ENDBRANCH  18  21
ENDBRANCH   2  17
TORSDOF 5
ENDMDL
MODEL 7
REMARK VINA RESULT:      -7.5     15.261     17.591
REMARK  5 active torsions:
REMARK  status: ('A' for Active; 'I' for Inactive)
REMARK    1  A    between atoms: O_2  and  C_3 
REMARK    2  A    between atoms: C_6  and  C_7 
REMARK    3  A    between atoms: C_12  and  C_13 
REMARK    4  A    between atoms: N_14  and  N_15 
REMARK       I    between atoms: N_15  and  C_16 
REMARK    5  A    between atoms: C_16  and  C_17 
ROOT
HETATM    1  C   UNL     1     -38.230  40.800 -53.385  1.00  0.00     0.154 C 
HETATM    2  N   UNL     1     -38.517  40.758 -52.123  1.00  0.00    -0.183 NA
ENDROOT
BRANCH   1   3
HETATM    3  C   UNL     1     -36.999  41.442 -53.794  1.00  0.00     0.031 A 
HETATM    4  C   UNL     1     -36.409  41.527 -55.096  1.00  0.00     0.100 A 
HETATM    5  N   UNL     1     -35.228  42.169 -55.043  1.00  0.00    -0.174 NA
HETATM    6  N   UNL     1     -35.086  42.514 -53.758  1.00  0.00    -0.288 N 
HETATM    7  H   UNL     1     -34.253  43.026 -53.488  1.00  0.00     0.188 HD
HETATM    8  C   UNL     1     -36.114  42.107 -52.969  1.00  0.00     0.124 A 
BRANCH   4   9
HETATM    9  C   UNL     1     -36.912  41.018 -56.374  1.00  0.00    -0.005 A 
HETATM   10  C   UNL     1     -37.048  41.886 -57.466  1.00  0.00     0.016 A 
HETATM   11  C   UNL     1     -37.523  41.423 -58.699  1.00  0.00     0.037 A 
HETATM   12  C   UNL     1     -37.872  40.083 -58.855  1.00  0.00     0.068 A 
HETATM   13  C   UNL     1     -37.752  39.217 -57.766  1.00  0.00     0.037 A 
HETATM   14  C   UNL     1     -37.283  39.679 -56.532  1.00  0.00     0.016 A 
BRANCH  12  15
HETATM   15  O   UNL     1     -38.343  39.500 -59.999  1.00  0.00    -0.356 OA
HETATM   16  C   UNL     1     -37.498  39.554 -61.141  1.00  0.00     0.210 C 
ENDBRANCH  12  15
ENDBRANCH   4   9
ENDBRANCH   1   3
BRANCH   2  17
HETATM   17  N   UNL     1     -39.675  40.141 -51.715  1.00  0.00    -0.243 N 
HETATM   18  C   UNL     1     -39.779  38.879 -51.142  1.00  0.00     0.271 C 
HETATM   19  O   UNL     1     -38.848  38.111 -50.923  1.00  0.00    -0.266 OA
HETATM   20  H   UNL     1     -40.445  40.791 -51.599  1.00  0.00     0.192 HD
BRANCH  18  21
HETATM   21  C   UNL     1     -41.156  38.471 -50.735  1.00  0.00     0.036 A 
HETATM   22  C   UNL     1     -41.579  38.518 -49.398  1.00  0.00     0.057 A 
HETATM   23  C   UNL     1     -42.876  38.131 -49.125  1.00  0.00     0.106 A 
HETATM   24  C   UNL     1     -43.742  37.723 -50.114  1.00  0.00     0.105 A 
HETATM   25  O   UNL     1     -43.451  38.111 -47.892  1.00  0.00    -0.323 OA
HETATM   26  O   UNL     1     -44.968  37.394 -49.626  1.00  0.00    -0.323 OA
HETATM   27  C   UNL     1     -43.364  37.682 -51.436  1.00  0.00     0.041 A 
HETATM   28  C   UNL     1     -44.779  37.644 -48.218  1.00  0.00     0.352 A 
HETATM   29  C   UNL     1     -42.055  38.065 -51.747  1.00  0.00     0.020 A 
ENDBRANCH  18  21
ENDBRANCH   2  17
TORSDOF 5
ENDMDL
MODEL 8
REMARK VINA RESULT:      -7.5      4.131      7.521
REMARK  5 active torsions:
REMARK  status: ('A' for Active; 'I' for Inactive)
REMARK    1  A    between atoms: O_2  and  C_3 
REMARK    2  A    between atoms: C_6  and  C_7 
REMARK    3  A    between atoms: C_12  and  C_13 
REMARK    4  A    between atoms: N_14  and  N_15 
REMARK       I    between atoms: N_15  and  C_16 
REMARK    5  A    between atoms: C_16  and  C_17 
ROOT
HETATM    1  C   UNL     1     -41.940  55.889 -50.312  1.00  0.00     0.154 C 
HETATM    2  N   UNL     1     -41.600  56.964 -50.949  1.00  0.00    -0.183 NA
ENDROOT
BRANCH   1   3
HETATM    3  C   UNL     1     -41.191  54.674 -50.556  1.00  0.00     0.031 A 
HETATM    4  C   UNL     1     -41.030  53.936 -51.772  1.00  0.00     0.100 A 
HETATM    5  N   UNL     1     -40.295  52.829 -51.564  1.00  0.00    -0.174 NA
HETATM    6  N   UNL     1     -39.968  52.877 -50.268  1.00  0.00    -0.288 N 
HETATM    7  H   UNL     1     -39.395  52.130 -49.890  1.00  0.00     0.188 HD
HETATM    8  C   UNL     1     -40.475  53.957 -49.618  1.00  0.00     0.124 A 
BRANCH   4   9
HETATM    9  C   UNL     1     -41.551  54.232 -53.109  1.00  0.00    -0.005 A 
HETATM   10  C   UNL     1     -42.933  54.347 -53.311  1.00  0.00     0.016 A 
HETATM   11  C   UNL     1     -43.453  54.633 -54.580  1.00  0.00     0.037 A 
HETATM   12  C   UNL     1     -42.596  54.804 -55.665  1.00  0.00     0.068 A 
HETATM   13  C   UNL     1     -41.219  54.676 -55.472  1.00  0.00     0.037 A 
HETATM   14  C   UNL     1     -40.698  54.384 -54.207  1.00  0.00     0.016 A 
BRANCH  12  15
HETATM   15  O   UNL     1     -42.969  55.089 -56.950  1.00  0.00    -0.356 OA
HETATM   16  C   UNL     1     -43.126  56.463 -57.282  1.00  0.00     0.210 C 
ENDBRANCH  12  15
ENDBRANCH   4   9
ENDBRANCH   1   3
BRANCH   2  17
HETATM   17  N   UNL     1     -42.291  58.129 -50.720  1.00  0.00    -0.243 N 
HETATM   18  C   UNL     1     -41.885  59.411 -51.071  1.00  0.00     0.271 C 
HETATM   19  O   UNL     1     -40.834  59.703 -51.631  1.00  0.00    -0.266 OA
HETATM   20  H   UNL     1     -43.273  57.969 -50.521  1.00  0.00     0.192 HD
BRANCH  18  21
HETATM   21  C   UNL     1     -42.858  60.500 -50.760  1.00  0.00     0.036 A 
HETATM   22  C   UNL     1     -44.223  60.242 -50.562  1.00  0.00     0.057 A 
HETATM   23  C   UNL     1     -45.039  61.316 -50.267  1.00  0.00     0.106 A 
HETATM   24  C   UNL     1     -44.550  62.598 -50.154  1.00  0.00     0.105 A 
HETATM   25  O   UNL     1     -46.380  61.252 -50.048  1.00  0.00    -0.323 OA
HETATM   26  O   UNL     1     -45.523  63.499 -49.851  1.00  0.00    -0.323 OA
HETATM   27  C   UNL     1     -43.215  62.882 -50.325  1.00  0.00     0.041 A 
HETATM   28  C   UNL     1     -46.680  62.640 -49.783  1.00  0.00     0.352 A 
HETATM   29  C   UNL     1     -42.360  61.817 -50.628  1.00  0.00     0.020 A 
ENDBRANCH  18  21
ENDBRANCH   2  17
TORSDOF 5
ENDMDL
MODEL 9
REMARK VINA RESULT:      -7.5      3.409      8.699
REMARK  5 active torsions:
REMARK  status: ('A' for Active; 'I' for Inactive)
REMARK    1  A    between atoms: O_2  and  C_3 
REMARK    2  A    between atoms: C_6  and  C_7 
REMARK    3  A    between atoms: C_12  and  C_13 
REMARK    4  A    between atoms: N_14  and  N_15 
REMARK       I    between atoms: N_15  and  C_16 
REMARK    5  A    between atoms: C_16  and  C_17 
ROOT
HETATM    1  C   UNL     1     -43.007  55.464 -57.277  1.00  0.00     0.154 C 
HETATM    2  N   UNL     1     -41.945  55.696 -56.572  1.00  0.00    -0.183 NA
ENDROOT
BRANCH   1   3
HETATM    3  C   UNL     1     -43.468  56.488 -58.190  1.00  0.00     0.031 A 
HETATM    4  C   UNL     1     -43.934  57.812 -57.907  1.00  0.00     0.100 A 
HETATM    5  N   UNL     1     -44.322  58.432 -59.037  1.00  0.00    -0.174 NA
HETATM    6  N   UNL     1     -44.079  57.548 -60.011  1.00  0.00    -0.288 N 
HETATM    7  H   UNL     1     -44.292  57.814 -60.966  1.00  0.00     0.188 HD
HETATM    8  C   UNL     1     -43.568  56.371 -59.562  1.00  0.00     0.124 A 
BRANCH   4   9
HETATM    9  C   UNL     1     -44.035  58.503 -56.619  1.00  0.00    -0.005 A 
HETATM   10  C   UNL     1     -43.056  59.435 -56.249  1.00  0.00     0.016 A 
HETATM   11  C   UNL     1     -43.133  60.110 -55.024  1.00  0.00     0.037 A 
HETATM   12  C   UNL     1     -44.189  59.858 -54.151  1.00  0.00     0.068 A 
HETATM   13  C   UNL     1     -45.159  58.919 -54.510  1.00  0.00     0.037 A 
HETATM   14  C   UNL     1     -45.081  58.239 -55.730  1.00  0.00     0.016 A 
BRANCH  12  15
HETATM   15  O   UNL     1     -44.387  60.447 -52.933  1.00  0.00    -0.356 OA
HETATM   16  C   UNL     1     -45.348  59.842 -52.077  1.00  0.00     0.210 C 
ENDBRANCH  12  15
ENDBRANCH   4   9
ENDBRANCH   1   3
BRANCH   2  17
HETATM   17  N   UNL     1     -41.486  54.730 -55.709  1.00  0.00    -0.243 N 
HETATM   18  C   UNL     1     -40.908  54.945 -54.464  1.00  0.00     0.271 C 
HETATM   19  O   UNL     1     -40.706  56.038 -53.945  1.00  0.00    -0.266 OA
HETATM   20  H   UNL     1     -41.855  53.809 -55.920  1.00  0.00     0.192 HD
BRANCH  18  21
HETATM   21  C   UNL     1     -40.550  53.712 -53.701  1.00  0.00     0.036 A 
HETATM   22  C   UNL     1     -40.330  52.482 -54.339  1.00  0.00     0.057 A 
HETATM   23  C   UNL     1     -39.992  51.404 -53.545  1.00  0.00     0.106 A 
HETATM   24  C   UNL     1     -39.860  51.512 -52.180  1.00  0.00     0.105 A 
HETATM   25  O   UNL     1     -39.745  50.143 -53.992  1.00  0.00    -0.323 OA
HETATM   26  O   UNL     1     -39.516  50.333 -51.597  1.00  0.00    -0.323 OA
HETATM   27  C   UNL     1     -40.053  52.707 -51.526  1.00  0.00     0.041 A 
HETATM   28  C   UNL     1     -39.442  49.469 -52.750  1.00  0.00     0.352 A 
HETATM   29  C   UNL     1     -40.399  53.820 -52.299  1.00  0.00     0.020 A 
ENDBRANCH  18  21
ENDBRANCH   2  17
TORSDOF 5
ENDMDL
MODEL 10
REMARK VINA RESULT:      -7.4      1.875      2.300
REMARK  5 active torsions:
REMARK  status: ('A' for Active; 'I' for Inactive)
REMARK    1  A    between atoms: O_2  and  C_3 
REMARK    2  A    between atoms: C_6  and  C_7 
REMARK    3  A    between atoms: C_12  and  C_13 
REMARK    4  A    between atoms: N_14  and  N_15 
REMARK       I    between atoms: N_15  and  C_16 
REMARK    5  A    between atoms: C_16  and  C_17 
ROOT
HETATM    1  C   UNL     1     -42.413  57.006 -53.319  1.00  0.00     0.154 C 
HETATM    2  N   UNL     1     -41.547  57.408 -54.194  1.00  0.00    -0.183 NA
ENDROOT
BRANCH   1   3
HETATM    3  C   UNL     1     -41.944  56.632 -52.002  1.00  0.00     0.031 A 
HETATM    4  C   UNL     1     -41.377  55.394 -51.558  1.00  0.00     0.100 A 
HETATM    5  N   UNL     1     -41.117  55.434 -50.239  1.00  0.00    -0.174 NA
HETATM    6  N   UNL     1     -41.473  56.667 -49.860  1.00  0.00    -0.288 N 
HETATM    7  H   UNL     1     -41.351  56.923 -48.886  1.00  0.00     0.188 HD
HETATM    8  C   UNL     1     -41.971  57.425 -50.871  1.00  0.00     0.124 A 
BRANCH   4   9
HETATM    9  C   UNL     1     -41.085  54.182 -52.328  1.00  0.00    -0.005 A 
HETATM   10  C   UNL     1     -40.144  53.261 -51.849  1.00  0.00     0.016 A 
HETATM   11  C   UNL     1     -39.850  52.094 -52.565  1.00  0.00     0.037 A 
HETATM   12  C   UNL     1     -40.492  51.835 -53.774  1.00  0.00     0.068 A 
HETATM   13  C   UNL     1     -41.421  52.757 -54.263  1.00  0.00     0.037 A 
HETATM   14  C   UNL     1     -41.711  53.927 -53.552  1.00  0.00     0.016 A 
BRANCH  12  15
HETATM   15  O   UNL     1     -40.304  50.738 -54.569  1.00  0.00    -0.356 OA
HETATM   16  C   UNL     1     -39.384  49.759 -54.104  1.00  0.00     0.210 C 
ENDBRANCH  12  15
ENDBRANCH   4   9
ENDBRANCH   1   3
BRANCH   2  17
HETATM   17  N   UNL     1     -41.977  57.779 -55.445  1.00  0.00    -0.243 N 
HETATM   18  C   UNL     1     -42.373  56.925 -56.467  1.00  0.00     0.271 C 
HETATM   19  O   UNL     1     -42.387  55.700 -56.414  1.00  0.00    -0.266 OA
HETATM   20  H   UNL     1     -42.260  58.753 -55.489  1.00  0.00     0.192 HD
BRANCH  18  21
HETATM   21  C   UNL     1     -42.854  57.595 -57.712  1.00  0.00     0.036 A 
HETATM   22  C   UNL     1     -42.860  58.991 -57.850  1.00  0.00     0.057 A 
HETATM   23  C   UNL     1     -43.313  59.512 -59.045  1.00  0.00     0.106 A 
HETATM   24  C   UNL     1     -43.736  58.710 -60.080  1.00  0.00     0.105 A 
HETATM   25  O   UNL     1     -43.390  60.836 -59.350  1.00  0.00    -0.323 OA
HETATM   26  O   UNL     1     -44.134  59.429 -61.164  1.00  0.00    -0.323 OA
HETATM   27  C   UNL     1     -43.728  57.338 -59.984  1.00  0.00     0.041 A 
HETATM   28  C   UNL     1     -43.910  60.775 -60.697  1.00  0.00     0.352 A 
HETATM   29  C   UNL     1     -43.277  56.776 -58.785  1.00  0.00     0.020 A 
ENDBRANCH  18  21
ENDBRANCH   2  17
TORSDOF 5
ENDMDL
