MODEL 1
REMARK VINA RESULT:      -8.3      0.000      0.000
REMARK  7 active torsions:
REMARK  status: ('A' for Active; 'I' for Inactive)
REMARK    1  A    between atoms: O_2  and  C_3 
REMARK    2  A    between atoms: C_4  and  O_5 
REMARK    3  A    between atoms: C_13  and  C_14 
REMARK       I    between atoms: C_14  and  N_15 
REMARK    4  A    between atoms: N_15  and  C_16 
REMARK    5  A    between atoms: C_16  and  C_17 
REMARK    6  A    between atoms: C_17  and  C_18 
REMARK    7  A    between atoms: C_18  and  C_19 
ROOT
HETATM    1  C   UNL     1     -42.854  55.709 -53.660  1.00  0.00     0.268 C 
HETATM    2  N   UNL     1     -42.593  56.667 -52.710  1.00  0.00    -0.356 N 
HETATM    3  O   UNL     1     -43.063  54.534 -53.375  1.00  0.00    -0.266 OA
HETATM    4  H   UNL     1     -42.283  57.585 -53.001  1.00  0.00     0.162 HD
ENDROOT
BRANCH   1   5
HETATM    5  C   UNL     1     -42.816  56.171 -55.029  1.00  0.00     0.102 A 
HETATM    6  N   UNL     1     -43.400  55.441 -56.043  1.00  0.00    -0.351 N 
HETATM    7  C   UNL     1     -43.186  56.033 -57.263  1.00  0.00     0.045 A 
HETATM    8  H   UNL     1     -43.891  54.569 -55.891  1.00  0.00     0.166 HD
HETATM    9  C   UNL     1     -43.563  55.627 -58.546  1.00  0.00     0.070 A 
HETATM   10  C   UNL     1     -42.481  57.206 -57.028  1.00  0.00    -0.004 A 
HETATM   11  C   UNL     1     -43.209  56.438 -59.637  1.00  0.00     0.103 A 
HETATM   12  C   UNL     1     -42.463  57.610 -59.435  1.00  0.00     0.102 A 
HETATM   13  C   UNL     1     -42.129  58.014 -58.128  1.00  0.00     0.053 A 
HETATM   14  C   UNL     1     -42.267  57.294 -55.624  1.00  0.00     0.049 A 
BRANCH  11  15
HETATM   15  O   UNL     1     -43.624  55.908 -60.835  1.00  0.00    -0.353 OA
HETATM   16  C   UNL     1     -44.815  55.133 -60.832  1.00  0.00     0.210 C 
ENDBRANCH  11  15
BRANCH  12  17
HETATM   17  O   UNL     1     -42.095  58.361 -60.524  1.00  0.00    -0.353 OA
HETATM   18  C   UNL     1     -42.634  59.678 -60.568  1.00  0.00     0.210 C 
ENDBRANCH  12  17
ENDBRANCH   1   5
BRANCH   2  19
HETATM   19  C   UNL     1     -42.432  56.341 -51.311  1.00  0.00     0.123 C 
BRANCH  19  20
HETATM   20  C   UNL     1     -40.971  56.103 -50.920  1.00  0.00     0.027 C 
BRANCH  20  21
HETATM   21  C   UNL     1     -40.741  54.879 -50.030  1.00  0.00     0.080 C 
BRANCH  21  22
HETATM   22  C   UNL     1     -40.431  53.654 -50.819  1.00  0.00     0.105 A 
HETATM   23  N   UNL     1     -40.188  52.452 -50.336  1.00  0.00    -0.233 NA
HETATM   24  C   UNL     1     -39.970  51.652 -51.434  1.00  0.00     0.085 A 
HETATM   25  C   UNL     1     -40.086  52.383 -52.611  1.00  0.00     0.062 A 
HETATM   26  C   UNL     1     -39.668  50.285 -51.505  1.00  0.00     0.034 A 
HETATM   27  N   UNL     1     -40.375  53.655 -52.191  1.00  0.00    -0.343 N 
HETATM   28  C   UNL     1     -39.920  51.827 -53.880  1.00  0.00     0.032 A 
HETATM   29  H   UNL     1     -40.524  54.455 -52.789  1.00  0.00     0.167 HD
HETATM   30  C   UNL     1     -39.620  50.460 -53.932  1.00  0.00     0.002 A 
HETATM   31  C   UNL     1     -39.494  49.700 -52.766  1.00  0.00     0.002 A 
ENDBRANCH  21  22
ENDBRANCH  20  21
ENDBRANCH  19  20
ENDBRANCH   2  19
TORSDOF 7
ENDMDL
MODEL 2
REMARK VINA RESULT:      -8.1      1.082      2.407
REMARK  7 active torsions:
REMARK  status: ('A' for Active; 'I' for Inactive)
REMARK    1  A    between atoms: O_2  and  C_3 
REMARK    2  A    between atoms: C_4  and  O_5 
REMARK    3  A    between atoms: C_13  and  C_14 
REMARK       I    between atoms: C_14  and  N_15 
REMARK    4  A    between atoms: N_15  and  C_16 
REMARK    5  A    between atoms: C_16  and  C_17 
REMARK    6  A    between atoms: C_17  and  C_18 
REMARK    7  A    between atoms: C_18  and  C_19 
ROOT
HETATM    1  C   UNL     1     -41.817  56.875 -53.721  1.00  0.00     0.268 C 
HETATM    2  N   UNL     1     -42.777  56.431 -52.844  1.00  0.00    -0.356 N 
HETATM    3  O   UNL     1     -40.771  57.398 -53.348  1.00  0.00    -0.266 OA
HETATM    4  H   UNL     1     -43.681  56.145 -53.198  1.00  0.00     0.162 HD
ENDROOT
BRANCH   1   5
HETATM    5  C   UNL     1     -42.145  56.729 -55.120  1.00  0.00     0.102 A 
HETATM    6  N   UNL     1     -42.052  57.797 -55.988  1.00  0.00    -0.351 N 
HETATM    7  C   UNL     1     -42.473  57.448 -57.247  1.00  0.00     0.045 A 
HETATM    8  H   UNL     1     -41.740  58.719 -55.707  1.00  0.00     0.166 HD
HETATM    9  C   UNL     1     -42.579  58.213 -58.412  1.00  0.00     0.070 A 
HETATM   10  C   UNL     1     -42.808  56.101 -57.206  1.00  0.00    -0.004 A 
HETATM   11  C   UNL     1     -43.046  57.591 -59.582  1.00  0.00     0.103 A 
HETATM   12  C   UNL     1     -43.428  56.240 -59.562  1.00  0.00     0.102 A 
HETATM   13  C   UNL     1     -43.276  55.484 -58.383  1.00  0.00     0.053 A 
HETATM   14  C   UNL     1     -42.583  55.653 -55.873  1.00  0.00     0.049 A 
BRANCH  11  15
HETATM   15  O   UNL     1     -43.120  58.464 -60.641  1.00  0.00    -0.353 OA
HETATM   16  C   UNL     1     -42.072  59.413 -60.782  1.00  0.00     0.210 C 
ENDBRANCH  11  15
BRANCH  12  17
HETATM   17  O   UNL     1     -43.921  55.670 -60.710  1.00  0.00    -0.353 OA
HETATM   18  C   UNL     1     -45.037  54.803 -60.529  1.00  0.00     0.210 C 
ENDBRANCH  12  17
ENDBRANCH   1   5
BRANCH   2  19
HETATM   19  C   UNL     1     -42.679  56.650 -51.419  1.00  0.00     0.123 C 
BRANCH  19  20
HETATM   20  C   UNL     1     -42.379  55.366 -50.639  1.00  0.00     0.027 C 
BRANCH  20  21
HETATM   21  C   UNL     1     -40.900  54.971 -50.605  1.00  0.00     0.080 C 
BRANCH  21  22
HETATM   22  C   UNL     1     -40.614  53.769 -51.436  1.00  0.00     0.105 A 
HETATM   23  N   UNL     1     -40.771  53.663 -52.740  1.00  0.00    -0.233 NA
HETATM   24  C   UNL     1     -40.369  52.385 -53.056  1.00  0.00     0.085 A 
HETATM   25  C   UNL     1     -39.954  51.701 -51.919  1.00  0.00     0.062 A 
HETATM   26  C   UNL     1     -40.328  51.737 -54.298  1.00  0.00     0.034 A 
HETATM   27  N   UNL     1     -40.124  52.603 -50.902  1.00  0.00    -0.343 N 
HETATM   28  C   UNL     1     -39.489  50.385 -51.942  1.00  0.00     0.032 A 
HETATM   29  H   UNL     1     -39.922  52.438 -49.926  1.00  0.00     0.167 HD
HETATM   30  C   UNL     1     -39.454  49.754 -53.190  1.00  0.00     0.002 A 
HETATM   31  C   UNL     1     -39.867  50.414 -54.351  1.00  0.00     0.002 A 
ENDBRANCH  21  22
ENDBRANCH  20  21
ENDBRANCH  19  20
ENDBRANCH   2  19
TORSDOF 7
ENDMDL
MODEL 3
REMARK VINA RESULT:      -7.8      2.788      7.821
REMARK  7 active torsions:
REMARK  status: ('A' for Active; 'I' for Inactive)
REMARK    1  A    between atoms: O_2  and  C_3 
REMARK    2  A    between atoms: C_4  and  O_5 
REMARK    3  A    between atoms: C_13  and  C_14 
REMARK       I    between atoms: C_14  and  N_15 
REMARK    4  A    between atoms: N_15  and  C_16 
REMARK    5  A    between atoms: C_16  and  C_17 
REMARK    6  A    between atoms: C_17  and  C_18 
REMARK    7  A    between atoms: C_18  and  C_19 
ROOT
HETATM    1  C   UNL     1     -42.920  56.802 -56.066  1.00  0.00     0.268 C 
HETATM    2  N   UNL     1     -42.103  57.389 -57.002  1.00  0.00    -0.356 N 
HETATM    3  O   UNL     1     -44.072  57.174 -55.866  1.00  0.00    -0.266 OA
HETATM    4  H   UNL     1     -41.121  57.149 -57.027  1.00  0.00     0.162 HD
ENDROOT
BRANCH   1   5
HETATM    5  C   UNL     1     -42.311  55.744 -55.292  1.00  0.00     0.102 A 
HETATM    6  N   UNL     1     -41.990  55.928 -53.964  1.00  0.00    -0.351 N 
HETATM    7  C   UNL     1     -41.365  54.819 -53.449  1.00  0.00     0.045 A 
HETATM    8  H   UNL     1     -42.174  56.786 -53.459  1.00  0.00     0.166 HD
HETATM    9  C   UNL     1     -40.845  54.581 -52.174  1.00  0.00     0.070 A 
HETATM   10  C   UNL     1     -41.318  53.871 -54.463  1.00  0.00    -0.004 A 
HETATM   11  C   UNL     1     -40.250  53.335 -51.914  1.00  0.00     0.103 A 
HETATM   12  C   UNL     1     -40.154  52.371 -52.930  1.00  0.00     0.102 A 
HETATM   13  C   UNL     1     -40.719  52.624 -54.195  1.00  0.00     0.053 A 
HETATM   14  C   UNL     1     -41.928  54.452 -55.611  1.00  0.00     0.049 A 
BRANCH  11  15
HETATM   15  O   UNL     1     -39.765  53.249 -50.632  1.00  0.00    -0.353 OA
HETATM   16  C   UNL     1     -40.392  54.047 -49.638  1.00  0.00     0.210 C 
ENDBRANCH  11  15
BRANCH  12  17
HETATM   17  O   UNL     1     -39.529  51.179 -52.659  1.00  0.00    -0.353 OA
HETATM   18  C   UNL     1     -39.717  50.157 -53.633  1.00  0.00     0.210 C 
ENDBRANCH  12  17
ENDBRANCH   1   5
BRANCH   2  19
HETATM   19  C   UNL     1     -42.502  58.564 -57.744  1.00  0.00     0.123 C 
BRANCH  19  20
HETATM   20  C   UNL     1     -41.904  59.856 -57.179  1.00  0.00     0.027 C 
BRANCH  20  21
HETATM   21  C   UNL     1     -42.732  60.509 -56.069  1.00  0.00     0.080 C 
BRANCH  21  22
HETATM   22  C   UNL     1     -42.236  60.160 -54.709  1.00  0.00     0.105 A 
HETATM   23  N   UNL     1     -41.255  59.327 -54.422  1.00  0.00    -0.233 NA
HETATM   24  C   UNL     1     -41.154  59.337 -53.050  1.00  0.00     0.085 A 
HETATM   25  C   UNL     1     -42.091  60.197 -52.490  1.00  0.00     0.062 A 
HETATM   26  C   UNL     1     -40.280  58.635 -52.209  1.00  0.00     0.034 A 
HETATM   27  N   UNL     1     -42.770  60.705 -53.567  1.00  0.00    -0.343 N 
HETATM   28  C   UNL     1     -42.214  60.410 -51.116  1.00  0.00     0.032 A 
HETATM   29  H   UNL     1     -43.531  61.367 -53.527  1.00  0.00     0.167 HD
HETATM   30  C   UNL     1     -41.332  59.702 -50.290  1.00  0.00     0.002 A 
HETATM   31  C   UNL     1     -40.381  58.828 -50.824  1.00  0.00     0.002 A 
ENDBRANCH  21  22
ENDBRANCH  20  21
ENDBRANCH  19  20
ENDBRANCH   2  19
TORSDOF 7
ENDMDL
MODEL 4
REMARK VINA RESULT:      -7.8      3.920      6.555
REMARK  7 active torsions:
REMARK  status: ('A' for Active; 'I' for Inactive)
REMARK    1  A    between atoms: O_2  and  C_3 
REMARK    2  A    between atoms: C_4  and  O_5 
REMARK    3  A    between atoms: C_13  and  C_14 
REMARK       I    between atoms: C_14  and  N_15 
REMARK    4  A    between atoms: N_15  and  C_16 
REMARK    5  A    between atoms: C_16  and  C_17 
REMARK    6  A    between atoms: C_17  and  C_18 
REMARK    7  A    between atoms: C_18  and  C_19 
ROOT
HETATM    1  C   UNL     1     -40.361  52.127 -50.532  1.00  0.00     0.268 C 
HETATM    2  N   UNL     1     -39.568  51.703 -51.571  1.00  0.00    -0.356 N 
HETATM    3  O   UNL     1     -40.700  51.388 -49.613  1.00  0.00    -0.266 OA
HETATM    4  H   UNL     1     -39.439  52.302 -52.376  1.00  0.00     0.162 HD
ENDROOT
BRANCH   1   5
HETATM    5  C   UNL     1     -40.814  53.497 -50.621  1.00  0.00     0.102 A 
HETATM    6  N   UNL     1     -42.122  53.794 -50.942  1.00  0.00    -0.351 N 
HETATM    7  C   UNL     1     -42.311  55.151 -51.034  1.00  0.00     0.045 A 
HETATM    8  H   UNL     1     -42.828  53.089 -51.114  1.00  0.00     0.166 HD
HETATM    9  C   UNL     1     -43.452  55.887 -51.365  1.00  0.00     0.070 A 
HETATM   10  C   UNL     1     -41.100  55.753 -50.719  1.00  0.00    -0.004 A 
HETATM   11  C   UNL     1     -43.364  57.289 -51.381  1.00  0.00     0.103 A 
HETATM   12  C   UNL     1     -42.143  57.925 -51.104  1.00  0.00     0.102 A 
HETATM   13  C   UNL     1     -41.019  57.160 -50.739  1.00  0.00     0.053 A 
HETATM   14  C   UNL     1     -40.171  54.710 -50.445  1.00  0.00     0.049 A 
BRANCH  11  15
HETATM   15  O   UNL     1     -44.551  57.880 -51.743  1.00  0.00    -0.353 OA
HETATM   16  C   UNL     1     -44.741  58.180 -53.119  1.00  0.00     0.210 C 
ENDBRANCH  11  15
BRANCH  12  17
HETATM   17  O   UNL     1     -42.077  59.295 -51.170  1.00  0.00    -0.353 OA
HETATM   18  C   UNL     1     -41.212  59.910 -50.219  1.00  0.00     0.210 C 
ENDBRANCH  12  17
ENDBRANCH   1   5
BRANCH   2  19
HETATM   19  C   UNL     1     -39.166  50.323 -51.719  1.00  0.00     0.123 C 
BRANCH  19  20
HETATM   20  C   UNL     1     -39.865  49.620 -52.886  1.00  0.00     0.027 C 
BRANCH  20  21
HETATM   21  C   UNL     1     -39.626  50.265 -54.254  1.00  0.00     0.080 C 
BRANCH  21  22
HETATM   22  C   UNL     1     -40.198  51.638 -54.343  1.00  0.00     0.105 A 
HETATM   23  N   UNL     1     -39.529  52.771 -54.287  1.00  0.00    -0.233 NA
HETATM   24  C   UNL     1     -40.473  53.763 -54.425  1.00  0.00     0.085 A 
HETATM   25  C   UNL     1     -41.744  53.220 -54.570  1.00  0.00     0.062 A 
HETATM   26  C   UNL     1     -40.318  55.156 -54.436  1.00  0.00     0.034 A 
HETATM   27  N   UNL     1     -41.542  51.866 -54.510  1.00  0.00    -0.343 N 
HETATM   28  C   UNL     1     -42.895  53.993 -54.733  1.00  0.00     0.032 A 
HETATM   29  H   UNL     1     -42.259  51.158 -54.579  1.00  0.00     0.167 HD
HETATM   30  C   UNL     1     -42.721  55.382 -54.743  1.00  0.00     0.002 A 
HETATM   31  C   UNL     1     -41.456  55.957 -54.596  1.00  0.00     0.002 A 
ENDBRANCH  21  22
ENDBRANCH  20  21
ENDBRANCH  19  20
ENDBRANCH   2  19
TORSDOF 7
ENDMDL
MODEL 5
REMARK VINA RESULT:      -7.5      1.847      2.614
REMARK  7 active torsions:
REMARK  status: ('A' for Active; 'I' for Inactive)
REMARK    1  A    between atoms: O_2  and  C_3 
REMARK    2  A    between atoms: C_4  and  O_5 
REMARK    3  A    between atoms: C_13  and  C_14 
REMARK       I    between atoms: C_14  and  N_15 
REMARK    4  A    between atoms: N_15  and  C_16 
REMARK    5  A    between atoms: C_16  and  C_17 
REMARK    6  A    between atoms: C_17  and  C_18 
REMARK    7  A    between atoms: C_18  and  C_19 
ROOT
HETATM    1  C   UNL     1     -42.854  58.905 -53.385  1.00  0.00     0.268 C 
HETATM    2  N   UNL     1     -41.712  59.317 -52.742  1.00  0.00    -0.356 N 
HETATM    3  O   UNL     1     -43.899  58.663 -52.788  1.00  0.00    -0.266 OA
HETATM    4  H   UNL     1     -40.840  59.360 -53.254  1.00  0.00     0.162 HD
ENDROOT
BRANCH   1   5
HETATM    5  C   UNL     1     -42.728  58.725 -54.813  1.00  0.00     0.102 A 
HETATM    6  N   UNL     1     -43.055  57.527 -55.412  1.00  0.00    -0.351 N 
HETATM    7  C   UNL     1     -42.796  57.562 -56.759  1.00  0.00     0.045 A 
HETATM    8  H   UNL     1     -43.411  56.728 -54.902  1.00  0.00     0.166 HD
HETATM    9  C   UNL     1     -42.943  56.573 -57.737  1.00  0.00     0.070 A 
HETATM   10  C   UNL     1     -42.328  58.836 -57.052  1.00  0.00    -0.004 A 
HETATM   11  C   UNL     1     -42.598  56.885 -59.063  1.00  0.00     0.103 A 
HETATM   12  C   UNL     1     -42.086  58.153 -59.382  1.00  0.00     0.102 A 
HETATM   13  C   UNL     1     -41.984  59.141 -58.384  1.00  0.00     0.053 A 
HETATM   14  C   UNL     1     -42.304  59.565 -55.829  1.00  0.00     0.049 A 
BRANCH  11  15
HETATM   15  O   UNL     1     -42.771  55.817 -59.909  1.00  0.00    -0.353 OA
HETATM   16  C   UNL     1     -44.099  55.359 -60.125  1.00  0.00     0.210 C 
ENDBRANCH  11  15
BRANCH  12  17
HETATM   17  O   UNL     1     -41.718  58.415 -60.678  1.00  0.00    -0.353 OA
HETATM   18  C   UNL     1     -41.936  59.753 -61.116  1.00  0.00     0.210 C 
ENDBRANCH  12  17
ENDBRANCH   1   5
BRANCH   2  19
HETATM   19  C   UNL     1     -41.622  59.388 -51.301  1.00  0.00     0.123 C 
BRANCH  19  20
HETATM   20  C   UNL     1     -40.843  58.217 -50.695  1.00  0.00     0.027 C 
BRANCH  20  21
HETATM   21  C   UNL     1     -41.642  56.917 -50.570  1.00  0.00     0.080 C 
BRANCH  21  22
HETATM   22  C   UNL     1     -41.289  55.929 -51.627  1.00  0.00     0.105 A 
HETATM   23  N   UNL     1     -41.214  56.160 -52.922  1.00  0.00    -0.233 NA
HETATM   24  C   UNL     1     -40.846  54.961 -53.489  1.00  0.00     0.085 A 
HETATM   25  C   UNL     1     -40.691  53.980 -52.516  1.00  0.00     0.062 A 
HETATM   26  C   UNL     1     -40.623  54.633 -54.833  1.00  0.00     0.034 A 
HETATM   27  N   UNL     1     -40.983  54.621 -51.341  1.00  0.00    -0.343 N 
HETATM   28  C   UNL     1     -40.317  52.666 -52.803  1.00  0.00     0.032 A 
HETATM   29  H   UNL     1     -40.973  54.203 -50.421  1.00  0.00     0.167 HD
HETATM   30  C   UNL     1     -40.097  52.357 -54.150  1.00  0.00     0.002 A 
HETATM   31  C   UNL     1     -40.248  53.321 -55.151  1.00  0.00     0.002 A 
ENDBRANCH  21  22
ENDBRANCH  20  21
ENDBRANCH  19  20
ENDBRANCH   2  19
TORSDOF 7
ENDMDL
MODEL 6
REMARK VINA RESULT:      -7.4      2.496      7.858
REMARK  7 active torsions:
REMARK  status: ('A' for Active; 'I' for Inactive)
REMARK    1  A    between atoms: O_2  and  C_3 
REMARK    2  A    between atoms: C_4  and  O_5 
REMARK    3  A    between atoms: C_13  and  C_14 
REMARK       I    between atoms: C_14  and  N_15 
REMARK    4  A    between atoms: N_15  and  C_16 
REMARK    5  A    between atoms: C_16  and  C_17 
REMARK    6  A    between atoms: C_17  and  C_18 
REMARK    7  A    between atoms: C_18  and  C_19 
ROOT
HETATM    1  C   UNL     1     -42.405  55.433 -56.178  1.00  0.00     0.268 C 
HETATM    2  N   UNL     1     -42.029  56.718 -56.488  1.00  0.00    -0.356 N 
HETATM    3  O   UNL     1     -43.178  54.783 -56.876  1.00  0.00    -0.266 OA
HETATM    4  H   UNL     1     -41.512  57.262 -55.810  1.00  0.00     0.162 HD
ENDROOT
BRANCH   1   5
HETATM    5  C   UNL     1     -41.865  54.913 -54.943  1.00  0.00     0.102 A 
HETATM    6  N   UNL     1     -41.104  53.763 -54.927  1.00  0.00    -0.351 N 
HETATM    7  C   UNL     1     -40.755  53.421 -53.644  1.00  0.00     0.045 A 
HETATM    8  H   UNL     1     -40.870  53.238 -55.760  1.00  0.00     0.166 HD
HETATM    9  C   UNL     1     -40.026  52.329 -53.164  1.00  0.00     0.070 A 
HETATM   10  C   UNL     1     -41.267  54.403 -52.806  1.00  0.00    -0.004 A 
HETATM   11  C   UNL     1     -39.810  52.224 -51.779  1.00  0.00     0.103 A 
HETATM   12  C   UNL     1     -40.349  53.181 -50.904  1.00  0.00     0.102 A 
HETATM   13  C   UNL     1     -41.048  54.290 -51.419  1.00  0.00     0.053 A 
HETATM   14  C   UNL     1     -41.948  55.344 -53.630  1.00  0.00     0.049 A 
BRANCH  11  15
HETATM   15  O   UNL     1     -39.101  51.094 -51.448  1.00  0.00    -0.353 OA
HETATM   16  C   UNL     1     -39.841  49.954 -51.034  1.00  0.00     0.210 C 
ENDBRANCH  11  15
BRANCH  12  17
HETATM   17  O   UNL     1     -40.158  53.029 -49.553  1.00  0.00    -0.353 OA
HETATM   18  C   UNL     1     -40.551  54.140 -48.753  1.00  0.00     0.210 C 
ENDBRANCH  12  17
ENDBRANCH   1   5
BRANCH   2  19
HETATM   19  C   UNL     1     -42.605  57.443 -57.598  1.00  0.00     0.123 C 
BRANCH  19  20
HETATM   20  C   UNL     1     -42.434  58.959 -57.471  1.00  0.00     0.027 C 
BRANCH  20  21
HETATM   21  C   UNL     1     -43.211  59.594 -56.314  1.00  0.00     0.080 C 
BRANCH  21  22
HETATM   22  C   UNL     1     -42.603  59.292 -54.989  1.00  0.00     0.105 A 
HETATM   23  N   UNL     1     -41.324  59.366 -54.678  1.00  0.00    -0.233 NA
HETATM   24  C   UNL     1     -41.247  59.009 -53.351  1.00  0.00     0.085 A 
HETATM   25  C   UNL     1     -42.507  58.714 -52.843  1.00  0.00     0.062 A 
HETATM   26  C   UNL     1     -40.131  58.915 -52.509  1.00  0.00     0.034 A 
HETATM   27  N   UNL     1     -43.351  58.898 -53.907  1.00  0.00    -0.343 N 
HETATM   28  C   UNL     1     -42.731  58.327 -51.521  1.00  0.00     0.032 A 
HETATM   29  H   UNL     1     -44.353  58.767 -53.896  1.00  0.00     0.167 HD
HETATM   30  C   UNL     1     -41.605  58.240 -50.694  1.00  0.00     0.002 A 
HETATM   31  C   UNL     1     -40.325  58.527 -51.177  1.00  0.00     0.002 A 
ENDBRANCH  21  22
ENDBRANCH  20  21
ENDBRANCH  19  20
ENDBRANCH   2  19
TORSDOF 7
ENDMDL
MODEL 7
REMARK VINA RESULT:      -7.4      3.756      6.582
REMARK  7 active torsions:
REMARK  status: ('A' for Active; 'I' for Inactive)
REMARK    1  A    between atoms: O_2  and  C_3 
REMARK    2  A    between atoms: C_4  and  O_5 
REMARK    3  A    between atoms: C_13  and  C_14 
REMARK       I    between atoms: C_14  and  N_15 
REMARK    4  A    between atoms: N_15  and  C_16 
REMARK    5  A    between atoms: C_16  and  C_17 
REMARK    6  A    between atoms: C_17  and  C_18 
REMARK    7  A    between atoms: C_18  and  C_19 
ROOT
HETATM    1  C   UNL     1     -40.749  53.268 -50.615  1.00  0.00     0.268 C 
HETATM    2  N   UNL     1     -40.184  52.732 -51.747  1.00  0.00    -0.356 N 
HETATM    3  O   UNL     1     -40.602  52.772 -49.502  1.00  0.00    -0.266 OA
HETATM    4  H   UNL     1     -40.454  53.088 -52.654  1.00  0.00     0.162 HD
ENDROOT
BRANCH   1   5
HETATM    5  C   UNL     1     -41.574  54.435 -50.831  1.00  0.00     0.102 A 
HETATM    6  N   UNL     1     -41.022  55.634 -51.230  1.00  0.00    -0.351 N 
HETATM    7  C   UNL     1     -41.978  56.616 -51.309  1.00  0.00     0.045 A 
HETATM    8  H   UNL     1     -40.033  55.761 -51.408  1.00  0.00     0.166 HD
HETATM    9  C   UNL     1     -41.862  57.970 -51.637  1.00  0.00     0.070 A 
HETATM   10  C   UNL     1     -43.195  56.025 -50.994  1.00  0.00    -0.004 A 
HETATM   11  C   UNL     1     -43.024  58.759 -51.642  1.00  0.00     0.103 A 
HETATM   12  C   UNL     1     -44.263  58.199 -51.291  1.00  0.00     0.102 A 
HETATM   13  C   UNL     1     -44.356  56.824 -51.001  1.00  0.00     0.053 A 
HETATM   14  C   UNL     1     -42.936  54.654 -50.711  1.00  0.00     0.049 A 
BRANCH  11  15
HETATM   15  O   UNL     1     -42.760  60.070 -51.959  1.00  0.00    -0.353 OA
HETATM   16  C   UNL     1     -42.248  60.340 -53.257  1.00  0.00     0.210 C 
ENDBRANCH  11  15
BRANCH  12  17
HETATM   17  O   UNL     1     -45.374  59.006 -51.263  1.00  0.00    -0.353 OA
HETATM   18  C   UNL     1     -45.547  59.765 -50.070  1.00  0.00     0.210 C 
ENDBRANCH  12  17
ENDBRANCH   1   5
BRANCH   2  19
HETATM   19  C   UNL     1     -39.467  51.477 -51.729  1.00  0.00     0.123 C 
BRANCH  19  20
HETATM   20  C   UNL     1     -39.709  50.636 -52.986  1.00  0.00     0.027 C 
BRANCH  20  21
HETATM   21  C   UNL     1     -39.512  51.390 -54.305  1.00  0.00     0.080 C 
BRANCH  21  22
HETATM   22  C   UNL     1     -40.429  52.556 -54.435  1.00  0.00     0.105 A 
HETATM   23  N   UNL     1     -41.736  52.547 -54.266  1.00  0.00    -0.233 NA
HETATM   24  C   UNL     1     -42.142  53.845 -54.477  1.00  0.00     0.085 A 
HETATM   25  C   UNL     1     -41.058  54.661 -54.778  1.00  0.00     0.062 A 
HETATM   26  C   UNL     1     -43.427  54.404 -54.428  1.00  0.00     0.034 A 
HETATM   27  N   UNL     1     -39.981  53.815 -54.749  1.00  0.00    -0.343 N 
HETATM   28  C   UNL     1     -41.174  56.028 -55.034  1.00  0.00     0.032 A 
HETATM   29  H   UNL     1     -39.021  54.075 -54.927  1.00  0.00     0.167 HD
HETATM   30  C   UNL     1     -42.463  56.570 -54.979  1.00  0.00     0.002 A 
HETATM   31  C   UNL     1     -43.573  55.774 -54.683  1.00  0.00     0.002 A 
ENDBRANCH  21  22
ENDBRANCH  20  21
ENDBRANCH  19  20
ENDBRANCH   2  19
TORSDOF 7
ENDMDL
MODEL 8
REMARK VINA RESULT:      -7.3      2.628      8.153
REMARK  7 active torsions:
REMARK  status: ('A' for Active; 'I' for Inactive)
REMARK    1  A    between atoms: O_2  and  C_3 
REMARK    2  A    between atoms: C_4  and  O_5 
REMARK    3  A    between atoms: C_13  and  C_14 
REMARK       I    between atoms: C_14  and  N_15 
REMARK    4  A    between atoms: N_15  and  C_16 
REMARK    5  A    between atoms: C_16  and  C_17 
REMARK    6  A    between atoms: C_17  and  C_18 
REMARK    7  A    between atoms: C_18  and  C_19 
ROOT
HETATM    1  C   UNL     1     -43.776  56.859 -54.606  1.00  0.00     0.268 C 
HETATM    2  N   UNL     1     -43.118  57.990 -55.025  1.00  0.00    -0.356 N 
HETATM    3  O   UNL     1     -44.991  56.823 -54.438  1.00  0.00    -0.266 OA
HETATM    4  H   UNL     1     -42.107  58.014 -55.006  1.00  0.00     0.162 HD
ENDROOT
BRANCH   1   5
HETATM    5  C   UNL     1     -42.930  55.721 -54.328  1.00  0.00     0.102 A 
HETATM    6  N   UNL     1     -42.534  55.426 -53.040  1.00  0.00    -0.351 N 
HETATM    7  C   UNL     1     -41.686  54.347 -53.020  1.00  0.00     0.045 A 
HETATM    8  H   UNL     1     -42.819  55.965 -52.232  1.00  0.00     0.166 HD
HETATM    9  C   UNL     1     -41.026  53.733 -51.951  1.00  0.00     0.070 A 
HETATM   10  C   UNL     1     -41.563  53.900 -54.329  1.00  0.00    -0.004 A 
HETATM   11  C   UNL     1     -40.205  52.624 -52.219  1.00  0.00     0.103 A 
HETATM   12  C   UNL     1     -40.032  52.173 -53.537  1.00  0.00     0.102 A 
HETATM   13  C   UNL     1     -40.737  52.788 -54.589  1.00  0.00     0.053 A 
HETATM   14  C   UNL     1     -42.360  54.757 -55.141  1.00  0.00     0.049 A 
BRANCH  11  15
HETATM   15  O   UNL     1     -39.604  52.137 -51.084  1.00  0.00    -0.353 OA
HETATM   16  C   UNL     1     -40.261  51.081 -50.395  1.00  0.00     0.210 C 
ENDBRANCH  11  15
BRANCH  12  17
HETATM   17  O   UNL     1     -39.189  51.115 -53.773  1.00  0.00    -0.353 OA
HETATM   18  C   UNL     1     -39.820  49.927 -54.243  1.00  0.00     0.210 C 
ENDBRANCH  12  17
ENDBRANCH   1   5
BRANCH   2  19
HETATM   19  C   UNL     1     -43.793  59.257 -55.189  1.00  0.00     0.123 C 
BRANCH  19  20
HETATM   20  C   UNL     1     -43.282  60.053 -56.393  1.00  0.00     0.027 C 
BRANCH  20  21
HETATM   21  C   UNL     1     -42.389  59.258 -57.349  1.00  0.00     0.080 C 
BRANCH  21  22
HETATM   22  C   UNL     1     -43.143  58.211 -58.093  1.00  0.00     0.105 A 
HETATM   23  N   UNL     1     -42.846  56.929 -58.160  1.00  0.00    -0.233 NA
HETATM   24  C   UNL     1     -43.826  56.364 -58.943  1.00  0.00     0.085 A 
HETATM   25  C   UNL     1     -44.741  57.324 -59.360  1.00  0.00     0.062 A 
HETATM   26  C   UNL     1     -44.001  55.032 -59.342  1.00  0.00     0.034 A 
HETATM   27  N   UNL     1     -44.281  58.491 -58.809  1.00  0.00    -0.343 N 
HETATM   28  C   UNL     1     -45.845  57.034 -60.163  1.00  0.00     0.032 A 
HETATM   29  H   UNL     1     -44.708  59.401 -58.911  1.00  0.00     0.167 HD
HETATM   30  C   UNL     1     -46.006  55.699 -60.551  1.00  0.00     0.002 A 
HETATM   31  C   UNL     1     -45.100  54.712 -60.151  1.00  0.00     0.002 A 
ENDBRANCH  21  22
ENDBRANCH  20  21
ENDBRANCH  19  20
ENDBRANCH   2  19
TORSDOF 7
ENDMDL
MODEL 9
REMARK VINA RESULT:      -7.0     14.198     16.004
REMARK  7 active torsions:
REMARK  status: ('A' for Active; 'I' for Inactive)
REMARK    1  A    between atoms: O_2  and  C_3 
REMARK    2  A    between atoms: C_4  and  O_5 
REMARK    3  A    between atoms: C_13  and  C_14 
REMARK       I    between atoms: C_14  and  N_15 
REMARK    4  A    between atoms: N_15  and  C_16 
REMARK    5  A    between atoms: C_16  and  C_17 
REMARK    6  A    between atoms: C_17  and  C_18 
REMARK    7  A    between atoms: C_18  and  C_19 
ROOT
HETATM    1  C   UNL     1     -35.909  41.856 -52.994  1.00  0.00     0.268 C 
HETATM    2  N   UNL     1     -36.140  40.745 -52.219  1.00  0.00    -0.356 N 
HETATM    3  O   UNL     1     -35.440  42.895 -52.538  1.00  0.00    -0.266 OA
HETATM    4  H   UNL     1     -36.662  39.969 -52.605  1.00  0.00     0.162 HD
ENDROOT
BRANCH   1   5
HETATM    5  C   UNL     1     -36.305  41.736 -54.378  1.00  0.00     0.102 A 
HETATM    6  N   UNL     1     -37.036  40.653 -54.818  1.00  0.00    -0.351 N 
HETATM    7  C   UNL     1     -37.242  40.715 -56.174  1.00  0.00     0.045 A 
HETATM    8  H   UNL     1     -37.346  39.905 -54.210  1.00  0.00     0.166 HD
HETATM    9  C   UNL     1     -37.893  39.825 -57.034  1.00  0.00     0.070 A 
HETATM   10  C   UNL     1     -36.665  41.897 -56.621  1.00  0.00    -0.004 A 
HETATM   11  C   UNL     1     -37.960  40.142 -58.401  1.00  0.00     0.103 A 
HETATM   12  C   UNL     1     -37.353  41.311 -58.887  1.00  0.00     0.102 A 
HETATM   13  C   UNL     1     -36.736  42.207 -57.993  1.00  0.00     0.053 A 
HETATM   14  C   UNL     1     -36.094  42.540 -55.486  1.00  0.00     0.049 A 
BRANCH  11  15
HETATM   15  O   UNL     1     -38.607  39.172 -59.128  1.00  0.00    -0.353 OA
HETATM   16  C   UNL     1     -37.824  38.095 -59.626  1.00  0.00     0.210 C 
ENDBRANCH  11  15
BRANCH  12  17
HETATM   17  O   UNL     1     -37.397  41.573 -60.235  1.00  0.00    -0.353 OA
HETATM   18  C   UNL     1     -37.409  42.953 -60.587  1.00  0.00     0.210 C 
ENDBRANCH  12  17
ENDBRANCH   1   5
BRANCH   2  19
HETATM   19  C   UNL     1     -35.953  40.752 -50.786  1.00  0.00     0.123 C 
BRANCH  19  20
HETATM   20  C   UNL     1     -34.941  39.705 -50.312  1.00  0.00     0.027 C 
BRANCH  20  21
HETATM   21  C   UNL     1     -33.534  39.870 -50.892  1.00  0.00     0.080 C 
BRANCH  21  22
HETATM   22  C   UNL     1     -33.496  39.641 -52.363  1.00  0.00     0.105 A 
HETATM   23  N   UNL     1     -34.112  38.681 -53.023  1.00  0.00    -0.233 NA
HETATM   24  C   UNL     1     -33.793  38.880 -54.346  1.00  0.00     0.085 A 
HETATM   25  C   UNL     1     -32.966  39.988 -54.496  1.00  0.00     0.062 A 
HETATM   26  C   UNL     1     -34.175  38.154 -55.483  1.00  0.00     0.034 A 
HETATM   27  N   UNL     1     -32.789  40.451 -53.218  1.00  0.00    -0.343 N 
HETATM   28  C   UNL     1     -32.489  40.429 -55.730  1.00  0.00     0.032 A 
HETATM   29  H   UNL     1     -32.235  41.252 -52.951  1.00  0.00     0.167 HD
HETATM   30  C   UNL     1     -32.881  39.693 -56.854  1.00  0.00     0.002 A 
HETATM   31  C   UNL     1     -33.708  38.573 -56.736  1.00  0.00     0.002 A 
ENDBRANCH  21  22
ENDBRANCH  20  21
ENDBRANCH  19  20
ENDBRANCH   2  19
TORSDOF 7
ENDMDL
MODEL 10
REMARK VINA RESULT:      -7.0     14.128     16.495
REMARK  7 active torsions:
REMARK  status: ('A' for Active; 'I' for Inactive)
REMARK    1  A    between atoms: O_2  and  C_3 
REMARK    2  A    between atoms: C_4  and  O_5 
REMARK    3  A    between atoms: C_13  and  C_14 
REMARK       I    between atoms: C_14  and  N_15 
REMARK    4  A    between atoms: N_15  and  C_16 
REMARK    5  A    between atoms: C_16  and  C_17 
REMARK    6  A    between atoms: C_17  and  C_18 
REMARK    7  A    between atoms: C_18  and  C_19 
ROOT
HETATM    1  C   UNL     1     -35.853  41.742 -53.353  1.00  0.00     0.268 C 
HETATM    2  N   UNL     1     -35.663  40.746 -52.426  1.00  0.00    -0.356 N 
HETATM    3  O   UNL     1     -35.683  42.930 -53.093  1.00  0.00    -0.266 OA
HETATM    4  H   UNL     1     -35.957  39.802 -52.643  1.00  0.00     0.162 HD
ENDROOT
BRANCH   1   5
HETATM    5  C   UNL     1     -36.318  41.300 -54.648  1.00  0.00     0.102 A 
HETATM    6  N   UNL     1     -36.195  42.105 -55.761  1.00  0.00    -0.351 N 
HETATM    7  C   UNL     1     -36.759  41.512 -56.863  1.00  0.00     0.045 A 
HETATM    8  H   UNL     1     -35.767  43.023 -55.742  1.00  0.00     0.166 HD
HETATM    9  C   UNL     1     -36.891  41.976 -58.175  1.00  0.00     0.070 A 
HETATM   10  C   UNL     1     -37.224  40.266 -56.462  1.00  0.00    -0.004 A 
HETATM   11  C   UNL     1     -37.520  41.148 -59.119  1.00  0.00     0.103 A 
HETATM   12  C   UNL     1     -38.034  39.899 -58.735  1.00  0.00     0.102 A 
HETATM   13  C   UNL     1     -37.855  39.441 -57.415  1.00  0.00     0.053 A 
HETATM   14  C   UNL     1     -36.928  40.134 -55.076  1.00  0.00     0.049 A 
BRANCH  11  15
HETATM   15  O   UNL     1     -37.599  41.739 -60.357  1.00  0.00    -0.353 OA
HETATM   16  C   UNL     1     -37.353  43.136 -60.434  1.00  0.00     0.210 C 
ENDBRANCH  11  15
BRANCH  12  17
HETATM   17  O   UNL     1     -38.682  39.130 -59.670  1.00  0.00    -0.353 OA
HETATM   18  C   UNL     1     -38.379  37.739 -59.631  1.00  0.00     0.210 C 
ENDBRANCH  12  17
ENDBRANCH   1   5
BRANCH   2  19
HETATM   19  C   UNL     1     -35.359  41.029 -51.042  1.00  0.00     0.123 C 
BRANCH  19  20
HETATM   20  C   UNL     1     -34.208  40.176 -50.499  1.00  0.00     0.027 C 
BRANCH  20  21
HETATM   21  C   UNL     1     -32.813  40.656 -50.906  1.00  0.00     0.080 C 
BRANCH  21  22
HETATM   22  C   UNL     1     -32.324  39.994 -52.147  1.00  0.00     0.105 A 
HETATM   23  N   UNL     1     -31.870  38.762 -52.252  1.00  0.00    -0.233 NA
HETATM   24  C   UNL     1     -31.551  38.599 -53.581  1.00  0.00     0.085 A 
HETATM   25  C   UNL     1     -31.820  39.757 -54.301  1.00  0.00     0.062 A 
HETATM   26  C   UNL     1     -31.026  37.484 -54.249  1.00  0.00     0.034 A 
HETATM   27  N   UNL     1     -32.306  40.631 -53.365  1.00  0.00    -0.343 N 
HETATM   28  C   UNL     1     -31.598  39.877 -55.673  1.00  0.00     0.032 A 
HETATM   29  H   UNL     1     -32.603  41.581 -53.540  1.00  0.00     0.167 HD
HETATM   30  C   UNL     1     -31.075  38.754 -56.325  1.00  0.00     0.002 A 
HETATM   31  C   UNL     1     -30.791  37.576 -55.627  1.00  0.00     0.002 A 
ENDBRANCH  21  22
ENDBRANCH  20  21
ENDBRANCH  19  20
ENDBRANCH   2  19
TORSDOF 7
ENDMDL
