MODEL 1
REMARK VINA RESULT:      -8.3      0.000      0.000
REMARK  7 active torsions:
REMARK  status: ('A' for Active; 'I' for Inactive)
REMARK    1  A    between atoms: O_2  and  C_3 
REMARK    2  A    between atoms: C_3  and  C_4 
REMARK    3  A    between atoms: C_8  and  C_9 
REMARK    4  A    between atoms: C_9  and  N_10 
REMARK    5  A    between atoms: C_13  and  C_14 
REMARK    6  A    between atoms: C_14  and  N_15 
REMARK       I    between atoms: N_15  and  C_16 
REMARK       I    between atoms: C_16  and  N_17 
REMARK    7  A    between atoms: N_17  and  C_18 
ROOT
HETATM    1  N   UNL     1     -42.534  59.131 -54.119  1.00  0.00    -0.067 N 
HETATM    2  H   UNL     1     -43.561  59.093 -54.139  1.00  0.00     0.280 HD
HETATM    3  C   UNL     1     -42.071  57.847 -53.460  1.00  0.00     0.241 C 
HETATM    4  C   UNL     1     -42.709  57.754 -52.073  1.00  0.00     0.029 C 
HETATM    5  C   UNL     1     -42.322  58.975 -51.225  1.00  0.00     0.009 C 
HETATM    6  C   UNL     1     -42.706  60.272 -51.930  1.00  0.00     0.028 C 
HETATM    7  C   UNL     1     -42.130  60.350 -53.336  1.00  0.00     0.235 C 
ENDROOT
BRANCH   4   8
HETATM    8  C   UNL     1     -42.343  56.452 -51.340  1.00  0.00     0.130 C 
BRANCH   8   9
HETATM    9  N   UNL     1     -41.360  55.591 -51.982  1.00  0.00    -0.342 N 
HETATM   10  C   UNL     1     -41.482  54.212 -52.012  1.00  0.00     0.320 C 
HETATM   11  N   UNL     1     -40.329  53.624 -52.478  1.00  0.00    -0.309 N 
HETATM   12  O   UNL     1     -42.525  53.648 -51.712  1.00  0.00    -0.247 OA
HETATM   13  H   UNL     1     -39.614  54.246 -52.826  1.00  0.00     0.170 HD
HETATM   14  H   UNL     1     -40.404  55.904 -51.868  1.00  0.00     0.164 HD
BRANCH  11  15
HETATM   15  C   UNL     1     -40.056  52.245 -52.598  1.00  0.00     0.039 A 
HETATM   16  C   UNL     1     -40.050  51.554 -53.810  1.00  0.00     0.071 A 
HETATM   17  C   UNL     1     -39.784  50.186 -53.824  1.00  0.00     0.118 A 
HETATM   18  F   UNL     1     -39.780  49.532 -54.993  1.00  0.00    -0.206 F 
HETATM   19  C   UNL     1     -39.523  49.487 -52.654  1.00  0.00     0.042 A 
HETATM   20  C   UNL     1     -39.530  50.166 -51.440  1.00  0.00     0.005 A 
HETATM   21  C   UNL     1     -39.797  51.539 -51.412  1.00  0.00     0.030 A 
ENDBRANCH  11  15
ENDBRANCH   8   9
ENDBRANCH   4   8
BRANCH   1  22
HETATM   22  C   UNL     1     -42.112  59.233 -55.565  1.00  0.00     0.274 C 
BRANCH  22  23
HETATM   23  C   UNL     1     -42.807  58.286 -56.487  1.00  0.00    -0.015 A 
HETATM   24  C   UNL     1     -44.116  57.855 -56.378  1.00  0.00     0.097 A 
HETATM   25  N   UNL     1     -44.374  56.971 -57.393  1.00  0.00    -0.360 N 
HETATM   26  C   UNL     1     -43.255  56.815 -58.177  1.00  0.00     0.108 A 
HETATM   27  H   UNL     1     -45.251  56.483 -57.557  1.00  0.00     0.165 HD
HETATM   28  C   UNL     1     -42.269  57.616 -57.628  1.00  0.00     0.046 A 
BRANCH  26  29
HETATM   29  C   UNL     1     -43.243  55.939 -59.326  1.00  0.00     0.309 C 
HETATM   30  O   UNL     1     -42.531  56.106 -60.307  1.00  0.00    -0.258 OA
BRANCH  29  31
HETATM   31  O   UNL     1     -44.135  54.929 -59.152  1.00  0.00    -0.321 OA
HETATM   32  C   UNL     1     -44.912  54.632 -60.313  1.00  0.00     0.213 C 
ENDBRANCH  29  31
ENDBRANCH  26  29
ENDBRANCH  22  23
ENDBRANCH   1  22
TORSDOF 7
ENDMDL
MODEL 2
REMARK VINA RESULT:      -8.2      1.822      2.525
REMARK  7 active torsions:
REMARK  status: ('A' for Active; 'I' for Inactive)
REMARK    1  A    between atoms: O_2  and  C_3 
REMARK    2  A    between atoms: C_3  and  C_4 
REMARK    3  A    between atoms: C_8  and  C_9 
REMARK    4  A    between atoms: C_9  and  N_10 
REMARK    5  A    between atoms: C_13  and  C_14 
REMARK    6  A    between atoms: C_14  and  N_15 
REMARK       I    between atoms: N_15  and  C_16 
REMARK       I    between atoms: C_16  and  N_17 
REMARK    7  A    between atoms: N_17  and  C_18 
ROOT
HETATM    1  N   UNL     1     -43.271  57.921 -56.213  1.00  0.00    -0.067 N 
HETATM    2  H   UNL     1     -43.902  57.136 -56.413  1.00  0.00     0.280 HD
HETATM    3  C   UNL     1     -42.399  57.485 -55.052  1.00  0.00     0.241 C 
HETATM    4  C   UNL     1     -43.304  57.109 -53.878  1.00  0.00     0.029 C 
HETATM    5  C   UNL     1     -44.185  58.304 -53.482  1.00  0.00     0.009 C 
HETATM    6  C   UNL     1     -44.996  58.802 -54.674  1.00  0.00     0.028 C 
HETATM    7  C   UNL     1     -44.113  59.120 -55.872  1.00  0.00     0.235 C 
ENDROOT
BRANCH   4   8
HETATM    8  C   UNL     1     -42.514  56.597 -52.662  1.00  0.00     0.130 C 
BRANCH   8   9
HETATM    9  N   UNL     1     -41.417  55.678 -52.931  1.00  0.00    -0.342 N 
HETATM   10  C   UNL     1     -41.568  54.303 -52.884  1.00  0.00     0.320 C 
HETATM   11  N   UNL     1     -40.349  53.669 -52.959  1.00  0.00    -0.309 N 
HETATM   12  O   UNL     1     -42.669  53.773 -52.845  1.00  0.00    -0.247 OA
HETATM   13  H   UNL     1     -39.546  54.254 -53.141  1.00  0.00     0.170 HD
HETATM   14  H   UNL     1     -40.522  55.993 -52.579  1.00  0.00     0.164 HD
BRANCH  11  15
HETATM   15  C   UNL     1     -40.096  52.283 -52.888  1.00  0.00     0.039 A 
HETATM   16  C   UNL     1     -39.724  51.618 -51.720  1.00  0.00     0.071 A 
HETATM   17  C   UNL     1     -39.479  50.246 -51.753  1.00  0.00     0.118 A 
HETATM   18  F   UNL     1     -39.122  49.617 -50.625  1.00  0.00    -0.206 F 
HETATM   19  C   UNL     1     -39.597  49.519 -52.929  1.00  0.00     0.042 A 
HETATM   20  C   UNL     1     -39.964  50.173 -54.100  1.00  0.00     0.005 A 
HETATM   21  C   UNL     1     -40.211  51.549 -54.079  1.00  0.00     0.030 A 
ENDBRANCH  11  15
ENDBRANCH   8   9
ENDBRANCH   4   8
BRANCH   1  22
HETATM   22  C   UNL     1     -42.487  58.136 -57.485  1.00  0.00     0.274 C 
BRANCH  22  23
HETATM   23  C   UNL     1     -43.169  57.661 -58.726  1.00  0.00    -0.015 A 
HETATM   24  C   UNL     1     -43.179  58.306 -59.949  1.00  0.00     0.097 A 
HETATM   25  N   UNL     1     -43.934  57.572 -60.827  1.00  0.00    -0.360 N 
HETATM   26  C   UNL     1     -44.419  56.447 -60.204  1.00  0.00     0.108 A 
HETATM   27  H   UNL     1     -44.129  57.810 -61.796  1.00  0.00     0.165 HD
HETATM   28  C   UNL     1     -43.962  56.486 -58.898  1.00  0.00     0.046 A 
BRANCH  26  29
HETATM   29  C   UNL     1     -45.248  55.487 -60.896  1.00  0.00     0.309 C 
HETATM   30  O   UNL     1     -44.870  54.811 -61.842  1.00  0.00    -0.258 OA
BRANCH  29  31
HETATM   31  O   UNL     1     -46.492  55.465 -60.348  1.00  0.00    -0.321 OA
HETATM   32  C   UNL     1     -47.368  56.474 -60.852  1.00  0.00     0.213 C 
ENDBRANCH  29  31
ENDBRANCH  26  29
ENDBRANCH  22  23
ENDBRANCH   1  22
TORSDOF 7
ENDMDL
MODEL 3
REMARK VINA RESULT:      -8.0      4.304      7.458
REMARK  7 active torsions:
REMARK  status: ('A' for Active; 'I' for Inactive)
REMARK    1  A    between atoms: O_2  and  C_3 
REMARK    2  A    between atoms: C_3  and  C_4 
REMARK    3  A    between atoms: C_8  and  C_9 
REMARK    4  A    between atoms: C_9  and  N_10 
REMARK    5  A    between atoms: C_13  and  C_14 
REMARK    6  A    between atoms: C_14  and  N_15 
REMARK       I    between atoms: N_15  and  C_16 
REMARK       I    between atoms: C_16  and  N_17 
REMARK    7  A    between atoms: N_17  and  C_18 
ROOT
HETATM    1  N   UNL     1     -43.041  60.015 -50.593  1.00  0.00    -0.067 N 
HETATM    2  H   UNL     1     -43.374  59.582 -49.722  1.00  0.00     0.280 HD
HETATM    3  C   UNL     1     -43.309  59.013 -51.698  1.00  0.00     0.241 C 
HETATM    4  C   UNL     1     -42.598  57.705 -51.352  1.00  0.00     0.029 C 
HETATM    5  C   UNL     1     -41.090  57.946 -51.187  1.00  0.00     0.009 C 
HETATM    6  C   UNL     1     -40.822  59.020 -50.137  1.00  0.00     0.028 C 
HETATM    7  C   UNL     1     -41.575  60.309 -50.435  1.00  0.00     0.235 C 
ENDROOT
BRANCH   4   8
HETATM    8  C   UNL     1     -42.855  56.599 -52.391  1.00  0.00     0.130 C 
BRANCH   8   9
HETATM    9  N   UNL     1     -41.722  55.754 -52.742  1.00  0.00    -0.342 N 
HETATM   10  C   UNL     1     -41.795  54.371 -52.740  1.00  0.00     0.320 C 
HETATM   11  N   UNL     1     -40.548  53.810 -52.892  1.00  0.00    -0.309 N 
HETATM   12  O   UNL     1     -42.863  53.778 -52.675  1.00  0.00    -0.247 OA
HETATM   13  H   UNL     1     -39.788  54.445 -53.085  1.00  0.00     0.170 HD
HETATM   14  H   UNL     1     -40.831  56.105 -52.417  1.00  0.00     0.164 HD
BRANCH  11  15
HETATM   15  C   UNL     1     -40.216  52.439 -52.883  1.00  0.00     0.039 A 
HETATM   16  C   UNL     1     -39.763  51.753 -51.757  1.00  0.00     0.071 A 
HETATM   17  C   UNL     1     -39.445  50.400 -51.852  1.00  0.00     0.118 A 
HETATM   18  F   UNL     1     -39.011  49.751 -50.764  1.00  0.00    -0.206 F 
HETATM   19  C   UNL     1     -39.568  49.710 -53.051  1.00  0.00     0.042 A 
HETATM   20  C   UNL     1     -40.016  50.386 -54.181  1.00  0.00     0.005 A 
HETATM   21  C   UNL     1     -40.337  51.744 -54.098  1.00  0.00     0.030 A 
ENDBRANCH  11  15
ENDBRANCH   8   9
ENDBRANCH   4   8
BRANCH   1  22
HETATM   22  C   UNL     1     -43.850  61.281 -50.741  1.00  0.00     0.274 C 
BRANCH  22  23
HETATM   23  C   UNL     1     -44.512  61.749 -49.487  1.00  0.00    -0.015 A 
HETATM   24  C   UNL     1     -44.269  62.942 -48.832  1.00  0.00     0.097 A 
HETATM   25  N   UNL     1     -45.050  62.994 -47.706  1.00  0.00    -0.360 N 
HETATM   26  C   UNL     1     -45.813  61.854 -47.611  1.00  0.00     0.108 A 
HETATM   27  H   UNL     1     -45.072  63.747 -47.024  1.00  0.00     0.165 HD
HETATM   28  C   UNL     1     -45.490  61.065 -48.702  1.00  0.00     0.046 A 
BRANCH  26  29
HETATM   29  C   UNL     1     -46.735  61.640 -46.519  1.00  0.00     0.309 C 
HETATM   30  O   UNL     1     -46.969  62.467 -45.648  1.00  0.00    -0.258 OA
BRANCH  29  31
HETATM   31  O   UNL     1     -47.279  60.398 -46.605  1.00  0.00    -0.321 OA
HETATM   32  C   UNL     1     -46.634  59.422 -45.784  1.00  0.00     0.213 C 
ENDBRANCH  29  31
ENDBRANCH  26  29
ENDBRANCH  22  23
ENDBRANCH   1  22
TORSDOF 7
ENDMDL
MODEL 4
REMARK VINA RESULT:      -7.7     15.167     19.321
REMARK  7 active torsions:
REMARK  status: ('A' for Active; 'I' for Inactive)
REMARK    1  A    between atoms: O_2  and  C_3 
REMARK    2  A    between atoms: C_3  and  C_4 
REMARK    3  A    between atoms: C_8  and  C_9 
REMARK    4  A    between atoms: C_9  and  N_10 
REMARK    5  A    between atoms: C_13  and  C_14 
REMARK    6  A    between atoms: C_14  and  N_15 
REMARK       I    between atoms: N_15  and  C_16 
REMARK       I    between atoms: C_16  and  N_17 
REMARK    7  A    between atoms: N_17  and  C_18 
ROOT
HETATM    1  N   UNL     1     -34.086  39.354 -49.593  1.00  0.00    -0.067 N 
HETATM    2  H   UNL     1     -34.107  39.996 -48.791  1.00  0.00     0.280 HD
HETATM    3  C   UNL     1     -33.940  40.219 -50.829  1.00  0.00     0.241 C 
HETATM    4  C   UNL     1     -35.102  41.213 -50.868  1.00  0.00     0.029 C 
HETATM    5  C   UNL     1     -36.443  40.463 -50.880  1.00  0.00     0.009 C 
HETATM    6  C   UNL     1     -36.553  39.523 -49.683  1.00  0.00     0.028 C 
HETATM    7  C   UNL     1     -35.369  38.570 -49.595  1.00  0.00     0.235 C 
ENDROOT
BRANCH   4   8
HETATM    8  C   UNL     1     -35.016  42.178 -52.063  1.00  0.00     0.130 C 
BRANCH   8   9
HETATM    9  N   UNL     1     -36.121  42.150 -53.010  1.00  0.00    -0.342 N 
HETATM   10  C   UNL     1     -36.004  41.600 -54.276  1.00  0.00     0.320 C 
HETATM   11  N   UNL     1     -37.107  41.891 -55.044  1.00  0.00    -0.309 N 
HETATM   12  O   UNL     1     -35.052  40.901 -54.593  1.00  0.00    -0.247 OA
HETATM   13  H   UNL     1     -37.874  42.353 -54.578  1.00  0.00     0.170 HD
HETATM   14  H   UNL     1     -36.702  42.978 -52.988  1.00  0.00     0.164 HD
BRANCH  11  15
HETATM   15  C   UNL     1     -37.326  41.551 -56.396  1.00  0.00     0.039 A 
HETATM   16  C   UNL     1     -36.994  42.375 -57.471  1.00  0.00     0.071 A 
HETATM   17  C   UNL     1     -37.265  41.957 -58.772  1.00  0.00     0.118 A 
HETATM   18  F   UNL     1     -36.941  42.757 -59.797  1.00  0.00    -0.206 F 
HETATM   19  C   UNL     1     -37.862  40.731 -59.029  1.00  0.00     0.042 A 
HETATM   20  C   UNL     1     -38.200  39.903 -57.964  1.00  0.00     0.005 A 
HETATM   21  C   UNL     1     -37.935  40.312 -56.653  1.00  0.00     0.030 A 
ENDBRANCH  11  15
ENDBRANCH   8   9
ENDBRANCH   4   8
BRANCH   1  22
HETATM   22  C   UNL     1     -32.890  38.462 -49.358  1.00  0.00     0.274 C 
BRANCH  22  23
HETATM   23  C   UNL     1     -32.074  38.816 -48.159  1.00  0.00    -0.015 A 
HETATM   24  C   UNL     1     -32.107  38.180 -46.932  1.00  0.00     0.097 A 
HETATM   25  N   UNL     1     -31.237  38.814 -46.083  1.00  0.00    -0.360 N 
HETATM   26  C   UNL     1     -30.623  39.858 -46.734  1.00  0.00     0.108 A 
HETATM   27  H   UNL     1     -31.063  38.573 -45.111  1.00  0.00     0.165 HD
HETATM   28  C   UNL     1     -31.133  39.883 -48.020  1.00  0.00     0.046 A 
BRANCH  26  29
HETATM   29  C   UNL     1     -29.652  40.703 -46.077  1.00  0.00     0.309 C 
HETATM   30  O   UNL     1     -29.815  41.205 -44.973  1.00  0.00    -0.258 OA
BRANCH  29  31
HETATM   31  O   UNL     1     -28.557  40.856 -46.867  1.00  0.00    -0.321 OA
HETATM   32  C   UNL     1     -27.699  39.715 -46.901  1.00  0.00     0.213 C 
ENDBRANCH  29  31
ENDBRANCH  26  29
ENDBRANCH  22  23
ENDBRANCH   1  22
TORSDOF 7
ENDMDL
MODEL 5
REMARK VINA RESULT:      -7.5      3.231      7.322
REMARK  7 active torsions:
REMARK  status: ('A' for Active; 'I' for Inactive)
REMARK    1  A    between atoms: O_2  and  C_3 
REMARK    2  A    between atoms: C_3  and  C_4 
REMARK    3  A    between atoms: C_8  and  C_9 
REMARK    4  A    between atoms: C_9  and  N_10 
REMARK    5  A    between atoms: C_13  and  C_14 
REMARK    6  A    between atoms: C_14  and  N_15 
REMARK       I    between atoms: N_15  and  C_16 
REMARK       I    between atoms: C_16  and  N_17 
REMARK    7  A    between atoms: N_17  and  C_18 
ROOT
HETATM    1  N   UNL     1     -41.230  54.316 -50.994  1.00  0.00    -0.067 N 
HETATM    2  H   UNL     1     -42.133  53.824 -51.012  1.00  0.00     0.280 HD
HETATM    3  C   UNL     1     -40.838  54.545 -52.440  1.00  0.00     0.241 C 
HETATM    4  C   UNL     1     -40.785  53.193 -53.150  1.00  0.00     0.029 C 
HETATM    5  C   UNL     1     -39.781  52.263 -52.452  1.00  0.00     0.009 C 
HETATM    6  C   UNL     1     -40.123  52.104 -50.974  1.00  0.00     0.028 C 
HETATM    7  C   UNL     1     -40.242  53.446 -50.267  1.00  0.00     0.235 C 
ENDROOT
BRANCH   4   8
HETATM    8  C   UNL     1     -40.447  53.322 -54.646  1.00  0.00     0.130 C 
BRANCH   8   9
HETATM    9  N   UNL     1     -40.790  54.582 -55.289  1.00  0.00    -0.342 N 
HETATM   10  C   UNL     1     -42.026  54.813 -55.867  1.00  0.00     0.320 C 
HETATM   11  N   UNL     1     -42.023  55.983 -56.590  1.00  0.00    -0.309 N 
HETATM   12  O   UNL     1     -42.980  54.073 -55.673  1.00  0.00    -0.247 OA
HETATM   13  H   UNL     1     -41.193  56.554 -56.523  1.00  0.00     0.170 HD
HETATM   14  H   UNL     1     -40.025  55.002 -55.804  1.00  0.00     0.164 HD
BRANCH  11  15
HETATM   15  C   UNL     1     -43.077  56.520 -57.360  1.00  0.00     0.039 A 
HETATM   16  C   UNL     1     -43.318  56.186 -58.693  1.00  0.00     0.071 A 
HETATM   17  C   UNL     1     -44.376  56.783 -59.375  1.00  0.00     0.118 A 
HETATM   18  F   UNL     1     -44.599  56.454 -60.654  1.00  0.00    -0.206 F 
HETATM   19  C   UNL     1     -45.204  57.710 -58.757  1.00  0.00     0.042 A 
HETATM   20  C   UNL     1     -44.970  58.053 -57.430  1.00  0.00     0.005 A 
HETATM   21  C   UNL     1     -43.910  57.461 -56.735  1.00  0.00     0.030 A 
ENDBRANCH  11  15
ENDBRANCH   8   9
ENDBRANCH   4   8
BRANCH   1  22
HETATM   22  C   UNL     1     -41.494  55.602 -50.247  1.00  0.00     0.274 C 
BRANCH  22  23
HETATM   23  C   UNL     1     -42.610  56.427 -50.799  1.00  0.00    -0.015 A 
HETATM   24  C   UNL     1     -43.934  56.043 -50.900  1.00  0.00     0.097 A 
HETATM   25  N   UNL     1     -44.643  57.062 -51.485  1.00  0.00    -0.360 N 
HETATM   26  C   UNL     1     -43.807  58.116 -51.765  1.00  0.00     0.108 A 
HETATM   27  H   UNL     1     -45.637  57.056 -51.698  1.00  0.00     0.165 HD
HETATM   28  C   UNL     1     -42.540  57.741 -51.355  1.00  0.00     0.046 A 
BRANCH  26  29
HETATM   29  C   UNL     1     -44.289  59.330 -52.384  1.00  0.00     0.309 C 
HETATM   30  O   UNL     1     -44.016  60.455 -51.990  1.00  0.00    -0.258 OA
BRANCH  29  31
HETATM   31  O   UNL     1     -45.085  59.028 -53.443  1.00  0.00    -0.321 OA
HETATM   32  C   UNL     1     -45.325  60.128 -54.323  1.00  0.00     0.213 C 
ENDBRANCH  29  31
ENDBRANCH  26  29
ENDBRANCH  22  23
ENDBRANCH   1  22
TORSDOF 7
ENDMDL
MODEL 6
REMARK VINA RESULT:      -7.5      3.192      7.770
REMARK  7 active torsions:
REMARK  status: ('A' for Active; 'I' for Inactive)
REMARK    1  A    between atoms: O_2  and  C_3 
REMARK    2  A    between atoms: C_3  and  C_4 
REMARK    3  A    between atoms: C_8  and  C_9 
REMARK    4  A    between atoms: C_9  and  N_10 
REMARK    5  A    between atoms: C_13  and  C_14 
REMARK    6  A    between atoms: C_14  and  N_15 
REMARK       I    between atoms: N_15  and  C_16 
REMARK       I    between atoms: C_16  and  N_17 
REMARK    7  A    between atoms: N_17  and  C_18 
ROOT
HETATM    1  N   UNL     1     -41.825  53.563 -50.986  1.00  0.00    -0.067 N 
HETATM    2  H   UNL     1     -42.473  52.771 -51.079  1.00  0.00     0.280 HD
HETATM    3  C   UNL     1     -41.484  54.005 -52.395  1.00  0.00     0.241 C 
HETATM    4  C   UNL     1     -40.894  52.813 -53.150  1.00  0.00     0.029 C 
HETATM    5  C   UNL     1     -39.645  52.288 -52.424  1.00  0.00     0.009 C 
HETATM    6  C   UNL     1     -39.968  51.928 -50.977  1.00  0.00     0.028 C 
HETATM    7  C   UNL     1     -40.615  53.086 -50.231  1.00  0.00     0.235 C 
ENDROOT
BRANCH   4   8
HETATM    8  C   UNL     1     -40.563  53.145 -54.616  1.00  0.00     0.130 C 
BRANCH   8   9
HETATM    9  N   UNL     1     -40.889  54.488 -55.073  1.00  0.00    -0.342 N 
HETATM   10  C   UNL     1     -42.059  54.781 -55.755  1.00  0.00     0.320 C 
HETATM   11  N   UNL     1     -42.028  56.059 -56.263  1.00  0.00    -0.309 N 
HETATM   12  O   UNL     1     -42.991  53.991 -55.809  1.00  0.00    -0.247 OA
HETATM   13  H   UNL     1     -41.242  56.632 -55.996  1.00  0.00     0.170 HD
HETATM   14  H   UNL     1     -40.091  55.012 -55.410  1.00  0.00     0.164 HD
BRANCH  11  15
HETATM   15  C   UNL     1     -43.009  56.691 -57.056  1.00  0.00     0.039 A 
HETATM   16  C   UNL     1     -43.170  56.466 -58.423  1.00  0.00     0.071 A 
HETATM   17  C   UNL     1     -44.159  57.152 -59.125  1.00  0.00     0.118 A 
HETATM   18  F   UNL     1     -44.305  56.928 -60.438  1.00  0.00    -0.206 F 
HETATM   19  C   UNL     1     -44.995  58.062 -58.494  1.00  0.00     0.042 A 
HETATM   20  C   UNL     1     -44.841  58.296 -57.132  1.00  0.00     0.005 A 
HETATM   21  C   UNL     1     -43.851  57.615 -56.416  1.00  0.00     0.030 A 
ENDBRANCH  11  15
ENDBRANCH   8   9
ENDBRANCH   4   8
BRANCH   1  22
HETATM   22  C   UNL     1     -42.586  54.612 -50.211  1.00  0.00     0.274 C 
BRANCH  22  23
HETATM   23  C   UNL     1     -42.439  56.003 -50.734  1.00  0.00    -0.015 A 
HETATM   24  C   UNL     1     -43.445  56.780 -51.279  1.00  0.00     0.097 A 
HETATM   25  N   UNL     1     -42.910  57.981 -51.669  1.00  0.00    -0.360 N 
HETATM   26  C   UNL     1     -41.566  58.013 -51.383  1.00  0.00     0.108 A 
HETATM   27  H   UNL     1     -43.412  58.745 -52.113  1.00  0.00     0.165 HD
HETATM   28  C   UNL     1     -41.251  56.793 -50.809  1.00  0.00     0.046 A 
BRANCH  26  29
HETATM   29  C   UNL     1     -40.747  59.164 -51.686  1.00  0.00     0.309 C 
HETATM   30  O   UNL     1     -40.505  59.553 -52.820  1.00  0.00    -0.258 OA
BRANCH  29  31
HETATM   31  O   UNL     1     -40.288  59.725 -50.537  1.00  0.00    -0.321 OA
HETATM   32  C   UNL     1     -38.867  59.674 -50.391  1.00  0.00     0.213 C 
ENDBRANCH  29  31
ENDBRANCH  26  29
ENDBRANCH  22  23
ENDBRANCH   1  22
TORSDOF 7
ENDMDL
MODEL 7
REMARK VINA RESULT:      -7.4      2.506      5.594
REMARK  7 active torsions:
REMARK  status: ('A' for Active; 'I' for Inactive)
REMARK    1  A    between atoms: O_2  and  C_3 
REMARK    2  A    between atoms: C_3  and  C_4 
REMARK    3  A    between atoms: C_8  and  C_9 
REMARK    4  A    between atoms: C_9  and  N_10 
REMARK    5  A    between atoms: C_13  and  C_14 
REMARK    6  A    between atoms: C_14  and  N_15 
REMARK       I    between atoms: N_15  and  C_16 
REMARK       I    between atoms: C_16  and  N_17 
REMARK    7  A    between atoms: N_17  and  C_18 
ROOT
HETATM    1  N   UNL     1     -44.266  59.622 -55.352  1.00  0.00    -0.067 N 
HETATM    2  H   UNL     1     -43.288  59.881 -55.174  1.00  0.00     0.280 HD
HETATM    3  C   UNL     1     -44.258  58.155 -55.734  1.00  0.00     0.241 C 
HETATM    4  C   UNL     1     -43.344  57.973 -56.946  1.00  0.00     0.029 C 
HETATM    5  C   UNL     1     -43.832  58.840 -58.117  1.00  0.00     0.009 C 
HETATM    6  C   UNL     1     -43.927  60.306 -57.705  1.00  0.00     0.028 C 
HETATM    7  C   UNL     1     -44.783  60.496 -56.461  1.00  0.00     0.235 C 
ENDROOT
BRANCH   4   8
HETATM    8  C   UNL     1     -43.225  56.501 -57.381  1.00  0.00     0.130 C 
BRANCH   8   9
HETATM    9  N   UNL     1     -42.058  55.770 -56.908  1.00  0.00    -0.342 N 
HETATM   10  C   UNL     1     -42.116  54.875 -55.853  1.00  0.00     0.320 C 
HETATM   11  N   UNL     1     -40.855  54.487 -55.464  1.00  0.00    -0.309 N 
HETATM   12  O   UNL     1     -43.179  54.466 -55.408  1.00  0.00    -0.247 OA
HETATM   13  H   UNL     1     -40.087  54.804 -56.038  1.00  0.00     0.170 HD
HETATM   14  H   UNL     1     -41.201  56.309 -56.926  1.00  0.00     0.164 HD
BRANCH  11  15
HETATM   15  C   UNL     1     -40.510  53.633 -54.395  1.00  0.00     0.039 A 
HETATM   16  C   UNL     1     -40.067  52.321 -54.557  1.00  0.00     0.071 A 
HETATM   17  C   UNL     1     -39.766  51.549 -53.437  1.00  0.00     0.118 A 
HETATM   18  F   UNL     1     -39.341  50.289 -53.604  1.00  0.00    -0.206 F 
HETATM   19  C   UNL     1     -39.896  52.057 -52.152  1.00  0.00     0.042 A 
HETATM   20  C   UNL     1     -40.340  53.364 -51.979  1.00  0.00     0.005 A 
HETATM   21  C   UNL     1     -40.647  54.148 -53.096  1.00  0.00     0.030 A 
ENDBRANCH  11  15
ENDBRANCH   8   9
ENDBRANCH   4   8
BRANCH   1  22
HETATM   22  C   UNL     1     -44.990  59.885 -54.053  1.00  0.00     0.274 C 
BRANCH  22  23
HETATM   23  C   UNL     1     -44.225  59.515 -52.826  1.00  0.00    -0.015 A 
HETATM   24  C   UNL     1     -44.757  59.293 -51.569  1.00  0.00     0.097 A 
HETATM   25  N   UNL     1     -43.734  59.004 -50.703  1.00  0.00    -0.360 N 
HETATM   26  C   UNL     1     -42.533  59.026 -51.370  1.00  0.00     0.108 A 
HETATM   27  H   UNL     1     -43.826  58.810 -49.709  1.00  0.00     0.165 HD
HETATM   28  C   UNL     1     -42.813  59.348 -52.687  1.00  0.00     0.046 A 
BRANCH  26  29
HETATM   29  C   UNL     1     -41.281  58.755 -50.701  1.00  0.00     0.309 C 
HETATM   30  O   UNL     1     -40.731  59.534 -49.934  1.00  0.00    -0.258 OA
BRANCH  29  31
HETATM   31  O   UNL     1     -40.817  57.529 -51.059  1.00  0.00    -0.321 OA
HETATM   32  C   UNL     1     -41.237  56.472 -50.195  1.00  0.00     0.213 C 
ENDBRANCH  29  31
ENDBRANCH  26  29
ENDBRANCH  22  23
ENDBRANCH   1  22
TORSDOF 7
ENDMDL
MODEL 8
REMARK VINA RESULT:      -7.2      2.074      2.567
REMARK  7 active torsions:
REMARK  status: ('A' for Active; 'I' for Inactive)
REMARK    1  A    between atoms: O_2  and  C_3 
REMARK    2  A    between atoms: C_3  and  C_4 
REMARK    3  A    between atoms: C_8  and  C_9 
REMARK    4  A    between atoms: C_9  and  N_10 
REMARK    5  A    between atoms: C_13  and  C_14 
REMARK    6  A    between atoms: C_14  and  N_15 
REMARK       I    between atoms: N_15  and  C_16 
REMARK       I    between atoms: C_16  and  N_17 
REMARK    7  A    between atoms: N_17  and  C_18 
ROOT
HETATM    1  N   UNL     1     -44.798  59.979 -55.190  1.00  0.00    -0.067 N 
HETATM    2  H   UNL     1     -45.663  59.488 -55.450  1.00  0.00     0.280 HD
HETATM    3  C   UNL     1     -44.195  59.202 -54.037  1.00  0.00     0.241 C 
HETATM    4  C   UNL     1     -45.223  59.130 -52.908  1.00  0.00     0.029 C 
HETATM    5  C   UNL     1     -45.626  60.544 -52.463  1.00  0.00     0.009 C 
HETATM    6  C   UNL     1     -46.149  61.358 -53.643  1.00  0.00     0.028 C 
HETATM    7  C   UNL     1     -45.162  61.385 -54.800  1.00  0.00     0.235 C 
ENDROOT
BRANCH   4   8
HETATM    8  C   UNL     1     -44.724  58.310 -51.705  1.00  0.00     0.130 C 
BRANCH   8   9
HETATM    9  N   UNL     1     -44.515  56.886 -51.923  1.00  0.00    -0.342 N 
HETATM   10  C   UNL     1     -43.262  56.299 -51.874  1.00  0.00     0.320 C 
HETATM   11  N   UNL     1     -43.306  55.000 -52.326  1.00  0.00    -0.309 N 
HETATM   12  O   UNL     1     -42.290  56.885 -51.418  1.00  0.00    -0.247 OA
HETATM   13  H   UNL     1     -44.220  54.622 -52.524  1.00  0.00     0.170 HD
HETATM   14  H   UNL     1     -45.113  56.487 -52.637  1.00  0.00     0.164 HD
BRANCH  11  15
HETATM   15  C   UNL     1     -42.225  54.106 -52.474  1.00  0.00     0.039 A 
HETATM   16  C   UNL     1     -41.790  53.605 -53.701  1.00  0.00     0.071 A 
HETATM   17  C   UNL     1     -40.722  52.712 -53.744  1.00  0.00     0.118 A 
HETATM   18  F   UNL     1     -40.312  52.237 -54.928  1.00  0.00    -0.206 F 
HETATM   19  C   UNL     1     -40.073  52.304 -52.587  1.00  0.00     0.042 A 
HETATM   20  C   UNL     1     -40.500  52.795 -51.358  1.00  0.00     0.005 A 
HETATM   21  C   UNL     1     -41.573  53.691 -51.302  1.00  0.00     0.030 A 
ENDBRANCH  11  15
ENDBRANCH   8   9
ENDBRANCH   4   8
BRANCH   1  22
HETATM   22  C   UNL     1     -43.937  59.951 -56.430  1.00  0.00     0.274 C 
BRANCH  22  23
HETATM   23  C   UNL     1     -44.143  58.760 -57.307  1.00  0.00    -0.015 A 
HETATM   24  C   UNL     1     -45.323  58.057 -57.464  1.00  0.00     0.097 A 
HETATM   25  N   UNL     1     -45.104  57.015 -58.327  1.00  0.00    -0.360 N 
HETATM   26  C   UNL     1     -43.795  57.022 -58.749  1.00  0.00     0.108 A 
HETATM   27  H   UNL     1     -45.788  56.322 -58.619  1.00  0.00     0.165 HD
HETATM   28  C   UNL     1     -43.179  58.091 -58.123  1.00  0.00     0.046 A 
BRANCH  26  29
HETATM   29  C   UNL     1     -43.284  56.033 -59.670  1.00  0.00     0.309 C 
HETATM   30  O   UNL     1     -42.212  56.127 -60.252  1.00  0.00    -0.258 OA
BRANCH  29  31
HETATM   31  O   UNL     1     -44.170  55.009 -59.794  1.00  0.00    -0.321 OA
HETATM   32  C   UNL     1     -44.857  54.983 -61.046  1.00  0.00     0.213 C 
ENDBRANCH  29  31
ENDBRANCH  26  29
ENDBRANCH  22  23
ENDBRANCH   1  22
TORSDOF 7
ENDMDL
MODEL 9
REMARK VINA RESULT:      -7.2      2.203      3.096
REMARK  7 active torsions:
REMARK  status: ('A' for Active; 'I' for Inactive)
REMARK    1  A    between atoms: O_2  and  C_3 
REMARK    2  A    between atoms: C_3  and  C_4 
REMARK    3  A    between atoms: C_8  and  C_9 
REMARK    4  A    between atoms: C_9  and  N_10 
REMARK    5  A    between atoms: C_13  and  C_14 
REMARK    6  A    between atoms: C_14  and  N_15 
REMARK       I    between atoms: N_15  and  C_16 
REMARK       I    between atoms: C_16  and  N_17 
REMARK    7  A    between atoms: N_17  and  C_18 
ROOT
HETATM    1  N   UNL     1     -45.922  59.241 -56.515  1.00  0.00    -0.067 N 
HETATM    2  H   UNL     1     -46.434  59.835 -55.850  1.00  0.00     0.280 HD
HETATM    3  C   UNL     1     -45.562  57.973 -55.767  1.00  0.00     0.241 C 
HETATM    4  C   UNL     1     -44.749  58.351 -54.529  1.00  0.00     0.029 C 
HETATM    5  C   UNL     1     -43.485  59.123 -54.937  1.00  0.00     0.009 C 
HETATM    6  C   UNL     1     -43.841  60.352 -55.768  1.00  0.00     0.028 C 
HETATM    7  C   UNL     1     -44.704  59.998 -56.970  1.00  0.00     0.235 C 
ENDROOT
BRANCH   4   8
HETATM    8  C   UNL     1     -44.380  57.131 -53.667  1.00  0.00     0.130 C 
BRANCH   8   9
HETATM    9  N   UNL     1     -43.163  56.418 -54.029  1.00  0.00    -0.342 N 
HETATM   10  C   UNL     1     -42.841  55.177 -53.504  1.00  0.00     0.320 C 
HETATM   11  N   UNL     1     -41.554  54.821 -53.831  1.00  0.00    -0.309 N 
HETATM   12  O   UNL     1     -43.657  54.502 -52.892  1.00  0.00    -0.247 OA
HETATM   13  H   UNL     1     -41.066  55.429 -54.472  1.00  0.00     0.170 HD
HETATM   14  H   UNL     1     -42.357  57.017 -54.155  1.00  0.00     0.164 HD
BRANCH  11  15
HETATM   15  C   UNL     1     -40.856  53.661 -53.433  1.00  0.00     0.039 A 
HETATM   16  C   UNL     1     -40.550  52.603 -54.288  1.00  0.00     0.071 A 
HETATM   17  C   UNL     1     -39.870  51.491 -53.797  1.00  0.00     0.118 A 
HETATM   18  F   UNL     1     -39.580  50.480 -54.628  1.00  0.00    -0.206 F 
HETATM   19  C   UNL     1     -39.486  51.407 -52.465  1.00  0.00     0.042 A 
HETATM   20  C   UNL     1     -39.790  52.455 -51.603  1.00  0.00     0.005 A 
HETATM   21  C   UNL     1     -40.473  53.577 -52.084  1.00  0.00     0.030 A 
ENDBRANCH  11  15
ENDBRANCH   8   9
ENDBRANCH   4   8
BRANCH   1  22
HETATM   22  C   UNL     1     -46.883  58.998 -57.653  1.00  0.00     0.274 C 
BRANCH  22  23
HETATM   23  C   UNL     1     -46.302  58.258 -58.813  1.00  0.00    -0.015 A 
HETATM   24  C   UNL     1     -46.114  58.758 -60.088  1.00  0.00     0.097 A 
HETATM   25  N   UNL     1     -45.585  57.767 -60.876  1.00  0.00    -0.360 N 
HETATM   26  C   UNL     1     -45.415  56.620 -60.137  1.00  0.00     0.108 A 
HETATM   27  H   UNL     1     -45.355  57.843 -61.863  1.00  0.00     0.165 HD
HETATM   28  C   UNL     1     -45.861  56.900 -58.857  1.00  0.00     0.046 A 
BRANCH  26  29
HETATM   29  C   UNL     1     -44.872  55.412 -60.715  1.00  0.00     0.309 C 
HETATM   30  O   UNL     1     -45.107  55.031 -61.854  1.00  0.00    -0.258 OA
BRANCH  29  31
HETATM   31  O   UNL     1     -44.085  54.775 -59.809  1.00  0.00    -0.321 OA
HETATM   32  C   UNL     1     -44.617  53.532 -59.349  1.00  0.00     0.213 C 
ENDBRANCH  29  31
ENDBRANCH  26  29
ENDBRANCH  22  23
ENDBRANCH   1  22
TORSDOF 7
ENDMDL
MODEL 10
REMARK VINA RESULT:      -7.0      4.053      5.859
REMARK  7 active torsions:
REMARK  status: ('A' for Active; 'I' for Inactive)
REMARK    1  A    between atoms: O_2  and  C_3 
REMARK    2  A    between atoms: C_3  and  C_4 
REMARK    3  A    between atoms: C_8  and  C_9 
REMARK    4  A    between atoms: C_9  and  N_10 
REMARK    5  A    between atoms: C_13  and  C_14 
REMARK    6  A    between atoms: C_14  and  N_15 
REMARK       I    between atoms: N_15  and  C_16 
REMARK       I    between atoms: C_16  and  N_17 
REMARK    7  A    between atoms: N_17  and  C_18 
ROOT
HETATM    1  N   UNL     1     -42.560  60.043 -51.149  1.00  0.00    -0.067 N 
HETATM    2  H   UNL     1     -43.184  59.719 -50.399  1.00  0.00     0.280 HD
HETATM    3  C   UNL     1     -42.788  59.116 -52.326  1.00  0.00     0.241 C 
HETATM    4  C   UNL     1     -42.513  57.681 -51.875  1.00  0.00     0.029 C 
HETATM    5  C   UNL     1     -41.075  57.554 -51.349  1.00  0.00     0.009 C 
HETATM    6  C   UNL     1     -40.817  58.551 -50.224  1.00  0.00     0.028 C 
HETATM    7  C   UNL     1     -41.147  59.978 -50.638  1.00  0.00     0.235 C 
ENDROOT
BRANCH   4   8
HETATM    8  C   UNL     1     -42.770  56.651 -52.988  1.00  0.00     0.130 C 
BRANCH   8   9
HETATM    9  N   UNL     1     -41.677  55.743 -53.308  1.00  0.00    -0.342 N 
HETATM   10  C   UNL     1     -41.767  54.374 -53.125  1.00  0.00     0.320 C 
HETATM   11  N   UNL     1     -40.541  53.772 -53.291  1.00  0.00    -0.309 N 
HETATM   12  O   UNL     1     -42.834  53.818 -52.909  1.00  0.00    -0.247 OA
HETATM   13  H   UNL     1     -39.789  54.361 -53.617  1.00  0.00     0.170 HD
HETATM   14  H   UNL     1     -40.760  56.114 -53.094  1.00  0.00     0.164 HD
BRANCH  11  15
HETATM   15  C   UNL     1     -40.227  52.406 -53.132  1.00  0.00     0.039 A 
HETATM   16  C   UNL     1     -39.850  51.828 -51.919  1.00  0.00     0.071 A 
HETATM   17  C   UNL     1     -39.542  50.471 -51.866  1.00  0.00     0.118 A 
HETATM   18  F   UNL     1     -39.182  49.926 -50.695  1.00  0.00    -0.206 F 
HETATM   19  C   UNL     1     -39.602  49.670 -52.998  1.00  0.00     0.042 A 
HETATM   20  C   UNL     1     -39.973  50.236 -54.212  1.00  0.00     0.005 A 
HETATM   21  C   UNL     1     -40.283  51.598 -54.279  1.00  0.00     0.030 A 
ENDBRANCH  11  15
ENDBRANCH   8   9
ENDBRANCH   4   8
BRANCH   1  22
HETATM   22  C   UNL     1     -42.984  61.464 -51.433  1.00  0.00     0.274 C 
BRANCH  22  23
HETATM   23  C   UNL     1     -44.425  61.751 -51.168  1.00  0.00    -0.015 A 
HETATM   24  C   UNL     1     -45.097  61.527 -49.981  1.00  0.00     0.097 A 
HETATM   25  N   UNL     1     -46.410  61.889 -50.143  1.00  0.00    -0.360 N 
HETATM   26  C   UNL     1     -46.614  62.357 -51.419  1.00  0.00     0.108 A 
HETATM   27  H   UNL     1     -47.142  61.822 -49.441  1.00  0.00     0.165 HD
HETATM   28  C   UNL     1     -45.398  62.273 -52.075  1.00  0.00     0.046 A 
BRANCH  26  29
HETATM   29  C   UNL     1     -47.910  62.813 -51.868  1.00  0.00     0.309 C 
HETATM   30  O   UNL     1     -48.457  63.829 -51.463  1.00  0.00    -0.258 OA
BRANCH  29  31
HETATM   31  O   UNL     1     -48.418  61.945 -52.782  1.00  0.00    -0.321 OA
HETATM   32  C   UNL     1     -48.764  62.550 -54.030  1.00  0.00     0.213 C 
ENDBRANCH  29  31
ENDBRANCH  26  29
ENDBRANCH  22  23
ENDBRANCH   1  22
TORSDOF 7
ENDMDL
