MODEL 1
REMARK VINA RESULT:      -8.9      0.000      0.000
REMARK  5 active torsions:
REMARK  status: ('A' for Active; 'I' for Inactive)
REMARK    1  A    between atoms: C_3  and  N_4 
REMARK       I    between atoms: N_4  and  C_5 
REMARK    2  A    between atoms: C_5  and  C_6 
REMARK    3  A    between atoms: C_14  and  C_15 
REMARK    4  A    between atoms: C_21  and  O_22 
REMARK    5  A    between atoms: C_24  and  O_25 
ROOT
HETATM    1  N   UNL     1     -42.512  55.113 -54.389  1.00  0.00    -0.322 N 
HETATM    2  C   UNL     1     -41.180  55.155 -54.008  1.00  0.00     0.257 C 
HETATM    3  O   UNL     1     -40.325  55.950 -54.373  1.00  0.00    -0.267 OA
HETATM    4  H   UNL     1     -43.019  54.277 -54.122  1.00  0.00     0.169 HD
ENDROOT
BRANCH   2   5
HETATM    5  C   UNL     1     -40.773  54.084 -53.063  1.00  0.00     0.046 A 
HETATM    6  C   UNL     1     -40.806  54.247 -51.657  1.00  0.00     0.008 A 
HETATM    7  C   UNL     1     -40.308  53.168 -50.903  1.00  0.00     0.068 A 
HETATM    8  C   UNL     1     -41.321  55.378 -50.966  1.00  0.00     0.015 A 
HETATM    9  C   UNL     1     -40.265  53.278 -49.520  1.00  0.00     0.032 A 
HETATM   10  N   UNL     1     -39.882  52.022 -51.459  1.00  0.00    -0.252 NA
HETATM   11  C   UNL     1     -40.728  54.413 -48.852  1.00  0.00     0.002 A 
HETATM   12  C   UNL     1     -41.271  55.462 -49.577  1.00  0.00     0.001 A 
HETATM   13  C   UNL     1     -39.942  51.865 -52.803  1.00  0.00     0.039 A 
HETATM   14  C   UNL     1     -40.367  52.880 -53.639  1.00  0.00     0.045 A 
BRANCH  13  15
HETATM   15  C   UNL     1     -39.559  50.511 -53.367  1.00  0.00     0.029 C 
HETATM   16  C   UNL     1     -39.585  49.433 -52.281  1.00  0.00     0.016 C 
HETATM   17  C   UNL     1     -40.485  50.137 -54.525  1.00  0.00     0.016 C 
ENDBRANCH  13  15
ENDBRANCH   2   5
BRANCH   1  18
HETATM   18  C   UNL     1     -43.081  55.862 -55.445  1.00  0.00     0.043 A 
HETATM   19  C   UNL     1     -43.771  57.073 -55.296  1.00  0.00    -0.032 A 
HETATM   20  C   UNL     1     -44.143  57.676 -53.970  1.00  0.00     0.050 C 
HETATM   21  C   UNL     1     -44.200  57.756 -56.454  1.00  0.00     0.048 A 
HETATM   22  C   UNL     1     -43.993  57.233 -57.735  1.00  0.00     0.102 A 
HETATM   23  C   UNL     1     -43.355  55.991 -57.869  1.00  0.00     0.103 A 
HETATM   24  C   UNL     1     -42.935  55.304 -56.726  1.00  0.00     0.069 A 
BRANCH  22  25
HETATM   25  O   UNL     1     -44.375  57.846 -58.900  1.00  0.00    -0.353 OA
HETATM   26  C   UNL     1     -45.767  57.963 -59.159  1.00  0.00     0.210 C 
ENDBRANCH  22  25
BRANCH  23  27
HETATM   27  O   UNL     1     -43.194  55.518 -59.149  1.00  0.00    -0.353 OA
HETATM   28  C   UNL     1     -44.171  54.604 -59.626  1.00  0.00     0.210 C 
ENDBRANCH  23  27
ENDBRANCH   1  18
TORSDOF 5
ENDMDL
MODEL 2
REMARK VINA RESULT:      -8.6      1.332      3.522
REMARK  5 active torsions:
REMARK  status: ('A' for Active; 'I' for Inactive)
REMARK    1  A    between atoms: C_3  and  N_4 
REMARK       I    between atoms: N_4  and  C_5 
REMARK    2  A    between atoms: C_5  and  C_6 
REMARK    3  A    between atoms: C_14  and  C_15 
REMARK    4  A    between atoms: C_21  and  O_22 
REMARK    5  A    between atoms: C_24  and  O_25 
ROOT
HETATM    1  N   UNL     1     -41.748  55.270 -55.269  1.00  0.00    -0.322 N 
HETATM    2  C   UNL     1     -42.419  54.550 -54.293  1.00  0.00     0.257 C 
HETATM    3  O   UNL     1     -43.622  54.340 -54.216  1.00  0.00    -0.267 OA
HETATM    4  H   UNL     1     -40.779  55.488 -55.068  1.00  0.00     0.169 HD
ENDROOT
BRANCH   2   5
HETATM    5  C   UNL     1     -41.550  54.005 -53.220  1.00  0.00     0.046 A 
HETATM    6  C   UNL     1     -40.884  52.760 -53.329  1.00  0.00     0.008 A 
HETATM    7  C   UNL     1     -40.166  52.347 -52.190  1.00  0.00     0.068 A 
HETATM    8  C   UNL     1     -40.861  51.932 -54.484  1.00  0.00     0.015 A 
HETATM    9  C   UNL     1     -39.529  51.114 -52.209  1.00  0.00     0.032 A 
HETATM   10  N   UNL     1     -40.055  53.100 -51.084  1.00  0.00    -0.252 NA
HETATM   11  C   UNL     1     -39.552  50.285 -53.332  1.00  0.00     0.002 A 
HETATM   12  C   UNL     1     -40.209  50.702 -54.479  1.00  0.00     0.001 A 
HETATM   13  C   UNL     1     -40.634  54.323 -51.041  1.00  0.00     0.039 A 
HETATM   14  C   UNL     1     -41.402  54.804 -52.085  1.00  0.00     0.045 A 
BRANCH  13  15
HETATM   15  C   UNL     1     -40.378  55.176 -49.815  1.00  0.00     0.029 C 
HETATM   16  C   UNL     1     -41.236  56.442 -49.834  1.00  0.00     0.016 C 
HETATM   17  C   UNL     1     -40.634  54.366 -48.542  1.00  0.00     0.016 C 
ENDBRANCH  13  15
ENDBRANCH   2   5
BRANCH   1  18
HETATM   18  C   UNL     1     -42.364  56.079 -56.252  1.00  0.00     0.043 A 
HETATM   19  C   UNL     1     -42.579  57.460 -56.145  1.00  0.00    -0.032 A 
HETATM   20  C   UNL     1     -42.327  58.259 -54.896  1.00  0.00     0.050 C 
HETATM   21  C   UNL     1     -43.120  58.151 -57.250  1.00  0.00     0.048 A 
HETATM   22  C   UNL     1     -43.483  57.486 -58.426  1.00  0.00     0.102 A 
HETATM   23  C   UNL     1     -43.319  56.095 -58.501  1.00  0.00     0.103 A 
HETATM   24  C   UNL     1     -42.792  55.402 -57.406  1.00  0.00     0.069 A 
BRANCH  22  25
HETATM   25  O   UNL     1     -44.004  58.095 -59.538  1.00  0.00    -0.353 OA
HETATM   26  C   UNL     1     -43.152  58.957 -60.279  1.00  0.00     0.210 C 
ENDBRANCH  22  25
BRANCH  23  27
HETATM   27  O   UNL     1     -43.709  55.493 -59.673  1.00  0.00    -0.353 OA
HETATM   28  C   UNL     1     -44.508  54.324 -59.562  1.00  0.00     0.210 C 
ENDBRANCH  23  27
ENDBRANCH   1  18
TORSDOF 5
ENDMDL
MODEL 3
REMARK VINA RESULT:      -8.3      2.225      7.569
REMARK  5 active torsions:
REMARK  status: ('A' for Active; 'I' for Inactive)
REMARK    1  A    between atoms: C_3  and  N_4 
REMARK       I    between atoms: N_4  and  C_5 
REMARK    2  A    between atoms: C_5  and  C_6 
REMARK    3  A    between atoms: C_14  and  C_15 
REMARK    4  A    between atoms: C_21  and  O_22 
REMARK    5  A    between atoms: C_24  and  O_25 
ROOT
HETATM    1  N   UNL     1     -41.474  54.893 -54.151  1.00  0.00    -0.322 N 
HETATM    2  C   UNL     1     -42.838  54.972 -54.385  1.00  0.00     0.257 C 
HETATM    3  O   UNL     1     -43.731  54.377 -53.797  1.00  0.00    -0.267 OA
HETATM    4  H   UNL     1     -40.882  55.320 -54.854  1.00  0.00     0.169 HD
ENDROOT
BRANCH   2   5
HETATM    5  C   UNL     1     -43.224  55.876 -55.498  1.00  0.00     0.046 A 
HETATM    6  C   UNL     1     -43.867  57.120 -55.290  1.00  0.00     0.008 A 
HETATM    7  C   UNL     1     -44.242  57.819 -56.453  1.00  0.00     0.068 A 
HETATM    8  C   UNL     1     -44.126  57.716 -54.026  1.00  0.00     0.015 A 
HETATM    9  C   UNL     1     -44.919  59.023 -56.324  1.00  0.00     0.032 A 
HETATM   10  N   UNL     1     -43.961  57.381 -57.691  1.00  0.00    -0.252 NA
HETATM   11  C   UNL     1     -45.214  59.578 -55.077  1.00  0.00     0.002 A 
HETATM   12  C   UNL     1     -44.803  58.929 -53.923  1.00  0.00     0.001 A 
HETATM   13  C   UNL     1     -43.271  56.227 -57.856  1.00  0.00     0.039 A 
HETATM   14  C   UNL     1     -42.898  55.440 -56.783  1.00  0.00     0.045 A 
BRANCH  13  15
HETATM   15  C   UNL     1     -42.880  55.841 -59.269  1.00  0.00     0.029 C 
HETATM   16  C   UNL     1     -44.037  55.150 -59.992  1.00  0.00     0.016 C 
HETATM   17  C   UNL     1     -42.412  57.073 -60.046  1.00  0.00     0.016 C 
ENDBRANCH  13  15
ENDBRANCH   2   5
BRANCH   1  18
HETATM   18  C   UNL     1     -40.844  53.939 -53.320  1.00  0.00     0.043 A 
HETATM   19  C   UNL     1     -40.749  54.020 -51.924  1.00  0.00    -0.032 A 
HETATM   20  C   UNL     1     -41.168  55.218 -51.117  1.00  0.00     0.050 C 
HETATM   21  C   UNL     1     -40.173  52.941 -51.219  1.00  0.00     0.048 A 
HETATM   22  C   UNL     1     -39.661  51.821 -51.881  1.00  0.00     0.102 A 
HETATM   23  C   UNL     1     -39.707  51.776 -53.282  1.00  0.00     0.103 A 
HETATM   24  C   UNL     1     -40.268  52.846 -53.988  1.00  0.00     0.069 A 
BRANCH  22  25
HETATM   25  O   UNL     1     -39.098  50.736 -51.260  1.00  0.00    -0.353 OA
HETATM   26  C   UNL     1     -39.963  49.853 -50.560  1.00  0.00     0.210 C 
ENDBRANCH  22  25
BRANCH  23  27
HETATM   27  O   UNL     1     -39.173  50.660 -53.879  1.00  0.00    -0.353 OA
HETATM   28  C   UNL     1     -40.066  49.828 -54.607  1.00  0.00     0.210 C 
ENDBRANCH  23  27
ENDBRANCH   1  18
TORSDOF 5
ENDMDL
MODEL 4
REMARK VINA RESULT:      -8.2      1.867      2.867
REMARK  5 active torsions:
REMARK  status: ('A' for Active; 'I' for Inactive)
REMARK    1  A    between atoms: C_3  and  N_4 
REMARK       I    between atoms: N_4  and  C_5 
REMARK    2  A    between atoms: C_5  and  C_6 
REMARK    3  A    between atoms: C_14  and  C_15 
REMARK    4  A    between atoms: C_21  and  O_22 
REMARK    5  A    between atoms: C_24  and  O_25 
ROOT
HETATM    1  N   UNL     1     -41.508  55.686 -54.613  1.00  0.00    -0.322 N 
HETATM    2  C   UNL     1     -42.238  54.765 -53.878  1.00  0.00     0.257 C 
HETATM    3  O   UNL     1     -43.452  54.618 -53.862  1.00  0.00    -0.267 OA
HETATM    4  H   UNL     1     -40.531  55.776 -54.360  1.00  0.00     0.169 HD
ENDROOT
BRANCH   2   5
HETATM    5  C   UNL     1     -41.422  53.888 -53.001  1.00  0.00     0.046 A 
HETATM    6  C   UNL     1     -41.182  54.175 -51.635  1.00  0.00     0.008 A 
HETATM    7  C   UNL     1     -40.319  53.288 -50.964  1.00  0.00     0.068 A 
HETATM    8  C   UNL     1     -41.758  55.248 -50.902  1.00  0.00     0.015 A 
HETATM    9  C   UNL     1     -40.001  53.537 -49.637  1.00  0.00     0.032 A 
HETATM   10  N   UNL     1     -39.796  52.196 -51.546  1.00  0.00    -0.252 NA
HETATM   11  C   UNL     1     -40.534  54.621 -48.937  1.00  0.00     0.002 A 
HETATM   12  C   UNL     1     -41.427  55.472 -49.568  1.00  0.00     0.001 A 
HETATM   13  C   UNL     1     -40.112  51.903 -52.830  1.00  0.00     0.039 A 
HETATM   14  C   UNL     1     -40.910  52.734 -53.594  1.00  0.00     0.045 A 
BRANCH  13  15
HETATM   15  C   UNL     1     -39.588  50.599 -53.398  1.00  0.00     0.029 C 
HETATM   16  C   UNL     1     -39.549  49.506 -52.329  1.00  0.00     0.016 C 
HETATM   17  C   UNL     1     -40.438  50.161 -54.592  1.00  0.00     0.016 C 
ENDBRANCH  13  15
ENDBRANCH   2   5
BRANCH   1  18
HETATM   18  C   UNL     1     -42.056  56.775 -55.329  1.00  0.00     0.043 A 
HETATM   19  C   UNL     1     -42.783  56.674 -56.523  1.00  0.00    -0.032 A 
HETATM   20  C   UNL     1     -42.952  55.399 -57.304  1.00  0.00     0.050 C 
HETATM   21  C   UNL     1     -43.351  57.843 -57.073  1.00  0.00     0.048 A 
HETATM   22  C   UNL     1     -43.171  59.096 -56.480  1.00  0.00     0.102 A 
HETATM   23  C   UNL     1     -42.392  59.195 -55.318  1.00  0.00     0.103 A 
HETATM   24  C   UNL     1     -41.817  58.043 -54.772  1.00  0.00     0.069 A 
BRANCH  22  25
HETATM   25  O   UNL     1     -43.701  60.269 -56.955  1.00  0.00    -0.353 OA
HETATM   26  C   UNL     1     -43.215  60.758 -58.196  1.00  0.00     0.210 C 
ENDBRANCH  22  25
BRANCH  23  27
HETATM   27  O   UNL     1     -42.234  60.454 -54.789  1.00  0.00    -0.353 OA
HETATM   28  C   UNL     1     -42.686  60.656 -53.458  1.00  0.00     0.210 C 
ENDBRANCH  23  27
ENDBRANCH   1  18
TORSDOF 5
ENDMDL
MODEL 5
REMARK VINA RESULT:      -7.9      1.365      3.926
REMARK  5 active torsions:
REMARK  status: ('A' for Active; 'I' for Inactive)
REMARK    1  A    between atoms: C_3  and  N_4 
REMARK       I    between atoms: N_4  and  C_5 
REMARK    2  A    between atoms: C_5  and  C_6 
REMARK    3  A    between atoms: C_14  and  C_15 
REMARK    4  A    between atoms: C_21  and  O_22 
REMARK    5  A    between atoms: C_24  and  O_25 
ROOT
HETATM    1  N   UNL     1     -41.686  55.126 -54.169  1.00  0.00    -0.322 N 
HETATM    2  C   UNL     1     -40.581  54.290 -54.178  1.00  0.00     0.257 C 
HETATM    3  O   UNL     1     -39.805  54.089 -55.103  1.00  0.00    -0.267 OA
HETATM    4  H   UNL     1     -42.308  55.024 -53.375  1.00  0.00     0.169 HD
ENDROOT
BRANCH   2   5
HETATM    5  C   UNL     1     -40.355  53.548 -52.911  1.00  0.00     0.046 A 
HETATM    6  C   UNL     1     -40.066  52.163 -52.873  1.00  0.00     0.008 A 
HETATM    7  C   UNL     1     -39.962  51.593 -51.591  1.00  0.00     0.068 A 
HETATM    8  C   UNL     1     -39.846  51.332 -54.006  1.00  0.00     0.015 A 
HETATM    9  C   UNL     1     -39.728  50.230 -51.479  1.00  0.00     0.032 A 
HETATM   10  N   UNL     1     -40.065  52.311 -50.461  1.00  0.00    -0.252 NA
HETATM   11  C   UNL     1     -39.562  49.411 -52.598  1.00  0.00     0.002 A 
HETATM   12  C   UNL     1     -39.607  49.967 -53.867  1.00  0.00     0.001 A 
HETATM   13  C   UNL     1     -40.258  53.650 -50.531  1.00  0.00     0.039 A 
HETATM   14  C   UNL     1     -40.424  54.302 -51.739  1.00  0.00     0.045 A 
BRANCH  13  15
HETATM   15  C   UNL     1     -40.250  54.428 -49.230  1.00  0.00     0.029 C 
HETATM   16  C   UNL     1     -41.263  55.573 -49.264  1.00  0.00     0.016 C 
HETATM   17  C   UNL     1     -40.527  53.492 -48.051  1.00  0.00     0.016 C 
ENDBRANCH  13  15
ENDBRANCH   2   5
BRANCH   1  18
HETATM   18  C   UNL     1     -42.246  55.749 -55.308  1.00  0.00     0.043 A 
HETATM   19  C   UNL     1     -43.115  55.135 -56.220  1.00  0.00    -0.032 A 
HETATM   20  C   UNL     1     -43.457  53.670 -56.206  1.00  0.00     0.050 C 
HETATM   21  C   UNL     1     -43.671  55.914 -57.258  1.00  0.00     0.048 A 
HETATM   22  C   UNL     1     -43.341  57.263 -57.421  1.00  0.00     0.102 A 
HETATM   23  C   UNL     1     -42.424  57.852 -56.538  1.00  0.00     0.103 A 
HETATM   24  C   UNL     1     -41.862  57.085 -55.513  1.00  0.00     0.069 A 
BRANCH  22  25
HETATM   25  O   UNL     1     -43.849  58.078 -58.399  1.00  0.00    -0.353 OA
HETATM   26  C   UNL     1     -44.500  57.461 -59.500  1.00  0.00     0.210 C 
ENDBRANCH  22  25
BRANCH  23  27
HETATM   27  O   UNL     1     -42.124  59.175 -56.758  1.00  0.00    -0.353 OA
HETATM   28  C   UNL     1     -42.222  60.052 -55.644  1.00  0.00     0.210 C 
ENDBRANCH  23  27
ENDBRANCH   1  18
TORSDOF 5
ENDMDL
MODEL 6
REMARK VINA RESULT:      -7.5      2.488      8.097
REMARK  5 active torsions:
REMARK  status: ('A' for Active; 'I' for Inactive)
REMARK    1  A    between atoms: C_3  and  N_4 
REMARK       I    between atoms: N_4  and  C_5 
REMARK    2  A    between atoms: C_5  and  C_6 
REMARK    3  A    between atoms: C_14  and  C_15 
REMARK    4  A    between atoms: C_21  and  O_22 
REMARK    5  A    between atoms: C_24  and  O_25 
ROOT
HETATM    1  N   UNL     1     -40.960  55.301 -53.658  1.00  0.00    -0.322 N 
HETATM    2  C   UNL     1     -42.261  55.569 -54.051  1.00  0.00     0.257 C 
HETATM    3  O   UNL     1     -43.274  54.952 -53.748  1.00  0.00    -0.267 OA
HETATM    4  H   UNL     1     -40.237  55.810 -54.153  1.00  0.00     0.169 HD
ENDROOT
BRANCH   2   5
HETATM    5  C   UNL     1     -42.404  56.731 -54.965  1.00  0.00     0.046 A 
HETATM    6  C   UNL     1     -42.665  56.592 -56.350  1.00  0.00     0.008 A 
HETATM    7  C   UNL     1     -42.689  57.787 -57.092  1.00  0.00     0.068 A 
HETATM    8  C   UNL     1     -42.930  55.368 -57.023  1.00  0.00     0.015 A 
HETATM    9  C   UNL     1     -42.891  57.722 -58.463  1.00  0.00     0.032 A 
HETATM   10  N   UNL     1     -42.539  58.999 -56.532  1.00  0.00    -0.252 NA
HETATM   11  C   UNL     1     -43.102  56.510 -59.125  1.00  0.00     0.002 A 
HETATM   12  C   UNL     1     -43.135  55.330 -58.400  1.00  0.00     0.001 A 
HETATM   13  C   UNL     1     -42.375  59.104 -55.192  1.00  0.00     0.039 A 
HETATM   14  C   UNL     1     -42.287  57.991 -54.377  1.00  0.00     0.045 A 
BRANCH  13  15
HETATM   15  C   UNL     1     -42.328  60.499 -54.601  1.00  0.00     0.029 C 
HETATM   16  C   UNL     1     -43.483  61.357 -55.118  1.00  0.00     0.016 C 
HETATM   17  C   UNL     1     -42.346  60.428 -53.072  1.00  0.00     0.016 C 
ENDBRANCH  13  15
ENDBRANCH   2   5
BRANCH   1  18
HETATM   18  C   UNL     1     -40.535  54.126 -52.994  1.00  0.00     0.043 A 
HETATM   19  C   UNL     1     -40.534  53.937 -51.606  1.00  0.00    -0.032 A 
HETATM   20  C   UNL     1     -40.840  55.018 -50.606  1.00  0.00     0.050 C 
HETATM   21  C   UNL     1     -40.171  52.673 -51.093  1.00  0.00     0.048 A 
HETATM   22  C   UNL     1     -39.774  51.627 -51.931  1.00  0.00     0.102 A 
HETATM   23  C   UNL     1     -39.720  51.846 -53.316  1.00  0.00     0.103 A 
HETATM   24  C   UNL     1     -40.069  53.098 -53.831  1.00  0.00     0.069 A 
BRANCH  22  25
HETATM   25  O   UNL     1     -39.417  50.375 -51.502  1.00  0.00    -0.353 OA
HETATM   26  C   UNL     1     -40.034  49.881 -50.322  1.00  0.00     0.210 C 
ENDBRANCH  22  25
BRANCH  23  27
HETATM   27  O   UNL     1     -39.305  50.788 -54.089  1.00  0.00    -0.353 OA
HETATM   28  C   UNL     1     -40.313  49.921 -54.591  1.00  0.00     0.210 C 
ENDBRANCH  23  27
ENDBRANCH   1  18
TORSDOF 5
ENDMDL
MODEL 7
REMARK VINA RESULT:      -7.5      2.667      8.476
REMARK  5 active torsions:
REMARK  status: ('A' for Active; 'I' for Inactive)
REMARK    1  A    between atoms: C_3  and  N_4 
REMARK       I    between atoms: N_4  and  C_5 
REMARK    2  A    between atoms: C_5  and  C_6 
REMARK    3  A    between atoms: C_14  and  C_15 
REMARK    4  A    between atoms: C_21  and  O_22 
REMARK    5  A    between atoms: C_24  and  O_25 
ROOT
HETATM    1  N   UNL     1     -41.153  55.526 -53.202  1.00  0.00    -0.322 N 
HETATM    2  C   UNL     1     -42.425  55.929 -53.574  1.00  0.00     0.257 C 
HETATM    3  O   UNL     1     -43.487  55.378 -53.317  1.00  0.00    -0.267 OA
HETATM    4  H   UNL     1     -40.387  56.009 -53.659  1.00  0.00     0.169 HD
ENDROOT
BRANCH   2   5
HETATM    5  C   UNL     1     -42.467  57.164 -54.399  1.00  0.00     0.046 A 
HETATM    6  C   UNL     1     -42.567  57.140 -55.811  1.00  0.00     0.008 A 
HETATM    7  C   UNL     1     -42.510  58.393 -56.451  1.00  0.00     0.068 A 
HETATM    8  C   UNL     1     -42.749  55.978 -56.609  1.00  0.00     0.015 A 
HETATM    9  C   UNL     1     -42.553  58.442 -57.837  1.00  0.00     0.032 A 
HETATM   10  N   UNL     1     -42.429  59.553 -55.780  1.00  0.00    -0.252 NA
HETATM   11  C   UNL     1     -42.683  57.290 -58.616  1.00  0.00     0.002 A 
HETATM   12  C   UNL     1     -42.795  56.054 -57.999  1.00  0.00     0.001 A 
HETATM   13  C   UNL     1     -42.419  59.547 -54.425  1.00  0.00     0.039 A 
HETATM   14  C   UNL     1     -42.422  58.370 -53.700  1.00  0.00     0.045 A 
BRANCH  13  15
HETATM   15  C   UNL     1     -42.445  60.888 -53.719  1.00  0.00     0.029 C 
HETATM   16  C   UNL     1     -43.551  61.785 -54.278  1.00  0.00     0.016 C 
HETATM   17  C   UNL     1     -42.615  60.692 -52.212  1.00  0.00     0.016 C 
ENDBRANCH  13  15
ENDBRANCH   2   5
BRANCH   1  18
HETATM   18  C   UNL     1     -40.830  54.275 -52.628  1.00  0.00     0.043 A 
HETATM   19  C   UNL     1     -40.444  53.133 -53.342  1.00  0.00    -0.032 A 
HETATM   20  C   UNL     1     -40.468  53.026 -54.843  1.00  0.00     0.050 C 
HETATM   21  C   UNL     1     -40.058  51.981 -52.624  1.00  0.00     0.048 A 
HETATM   22  C   UNL     1     -40.095  51.940 -51.227  1.00  0.00     0.102 A 
HETATM   23  C   UNL     1     -40.539  53.069 -50.523  1.00  0.00     0.103 A 
HETATM   24  C   UNL     1     -40.932  54.211 -51.228  1.00  0.00     0.069 A 
BRANCH  22  25
HETATM   25  O   UNL     1     -39.727  50.860 -50.467  1.00  0.00    -0.353 OA
HETATM   26  C   UNL     1     -39.415  49.651 -51.145  1.00  0.00     0.210 C 
ENDBRANCH  22  25
BRANCH  23  27
HETATM   27  O   UNL     1     -40.571  52.966 -49.153  1.00  0.00    -0.353 OA
HETATM   28  C   UNL     1     -40.484  54.175 -48.413  1.00  0.00     0.210 C 
ENDBRANCH  23  27
ENDBRANCH   1  18
TORSDOF 5
ENDMDL
MODEL 8
REMARK VINA RESULT:      -7.3      2.521      8.077
REMARK  5 active torsions:
REMARK  status: ('A' for Active; 'I' for Inactive)
REMARK    1  A    between atoms: C_3  and  N_4 
REMARK       I    between atoms: N_4  and  C_5 
REMARK    2  A    between atoms: C_5  and  C_6 
REMARK    3  A    between atoms: C_14  and  C_15 
REMARK    4  A    between atoms: C_21  and  O_22 
REMARK    5  A    between atoms: C_24  and  O_25 
ROOT
HETATM    1  N   UNL     1     -41.818  56.167 -55.076  1.00  0.00    -0.322 N 
HETATM    2  C   UNL     1     -43.046  56.575 -55.572  1.00  0.00     0.257 C 
HETATM    3  O   UNL     1     -44.084  56.744 -54.946  1.00  0.00    -0.267 OA
HETATM    4  H   UNL     1     -41.126  55.911 -55.770  1.00  0.00     0.169 HD
ENDROOT
BRANCH   2   5
HETATM    5  C   UNL     1     -43.076  56.802 -57.039  1.00  0.00     0.046 A 
HETATM    6  C   UNL     1     -42.658  58.016 -57.637  1.00  0.00     0.008 A 
HETATM    7  C   UNL     1     -42.828  58.103 -59.032  1.00  0.00     0.068 A 
HETATM    8  C   UNL     1     -42.065  59.113 -56.955  1.00  0.00     0.015 A 
HETATM    9  C   UNL     1     -42.485  59.282 -59.678  1.00  0.00     0.032 A 
HETATM   10  N   UNL     1     -43.296  57.087 -59.776  1.00  0.00    -0.252 NA
HETATM   11  C   UNL     1     -41.948  60.374 -58.993  1.00  0.00     0.002 A 
HETATM   12  C   UNL     1     -41.724  60.284 -57.628  1.00  0.00     0.001 A 
HETATM   13  C   UNL     1     -43.609  55.909 -59.185  1.00  0.00     0.039 A 
HETATM   14  C   UNL     1     -43.526  55.734 -57.816  1.00  0.00     0.045 A 
BRANCH  13  15
HETATM   15  C   UNL     1     -44.020  54.762 -60.086  1.00  0.00     0.029 C 
HETATM   16  C   UNL     1     -44.601  53.603 -59.274  1.00  0.00     0.016 C 
HETATM   17  C   UNL     1     -45.023  55.245 -61.136  1.00  0.00     0.016 C 
ENDBRANCH  13  15
ENDBRANCH   2   5
BRANCH   1  18
HETATM   18  C   UNL     1     -41.592  55.664 -53.774  1.00  0.00     0.043 A 
HETATM   19  C   UNL     1     -41.354  54.319 -53.457  1.00  0.00    -0.032 A 
HETATM   20  C   UNL     1     -41.461  53.187 -54.441  1.00  0.00     0.050 C 
HETATM   21  C   UNL     1     -41.049  53.981 -52.121  1.00  0.00     0.048 A 
HETATM   22  C   UNL     1     -41.022  54.944 -51.107  1.00  0.00     0.102 A 
HETATM   23  C   UNL     1     -41.320  56.277 -51.425  1.00  0.00     0.103 A 
HETATM   24  C   UNL     1     -41.632  56.619 -52.744  1.00  0.00     0.069 A 
BRANCH  22  25
HETATM   25  O   UNL     1     -40.725  54.686 -49.793  1.00  0.00    -0.353 OA
HETATM   26  C   UNL     1     -40.434  53.344 -49.433  1.00  0.00     0.210 C 
ENDBRANCH  22  25
BRANCH  23  27
HETATM   27  O   UNL     1     -41.295  57.176 -50.386  1.00  0.00    -0.353 OA
HETATM   28  C   UNL     1     -40.611  58.401 -50.609  1.00  0.00     0.210 C 
ENDBRANCH  23  27
ENDBRANCH   1  18
TORSDOF 5
ENDMDL
MODEL 9
REMARK VINA RESULT:      -7.3      2.089      4.118
REMARK  5 active torsions:
REMARK  status: ('A' for Active; 'I' for Inactive)
REMARK    1  A    between atoms: C_3  and  N_4 
REMARK       I    between atoms: N_4  and  C_5 
REMARK    2  A    between atoms: C_5  and  C_6 
REMARK    3  A    between atoms: C_14  and  C_15 
REMARK    4  A    between atoms: C_21  and  O_22 
REMARK    5  A    between atoms: C_24  and  O_25 
ROOT
HETATM    1  N   UNL     1     -42.375  56.760 -55.170  1.00  0.00    -0.322 N 
HETATM    2  C   UNL     1     -42.880  56.015 -54.116  1.00  0.00     0.257 C 
HETATM    3  O   UNL     1     -43.897  55.335 -54.103  1.00  0.00    -0.267 OA
HETATM    4  H   UNL     1     -41.624  57.398 -54.938  1.00  0.00     0.169 HD
ENDROOT
BRANCH   2   5
HETATM    5  C   UNL     1     -42.083  56.093 -52.866  1.00  0.00     0.046 A 
HETATM    6  C   UNL     1     -41.384  54.984 -52.330  1.00  0.00     0.008 A 
HETATM    7  C   UNL     1     -40.746  55.200 -51.094  1.00  0.00     0.068 A 
HETATM    8  C   UNL     1     -41.257  53.709 -52.946  1.00  0.00     0.015 A 
HETATM    9  C   UNL     1     -40.083  54.143 -50.487  1.00  0.00     0.032 A 
HETATM   10  N   UNL     1     -40.733  56.392 -50.477  1.00  0.00    -0.252 NA
HETATM   11  C   UNL     1     -40.004  52.880 -51.077  1.00  0.00     0.002 A 
HETATM   12  C   UNL     1     -40.582  52.666 -52.319  1.00  0.00     0.001 A 
HETATM   13  C   UNL     1     -41.340  57.456 -51.056  1.00  0.00     0.039 A 
HETATM   14  C   UNL     1     -42.038  57.341 -52.244  1.00  0.00     0.045 A 
BRANCH  13  15
HETATM   15  C   UNL     1     -41.195  58.802 -50.373  1.00  0.00     0.029 C 
HETATM   16  C   UNL     1     -39.808  59.399 -50.617  1.00  0.00     0.016 C 
HETATM   17  C   UNL     1     -42.290  59.759 -50.849  1.00  0.00     0.016 C 
ENDBRANCH  13  15
ENDBRANCH   2   5
BRANCH   1  18
HETATM   18  C   UNL     1     -43.064  57.039 -56.373  1.00  0.00     0.043 A 
HETATM   19  C   UNL     1     -43.773  58.217 -56.644  1.00  0.00    -0.032 A 
HETATM   20  C   UNL     1     -44.038  59.296 -55.629  1.00  0.00     0.050 C 
HETATM   21  C   UNL     1     -44.330  58.395 -57.929  1.00  0.00     0.048 A 
HETATM   22  C   UNL     1     -44.227  57.409 -58.916  1.00  0.00     0.102 A 
HETATM   23  C   UNL     1     -43.567  56.209 -58.615  1.00  0.00     0.103 A 
HETATM   24  C   UNL     1     -43.021  56.022 -57.341  1.00  0.00     0.069 A 
BRANCH  22  25
HETATM   25  O   UNL     1     -44.736  57.519 -60.185  1.00  0.00    -0.353 OA
HETATM   26  C   UNL     1     -46.145  57.628 -60.324  1.00  0.00     0.210 C 
ENDBRANCH  22  25
BRANCH  23  27
HETATM   27  O   UNL     1     -43.513  55.271 -59.618  1.00  0.00    -0.353 OA
HETATM   28  C   UNL     1     -44.471  54.223 -59.573  1.00  0.00     0.210 C 
ENDBRANCH  23  27
ENDBRANCH   1  18
TORSDOF 5
ENDMDL
MODEL 10
REMARK VINA RESULT:      -7.3      2.120      7.655
REMARK  5 active torsions:
REMARK  status: ('A' for Active; 'I' for Inactive)
REMARK    1  A    between atoms: C_3  and  N_4 
REMARK       I    between atoms: N_4  and  C_5 
REMARK    2  A    between atoms: C_5  and  C_6 
REMARK    3  A    between atoms: C_14  and  C_15 
REMARK    4  A    between atoms: C_21  and  O_22 
REMARK    5  A    between atoms: C_24  and  O_25 
ROOT
HETATM    1  N   UNL     1     -42.572  55.159 -53.698  1.00  0.00    -0.322 N 
HETATM    2  C   UNL     1     -41.919  55.965 -54.617  1.00  0.00     0.257 C 
HETATM    3  O   UNL     1     -40.744  56.307 -54.608  1.00  0.00    -0.267 OA
HETATM    4  H   UNL     1     -43.582  55.135 -53.774  1.00  0.00     0.169 HD
ENDROOT
BRANCH   2   5
HETATM    5  C   UNL     1     -42.780  56.476 -55.714  1.00  0.00     0.046 A 
HETATM    6  C   UNL     1     -43.645  57.587 -55.558  1.00  0.00     0.008 A 
HETATM    7  C   UNL     1     -44.456  57.893 -56.667  1.00  0.00     0.068 A 
HETATM    8  C   UNL     1     -43.729  58.415 -54.405  1.00  0.00     0.015 A 
HETATM    9  C   UNL     1     -45.362  58.939 -56.567  1.00  0.00     0.032 A 
HETATM   10  N   UNL     1     -44.386  57.226 -57.830  1.00  0.00    -0.252 NA
HETATM   11  C   UNL     1     -45.473  59.717 -55.413  1.00  0.00     0.002 A 
HETATM   12  C   UNL     1     -44.643  59.463 -54.333  1.00  0.00     0.001 A 
HETATM   13  C   UNL     1     -43.489  56.221 -57.976  1.00  0.00     0.039 A 
HETATM   14  C   UNL     1     -42.680  55.808 -56.934  1.00  0.00     0.045 A 
BRANCH  13  15
HETATM   15  C   UNL     1     -43.372  55.582 -59.345  1.00  0.00     0.029 C 
HETATM   16  C   UNL     1     -44.390  54.453 -59.517  1.00  0.00     0.016 C 
HETATM   17  C   UNL     1     -43.540  56.637 -60.440  1.00  0.00     0.016 C 
ENDBRANCH  13  15
ENDBRANCH   2   5
BRANCH   1  18
HETATM   18  C   UNL     1     -42.042  54.749 -52.453  1.00  0.00     0.043 A 
HETATM   19  C   UNL     1     -42.256  55.399 -51.230  1.00  0.00    -0.032 A 
HETATM   20  C   UNL     1     -42.956  56.723 -51.088  1.00  0.00     0.050 C 
HETATM   21  C   UNL     1     -41.740  54.817 -50.052  1.00  0.00     0.048 A 
HETATM   22  C   UNL     1     -40.989  53.638 -50.084  1.00  0.00     0.102 A 
HETATM   23  C   UNL     1     -40.730  53.027 -51.320  1.00  0.00     0.103 A 
HETATM   24  C   UNL     1     -41.230  53.603 -52.493  1.00  0.00     0.069 A 
BRANCH  22  25
HETATM   25  O   UNL     1     -40.466  53.015 -48.980  1.00  0.00    -0.353 OA
HETATM   26  C   UNL     1     -40.342  53.777 -47.789  1.00  0.00     0.210 C 
ENDBRANCH  22  25
BRANCH  23  27
HETATM   27  O   UNL     1     -39.971  51.882 -51.293  1.00  0.00    -0.353 OA
HETATM   28  C   UNL     1     -39.444  51.428 -52.531  1.00  0.00     0.210 C 
ENDBRANCH  23  27
ENDBRANCH   1  18
TORSDOF 5
ENDMDL
