MODEL 1
REMARK VINA RESULT:      -8.4      0.000      0.000
REMARK  6 active torsions:
REMARK  status: ('A' for Active; 'I' for Inactive)
REMARK    1  A    between atoms: C_3  and  C_4 
REMARK    2  A    between atoms: C_9  and  C_10 
REMARK    3  A    between atoms: C_10  and  O_11 
REMARK    4  A    between atoms: C_10  and  C_12 
REMARK    5  A    between atoms: C_12  and  N_13 
REMARK    6  A    between atoms: C_17  and  C_18 
ROOT
HETATM    1  C   UNL     1     -43.487  54.671 -53.939  1.00  0.00     0.271 C 
ENDROOT
BRANCH   1   2
HETATM    2  C   UNL     1     -41.967  54.659 -54.258  1.00  0.00     0.177 C 
BRANCH   2   3
HETATM    3  C   UNL     1     -41.153  53.661 -53.453  1.00  0.00    -0.027 A 
HETATM    4  C   UNL     1     -40.904  52.371 -53.958  1.00  0.00     0.025 A 
HETATM    5  C   UNL     1     -40.111  51.443 -53.255  1.00  0.00     0.048 A 
HETATM    6  C   UNL     1     -39.598  51.800 -52.005  1.00  0.00     0.016 A 
HETATM    7  C   UNL     1     -39.874  53.055 -51.467  1.00  0.00     0.001 A 
HETATM    8  C   UNL     1     -40.644  53.976 -52.183  1.00  0.00     0.010 A 
BRANCH   5   9
HETATM    9  C   UNL     1     -39.805  50.097 -53.874  1.00  0.00     0.417 C 
HETATM   10  F   UNL     1     -38.690  50.086 -54.649  1.00  0.00    -0.166 F 
HETATM   11  F   UNL     1     -39.640  49.125 -52.938  1.00  0.00    -0.166 F 
HETATM   12  F   UNL     1     -40.828  49.678 -54.671  1.00  0.00    -0.166 F 
ENDBRANCH   5   9
ENDBRANCH   2   3
BRANCH   2  13
HETATM   13  O   UNL     1     -41.872  54.412 -55.671  1.00  0.00    -0.389 OA
HETATM   14  H   UNL     1     -41.847  55.289 -56.104  1.00  0.00     0.210 HD
ENDBRANCH   2  13
ENDBRANCH   1   2
BRANCH   1  15
HETATM   15  N   UNL     1     -43.942  56.022 -53.359  1.00  0.00    -0.068 N 
HETATM   16  H   UNL     1     -44.975  55.937 -53.337  1.00  0.00     0.280 HD
HETATM   17  C   UNL     1     -43.486  56.237 -51.937  1.00  0.00     0.235 C 
HETATM   18  C   UNL     1     -43.925  57.603 -51.430  1.00  0.00     0.037 C 
HETATM   19  C   UNL     1     -43.409  58.740 -52.320  1.00  0.00     0.025 C 
HETATM   20  C   UNL     1     -43.953  58.497 -53.734  1.00  0.00     0.037 C 
HETATM   21  C   UNL     1     -43.548  57.139 -54.291  1.00  0.00     0.235 C 
BRANCH  19  22
HETATM   22  C   UNL     1     -41.909  58.895 -52.259  1.00  0.00    -0.018 A 
HETATM   23  C   UNL     1     -40.992  59.096 -53.321  1.00  0.00     0.147 A 
HETATM   24  N   UNL     1     -39.726  59.141 -52.911  1.00  0.00    -0.187 NA
HETATM   25  N   UNL     1     -39.815  59.086 -51.576  1.00  0.00    -0.289 N 
HETATM   26  H   UNL     1     -38.962  59.163 -51.030  1.00  0.00     0.188 HD
HETATM   27  C   UNL     1     -41.098  58.922 -51.138  1.00  0.00     0.118 A 
ENDBRANCH  19  22
ENDBRANCH   1  15
TORSDOF 6
ENDMDL
MODEL 2
REMARK VINA RESULT:      -8.1      3.497      5.158
REMARK  6 active torsions:
REMARK  status: ('A' for Active; 'I' for Inactive)
REMARK    1  A    between atoms: C_3  and  C_4 
REMARK    2  A    between atoms: C_9  and  C_10 
REMARK    3  A    between atoms: C_10  and  O_11 
REMARK    4  A    between atoms: C_10  and  C_12 
REMARK    5  A    between atoms: C_12  and  N_13 
REMARK    6  A    between atoms: C_17  and  C_18 
ROOT
HETATM    1  C   UNL     1     -42.272  56.027 -55.374  1.00  0.00     0.271 C 
ENDROOT
BRANCH   1   2
HETATM    2  C   UNL     1     -42.607  54.519 -55.216  1.00  0.00     0.177 C 
BRANCH   2   3
HETATM    3  C   UNL     1     -41.715  53.765 -54.244  1.00  0.00    -0.027 A 
HETATM    4  C   UNL     1     -41.352  52.429 -54.498  1.00  0.00     0.025 A 
HETATM    5  C   UNL     1     -40.487  51.723 -53.639  1.00  0.00     0.048 A 
HETATM    6  C   UNL     1     -40.016  52.353 -52.484  1.00  0.00     0.016 A 
HETATM    7  C   UNL     1     -40.403  53.658 -52.191  1.00  0.00     0.001 A 
HETATM    8  C   UNL     1     -41.244  54.358 -53.061  1.00  0.00     0.010 A 
BRANCH   5   9
HETATM    9  C   UNL     1     -40.061  50.316 -53.995  1.00  0.00     0.417 C 
HETATM   10  F   UNL     1     -38.918  50.252 -54.726  1.00  0.00    -0.166 F 
HETATM   11  F   UNL     1     -39.863  49.542 -52.894  1.00  0.00    -0.166 F 
HETATM   12  F   UNL     1     -41.019  49.682 -54.729  1.00  0.00    -0.166 F 
ENDBRANCH   5   9
ENDBRANCH   2   3
BRANCH   2  13
HETATM   13  O   UNL     1     -43.988  54.470 -54.823  1.00  0.00    -0.389 OA
HETATM   14  H   UNL     1     -44.433  55.211 -55.281  1.00  0.00     0.210 HD
ENDBRANCH   2  13
ENDBRANCH   1   2
BRANCH   1  15
HETATM   15  N   UNL     1     -42.187  56.444 -56.854  1.00  0.00    -0.068 N 
HETATM   16  H   UNL     1     -41.168  56.461 -57.039  1.00  0.00     0.280 HD
HETATM   17  C   UNL     1     -42.791  55.427 -57.789  1.00  0.00     0.235 C 
HETATM   18  C   UNL     1     -42.719  55.909 -59.231  1.00  0.00     0.037 C 
HETATM   19  C   UNL     1     -43.412  57.264 -59.419  1.00  0.00     0.025 C 
HETATM   20  C   UNL     1     -42.717  58.266 -58.487  1.00  0.00     0.037 C 
HETATM   21  C   UNL     1     -42.753  57.830 -57.029  1.00  0.00     0.235 C 
BRANCH  19  22
HETATM   22  C   UNL     1     -44.907  57.187 -59.230  1.00  0.00    -0.018 A 
HETATM   23  C   UNL     1     -45.758  58.061 -58.509  1.00  0.00     0.147 A 
HETATM   24  N   UNL     1     -47.029  57.664 -58.509  1.00  0.00    -0.187 NA
HETATM   25  N   UNL     1     -47.037  56.600 -59.321  1.00  0.00    -0.289 N 
HETATM   26  H   UNL     1     -47.925  56.151 -59.525  1.00  0.00     0.188 HD
HETATM   27  C   UNL     1     -45.789  56.265 -59.765  1.00  0.00     0.118 A 
ENDBRANCH  19  22
ENDBRANCH   1  15
TORSDOF 6
ENDMDL
MODEL 3
REMARK VINA RESULT:      -8.0      2.040      3.200
REMARK  6 active torsions:
REMARK  status: ('A' for Active; 'I' for Inactive)
REMARK    1  A    between atoms: C_3  and  C_4 
REMARK    2  A    between atoms: C_9  and  C_10 
REMARK    3  A    between atoms: C_10  and  O_11 
REMARK    4  A    between atoms: C_10  and  C_12 
REMARK    5  A    between atoms: C_12  and  N_13 
REMARK    6  A    between atoms: C_17  and  C_18 
ROOT
HETATM    1  C   UNL     1     -40.808  55.567 -50.235  1.00  0.00     0.271 C 
ENDROOT
BRANCH   1   2
HETATM    2  C   UNL     1     -41.269  54.138 -50.636  1.00  0.00     0.177 C 
BRANCH   2   3
HETATM    3  C   UNL     1     -40.867  53.706 -52.036  1.00  0.00    -0.027 A 
HETATM    4  C   UNL     1     -40.535  52.364 -52.300  1.00  0.00     0.025 A 
HETATM    5  C   UNL     1     -40.206  51.927 -53.598  1.00  0.00     0.048 A 
HETATM    6  C   UNL     1     -40.167  52.860 -54.638  1.00  0.00     0.016 A 
HETATM    7  C   UNL     1     -40.446  54.201 -54.386  1.00  0.00     0.001 A 
HETATM    8  C   UNL     1     -40.792  54.621 -53.099  1.00  0.00     0.010 A 
BRANCH   5   9
HETATM    9  C   UNL     1     -39.934  50.460 -53.849  1.00  0.00     0.417 C 
HETATM   10  F   UNL     1     -38.792  50.220 -54.543  1.00  0.00    -0.166 F 
HETATM   11  F   UNL     1     -39.846  49.747 -52.694  1.00  0.00    -0.166 F 
HETATM   12  F   UNL     1     -40.943  49.887 -54.565  1.00  0.00    -0.166 F 
ENDBRANCH   5   9
ENDBRANCH   2   3
BRANCH   2  13
HETATM   13  O   UNL     1     -40.731  53.264 -49.631  1.00  0.00    -0.389 OA
HETATM   14  H   UNL     1     -39.757  53.345 -49.686  1.00  0.00     0.210 HD
ENDBRANCH   2  13
ENDBRANCH   1   2
BRANCH   1  15
HETATM   15  N   UNL     1     -41.936  56.602 -50.402  1.00  0.00    -0.068 N 
HETATM   16  H   UNL     1     -42.049  56.988 -49.448  1.00  0.00     0.280 HD
HETATM   17  C   UNL     1     -41.553  57.751 -51.302  1.00  0.00     0.235 C 
HETATM   18  C   UNL     1     -42.716  58.719 -51.466  1.00  0.00     0.037 C 
HETATM   19  C   UNL     1     -43.969  58.024 -52.013  1.00  0.00     0.025 C 
HETATM   20  C   UNL     1     -44.340  56.908 -51.028  1.00  0.00     0.037 C 
HETATM   21  C   UNL     1     -43.209  55.911 -50.821  1.00  0.00     0.235 C 
BRANCH  19  22
HETATM   22  C   UNL     1     -43.801  57.554 -53.437  1.00  0.00    -0.018 A 
HETATM   23  C   UNL     1     -42.885  58.006 -54.420  1.00  0.00     0.147 A 
HETATM   24  N   UNL     1     -43.046  57.401 -55.595  1.00  0.00    -0.187 NA
HETATM   25  N   UNL     1     -43.984  56.475 -55.359  1.00  0.00    -0.289 N 
HETATM   26  H   UNL     1     -44.238  55.840 -56.109  1.00  0.00     0.188 HD
HETATM   27  C   UNL     1     -44.479  56.537 -54.087  1.00  0.00     0.118 A 
ENDBRANCH  19  22
ENDBRANCH   1  15
TORSDOF 6
ENDMDL
MODEL 4
REMARK VINA RESULT:      -7.9      2.391      2.948
REMARK  6 active torsions:
REMARK  status: ('A' for Active; 'I' for Inactive)
REMARK    1  A    between atoms: C_3  and  C_4 
REMARK    2  A    between atoms: C_9  and  C_10 
REMARK    3  A    between atoms: C_10  and  O_11 
REMARK    4  A    between atoms: C_10  and  C_12 
REMARK    5  A    between atoms: C_12  and  N_13 
REMARK    6  A    between atoms: C_17  and  C_18 
ROOT
HETATM    1  C   UNL     1     -42.541  54.357 -55.021  1.00  0.00     0.271 C 
ENDROOT
BRANCH   1   2
HETATM    2  C   UNL     1     -41.033  54.474 -54.671  1.00  0.00     0.177 C 
BRANCH   2   3
HETATM    3  C   UNL     1     -40.560  53.549 -53.564  1.00  0.00    -0.027 A 
HETATM    4  C   UNL     1     -40.595  53.968 -52.220  1.00  0.00     0.025 A 
HETATM    5  C   UNL     1     -40.209  53.113 -51.169  1.00  0.00     0.048 A 
HETATM    6  C   UNL     1     -39.738  51.833 -51.476  1.00  0.00     0.016 A 
HETATM    7  C   UNL     1     -39.651  51.418 -52.802  1.00  0.00     0.001 A 
HETATM    8  C   UNL     1     -40.057  52.266 -53.836  1.00  0.00     0.010 A 
BRANCH   5   9
HETATM    9  C   UNL     1     -40.340  53.579 -49.736  1.00  0.00     0.417 C 
HETATM   10  F   UNL     1     -41.373  54.436 -49.526  1.00  0.00    -0.166 F 
HETATM   11  F   UNL     1     -40.509  52.545 -48.870  1.00  0.00    -0.166 F 
HETATM   12  F   UNL     1     -39.215  54.230 -49.326  1.00  0.00    -0.166 F 
ENDBRANCH   5   9
ENDBRANCH   2   3
BRANCH   2  13
HETATM   13  O   UNL     1     -40.332  54.236 -55.903  1.00  0.00    -0.389 OA
HETATM   14  H   UNL     1     -39.472  54.696 -55.825  1.00  0.00     0.210 HD
ENDBRANCH   2  13
ENDBRANCH   1   2
BRANCH   1  15
HETATM   15  N   UNL     1     -43.301  55.665 -54.735  1.00  0.00    -0.068 N 
HETATM   16  H   UNL     1     -44.236  55.493 -55.146  1.00  0.00     0.280 HD
HETATM   17  C   UNL     1     -43.504  55.919 -53.262  1.00  0.00     0.235 C 
HETATM   18  C   UNL     1     -44.220  57.243 -53.036  1.00  0.00     0.037 C 
HETATM   19  C   UNL     1     -43.465  58.419 -53.668  1.00  0.00     0.025 C 
HETATM   20  C   UNL     1     -43.343  58.130 -55.170  1.00  0.00     0.037 C 
HETATM   21  C   UNL     1     -42.638  56.811 -55.455  1.00  0.00     0.235 C 
BRANCH  19  22
HETATM   22  C   UNL     1     -42.148  58.701 -52.988  1.00  0.00    -0.018 A 
HETATM   23  C   UNL     1     -40.890  58.991 -53.574  1.00  0.00     0.147 A 
HETATM   24  N   UNL     1     -39.921  59.140 -52.673  1.00  0.00    -0.187 NA
HETATM   25  N   UNL     1     -40.556  59.064 -51.497  1.00  0.00    -0.289 N 
HETATM   26  H   UNL     1     -40.021  59.207 -50.646  1.00  0.00     0.188 HD
HETATM   27  C   UNL     1     -41.887  58.786 -51.632  1.00  0.00     0.118 A 
ENDBRANCH  19  22
ENDBRANCH   1  15
TORSDOF 6
ENDMDL
MODEL 5
REMARK VINA RESULT:      -7.9      2.548      3.826
REMARK  6 active torsions:
REMARK  status: ('A' for Active; 'I' for Inactive)
REMARK    1  A    between atoms: C_3  and  C_4 
REMARK    2  A    between atoms: C_9  and  C_10 
REMARK    3  A    between atoms: C_10  and  O_11 
REMARK    4  A    between atoms: C_10  and  C_12 
REMARK    5  A    between atoms: C_12  and  N_13 
REMARK    6  A    between atoms: C_17  and  C_18 
ROOT
HETATM    1  C   UNL     1     -41.109  56.239 -49.986  1.00  0.00     0.271 C 
ENDROOT
BRANCH   1   2
HETATM    2  C   UNL     1     -41.612  54.771 -49.908  1.00  0.00     0.177 C 
BRANCH   2   3
HETATM    3  C   UNL     1     -41.014  53.835 -50.944  1.00  0.00    -0.027 A 
HETATM    4  C   UNL     1     -41.130  54.123 -52.317  1.00  0.00     0.025 A 
HETATM    5  C   UNL     1     -40.542  53.299 -53.297  1.00  0.00     0.048 A 
HETATM    6  C   UNL     1     -39.867  52.143 -52.894  1.00  0.00     0.016 A 
HETATM    7  C   UNL     1     -39.783  51.817 -51.543  1.00  0.00     0.001 A 
HETATM    8  C   UNL     1     -40.352  52.652 -50.577  1.00  0.00     0.010 A 
BRANCH   5   9
HETATM    9  C   UNL     1     -40.625  53.693 -54.755  1.00  0.00     0.417 C 
HETATM   10  F   UNL     1     -41.877  53.622 -55.276  1.00  0.00    -0.166 F 
HETATM   11  F   UNL     1     -40.181  54.959 -54.973  1.00  0.00    -0.166 F 
HETATM   12  F   UNL     1     -39.843  52.885 -55.527  1.00  0.00    -0.166 F 
ENDBRANCH   5   9
ENDBRANCH   2   3
BRANCH   2  13
HETATM   13  O   UNL     1     -41.328  54.337 -48.567  1.00  0.00    -0.389 OA
HETATM   14  H   UNL     1     -41.578  55.077 -47.978  1.00  0.00     0.210 HD
ENDBRANCH   2  13
ENDBRANCH   1   2
BRANCH   1  15
HETATM   15  N   UNL     1     -42.212  57.199 -50.467  1.00  0.00    -0.068 N 
HETATM   16  H   UNL     1     -42.424  57.761 -49.623  1.00  0.00     0.280 HD
HETATM   17  C   UNL     1     -41.737  58.158 -51.529  1.00  0.00     0.235 C 
HETATM   18  C   UNL     1     -42.876  59.053 -51.998  1.00  0.00     0.037 C 
HETATM   19  C   UNL     1     -44.065  58.239 -52.525  1.00  0.00     0.025 C 
HETATM   20  C   UNL     1     -44.538  57.329 -51.384  1.00  0.00     0.037 C 
HETATM   21  C   UNL     1     -43.435  56.415 -50.871  1.00  0.00     0.235 C 
BRANCH  19  22
HETATM   22  C   UNL     1     -43.749  57.505 -53.805  1.00  0.00    -0.018 A 
HETATM   23  C   UNL     1     -42.794  57.827 -54.802  1.00  0.00     0.147 A 
HETATM   24  N   UNL     1     -42.815  56.983 -55.831  1.00  0.00    -0.187 NA
HETATM   25  N   UNL     1     -43.695  56.044 -55.463  1.00  0.00    -0.289 N 
HETATM   26  H   UNL     1     -43.840  55.248 -56.077  1.00  0.00     0.188 HD
HETATM   27  C   UNL     1     -44.293  56.320 -54.266  1.00  0.00     0.118 A 
ENDBRANCH  19  22
ENDBRANCH   1  15
TORSDOF 6
ENDMDL
MODEL 6
REMARK VINA RESULT:      -7.7      1.944      2.633
REMARK  6 active torsions:
REMARK  status: ('A' for Active; 'I' for Inactive)
REMARK    1  A    between atoms: C_3  and  C_4 
REMARK    2  A    between atoms: C_9  and  C_10 
REMARK    3  A    between atoms: C_10  and  O_11 
REMARK    4  A    between atoms: C_10  and  C_12 
REMARK    5  A    between atoms: C_12  and  N_13 
REMARK    6  A    between atoms: C_17  and  C_18 
ROOT
HETATM    1  C   UNL     1     -43.597  56.279 -50.999  1.00  0.00     0.271 C 
ENDROOT
BRANCH   1   2
HETATM    2  C   UNL     1     -42.897  55.761 -52.284  1.00  0.00     0.177 C 
BRANCH   2   3
HETATM    3  C   UNL     1     -41.902  54.635 -52.060  1.00  0.00    -0.027 A 
HETATM    4  C   UNL     1     -41.532  53.787 -53.122  1.00  0.00     0.025 A 
HETATM    5  C   UNL     1     -40.575  52.767 -52.954  1.00  0.00     0.048 A 
HETATM    6  C   UNL     1     -40.014  52.566 -51.690  1.00  0.00     0.016 A 
HETATM    7  C   UNL     1     -40.403  53.364 -50.617  1.00  0.00     0.001 A 
HETATM    8  C   UNL     1     -41.338  54.387 -50.798  1.00  0.00     0.010 A 
BRANCH   5   9
HETATM    9  C   UNL     1     -40.151  51.934 -54.143  1.00  0.00     0.417 C 
HETATM   10  F   UNL     1     -39.889  52.659 -55.261  1.00  0.00    -0.166 F 
HETATM   11  F   UNL     1     -39.038  51.197 -53.886  1.00  0.00    -0.166 F 
HETATM   12  F   UNL     1     -41.120  51.038 -54.488  1.00  0.00    -0.166 F 
ENDBRANCH   5   9
ENDBRANCH   2   3
BRANCH   2  13
HETATM   13  O   UNL     1     -43.958  55.368 -53.170  1.00  0.00    -0.389 OA
HETATM   14  H   UNL     1     -43.530  54.982 -53.961  1.00  0.00     0.210 HD
ENDBRANCH   2  13
ENDBRANCH   1   2
BRANCH   1  15
HETATM   15  N   UNL     1     -43.245  57.748 -50.705  1.00  0.00    -0.068 N 
HETATM   16  H   UNL     1     -43.328  57.812 -49.675  1.00  0.00     0.280 HD
HETATM   17  C   UNL     1     -41.820  58.096 -51.058  1.00  0.00     0.235 C 
HETATM   18  C   UNL     1     -41.541  59.568 -50.789  1.00  0.00     0.037 C 
HETATM   19  C   UNL     1     -42.504  60.484 -51.553  1.00  0.00     0.025 C 
HETATM   20  C   UNL     1     -43.928  60.123 -51.108  1.00  0.00     0.037 C 
HETATM   21  C   UNL     1     -44.261  58.658 -51.349  1.00  0.00     0.235 C 
BRANCH  19  22
HETATM   22  C   UNL     1     -42.297  60.435 -53.047  1.00  0.00    -0.018 A 
HETATM   23  C   UNL     1     -41.522  59.523 -53.807  1.00  0.00     0.147 A 
HETATM   24  N   UNL     1     -41.522  59.803 -55.108  1.00  0.00    -0.187 NA
HETATM   25  N   UNL     1     -42.383  60.822 -55.222  1.00  0.00    -0.289 N 
HETATM   26  H   UNL     1     -42.594  61.178 -56.150  1.00  0.00     0.188 HD
HETATM   27  C   UNL     1     -42.861  61.247 -54.014  1.00  0.00     0.118 A 
ENDBRANCH  19  22
ENDBRANCH   1  15
TORSDOF 6
ENDMDL
MODEL 7
REMARK VINA RESULT:      -7.7      4.129      5.857
REMARK  6 active torsions:
REMARK  status: ('A' for Active; 'I' for Inactive)
REMARK    1  A    between atoms: C_3  and  C_4 
REMARK    2  A    between atoms: C_9  and  C_10 
REMARK    3  A    between atoms: C_10  and  O_11 
REMARK    4  A    between atoms: C_10  and  C_12 
REMARK    5  A    between atoms: C_12  and  N_13 
REMARK    6  A    between atoms: C_17  and  C_18 
ROOT
HETATM    1  C   UNL     1     -42.662  56.203 -55.181  1.00  0.00     0.271 C 
ENDROOT
BRANCH   1   2
HETATM    2  C   UNL     1     -43.011  54.710 -54.937  1.00  0.00     0.177 C 
BRANCH   2   3
HETATM    3  C   UNL     1     -41.996  53.944 -54.105  1.00  0.00    -0.027 A 
HETATM    4  C   UNL     1     -41.853  54.211 -52.731  1.00  0.00     0.025 A 
HETATM    5  C   UNL     1     -40.956  53.482 -51.926  1.00  0.00     0.048 A 
HETATM    6  C   UNL     1     -40.157  52.501 -52.521  1.00  0.00     0.016 A 
HETATM    7  C   UNL     1     -40.250  52.256 -53.888  1.00  0.00     0.001 A 
HETATM    8  C   UNL     1     -41.159  52.970 -54.674  1.00  0.00     0.010 A 
BRANCH   5   9
HETATM    9  C   UNL     1     -40.894  53.749 -50.439  1.00  0.00     0.417 C 
HETATM   10  F   UNL     1     -40.567  52.661 -49.694  1.00  0.00    -0.166 F 
HETATM   11  F   UNL     1     -39.995  54.721 -50.126  1.00  0.00    -0.166 F 
HETATM   12  F   UNL     1     -42.096  54.188 -49.967  1.00  0.00    -0.166 F 
ENDBRANCH   5   9
ENDBRANCH   2   3
BRANCH   2  13
HETATM   13  O   UNL     1     -44.311  54.714 -54.324  1.00  0.00    -0.389 OA
HETATM   14  H   UNL     1     -44.217  55.195 -53.477  1.00  0.00     0.210 HD
ENDBRANCH   2  13
ENDBRANCH   1   2
BRANCH   1  15
HETATM   15  N   UNL     1     -42.442  56.505 -56.674  1.00  0.00    -0.068 N 
HETATM   16  H   UNL     1     -41.410  56.534 -56.762  1.00  0.00     0.280 HD
HETATM   17  C   UNL     1     -42.932  55.401 -57.578  1.00  0.00     0.235 C 
HETATM   18  C   UNL     1     -42.730  55.770 -59.041  1.00  0.00     0.037 C 
HETATM   19  C   UNL     1     -43.427  57.087 -59.402  1.00  0.00     0.025 C 
HETATM   20  C   UNL     1     -42.845  58.178 -58.493  1.00  0.00     0.037 C 
HETATM   21  C   UNL     1     -43.015  57.857 -57.015  1.00  0.00     0.235 C 
BRANCH  19  22
HETATM   22  C   UNL     1     -44.932  56.985 -59.352  1.00  0.00    -0.018 A 
HETATM   23  C   UNL     1     -45.866  57.889 -58.785  1.00  0.00     0.147 A 
HETATM   24  N   UNL     1     -47.122  57.460 -58.875  1.00  0.00    -0.187 NA
HETATM   25  N   UNL     1     -47.031  56.337 -59.599  1.00  0.00    -0.289 N 
HETATM   26  H   UNL     1     -47.887  55.851 -59.850  1.00  0.00     0.188 HD
HETATM   27  C   UNL     1     -45.740  56.002 -59.894  1.00  0.00     0.118 A 
ENDBRANCH  19  22
ENDBRANCH   1  15
TORSDOF 6
ENDMDL
MODEL 8
REMARK VINA RESULT:      -7.6      2.227      3.621
REMARK  6 active torsions:
REMARK  status: ('A' for Active; 'I' for Inactive)
REMARK    1  A    between atoms: C_3  and  C_4 
REMARK    2  A    between atoms: C_9  and  C_10 
REMARK    3  A    between atoms: C_10  and  O_11 
REMARK    4  A    between atoms: C_10  and  C_12 
REMARK    5  A    between atoms: C_12  and  N_13 
REMARK    6  A    between atoms: C_17  and  C_18 
ROOT
HETATM    1  C   UNL     1     -42.994  56.719 -51.004  1.00  0.00     0.271 C 
ENDROOT
BRANCH   1   2
HETATM    2  C   UNL     1     -43.309  55.273 -51.473  1.00  0.00     0.177 C 
BRANCH   2   3
HETATM    3  C   UNL     1     -42.116  54.333 -51.493  1.00  0.00    -0.027 A 
HETATM    4  C   UNL     1     -41.763  53.652 -52.673  1.00  0.00     0.025 A 
HETATM    5  C   UNL     1     -40.633  52.814 -52.733  1.00  0.00     0.048 A 
HETATM    6  C   UNL     1     -39.871  52.620 -51.577  1.00  0.00     0.016 A 
HETATM    7  C   UNL     1     -40.232  53.248 -50.388  1.00  0.00     0.001 A 
HETATM    8  C   UNL     1     -41.344  54.095 -50.344  1.00  0.00     0.010 A 
BRANCH   5   9
HETATM    9  C   UNL     1     -40.248  52.166 -54.045  1.00  0.00     0.417 C 
HETATM   10  F   UNL     1     -41.126  51.224 -54.475  1.00  0.00    -0.166 F 
HETATM   11  F   UNL     1     -40.125  53.073 -55.051  1.00  0.00    -0.166 F 
HETATM   12  F   UNL     1     -39.037  51.546 -53.951  1.00  0.00    -0.166 F 
ENDBRANCH   5   9
ENDBRANCH   2   3
BRANCH   2  13
HETATM   13  O   UNL     1     -44.347  54.801 -50.598  1.00  0.00    -0.389 OA
HETATM   14  H   UNL     1     -45.183  55.188 -50.927  1.00  0.00     0.210 HD
ENDBRANCH   2  13
ENDBRANCH   1   2
BRANCH   1  15
HETATM   15  N   UNL     1     -43.111  57.735 -52.155  1.00  0.00    -0.068 N 
HETATM   16  H   UNL     1     -43.230  58.639 -51.664  1.00  0.00     0.280 HD
HETATM   17  C   UNL     1     -41.853  57.840 -52.980  1.00  0.00     0.235 C 
HETATM   18  C   UNL     1     -42.039  58.823 -54.127  1.00  0.00     0.037 C 
HETATM   19  C   UNL     1     -43.220  58.439 -55.026  1.00  0.00     0.025 C 
HETATM   20  C   UNL     1     -44.475  58.407 -54.144  1.00  0.00     0.037 C 
HETATM   21  C   UNL     1     -44.342  57.441 -52.975  1.00  0.00     0.235 C 
BRANCH  19  22
HETATM   22  C   UNL     1     -42.977  57.164 -55.796  1.00  0.00    -0.018 A 
HETATM   23  C   UNL     1     -43.206  55.824 -55.391  1.00  0.00     0.147 A 
HETATM   24  N   UNL     1     -42.832  54.935 -56.308  1.00  0.00    -0.187 NA
HETATM   25  N   UNL     1     -42.466  55.683 -57.356  1.00  0.00    -0.289 N 
HETATM   26  H   UNL     1     -42.189  55.215 -58.214  1.00  0.00     0.188 HD
HETATM   27  C   UNL     1     -42.520  57.023 -57.094  1.00  0.00     0.118 A 
ENDBRANCH  19  22
ENDBRANCH   1  15
TORSDOF 6
ENDMDL
MODEL 9
REMARK VINA RESULT:      -7.3      2.811      3.613
REMARK  6 active torsions:
REMARK  status: ('A' for Active; 'I' for Inactive)
REMARK    1  A    between atoms: C_3  and  C_4 
REMARK    2  A    between atoms: C_9  and  C_10 
REMARK    3  A    between atoms: C_10  and  O_11 
REMARK    4  A    between atoms: C_10  and  C_12 
REMARK    5  A    between atoms: C_12  and  N_13 
REMARK    6  A    between atoms: C_17  and  C_18 
ROOT
HETATM    1  C   UNL     1     -42.221  54.782 -54.767  1.00  0.00     0.271 C 
ENDROOT
BRANCH   1   2
HETATM    2  C   UNL     1     -40.703  54.532 -54.554  1.00  0.00     0.177 C 
BRANCH   2   3
HETATM    3  C   UNL     1     -40.367  53.522 -53.470  1.00  0.00    -0.027 A 
HETATM    4  C   UNL     1     -40.473  53.872 -52.111  1.00  0.00     0.025 A 
HETATM    5  C   UNL     1     -40.217  52.941 -51.085  1.00  0.00     0.048 A 
HETATM    6  C   UNL     1     -39.804  51.651 -51.430  1.00  0.00     0.016 A 
HETATM    7  C   UNL     1     -39.647  51.300 -52.768  1.00  0.00     0.001 A 
HETATM    8  C   UNL     1     -39.925  52.225 -53.779  1.00  0.00     0.010 A 
BRANCH   5   9
HETATM    9  C   UNL     1     -40.421  53.341 -49.641  1.00  0.00     0.417 C 
HETATM   10  F   UNL     1     -40.522  52.290 -48.786  1.00  0.00    -0.166 F 
HETATM   11  F   UNL     1     -39.414  54.127 -49.176  1.00  0.00    -0.166 F 
HETATM   12  F   UNL     1     -41.564  54.068 -49.488  1.00  0.00    -0.166 F 
ENDBRANCH   5   9
ENDBRANCH   2   3
BRANCH   2  13
HETATM   13  O   UNL     1     -40.195  54.129 -55.836  1.00  0.00    -0.389 OA
HETATM   14  H   UNL     1     -39.229  54.016 -55.728  1.00  0.00     0.210 HD
ENDBRANCH   2  13
ENDBRANCH   1   2
BRANCH   1  15
HETATM   15  N   UNL     1     -42.530  56.271 -55.005  1.00  0.00    -0.068 N 
HETATM   16  H   UNL     1     -42.245  56.419 -55.990  1.00  0.00     0.280 HD
HETATM   17  C   UNL     1     -44.002  56.590 -54.916  1.00  0.00     0.235 C 
HETATM   18  C   UNL     1     -44.245  58.079 -55.116  1.00  0.00     0.037 C 
HETATM   19  C   UNL     1     -43.467  58.928 -54.104  1.00  0.00     0.025 C 
HETATM   20  C   UNL     1     -41.978  58.604 -54.283  1.00  0.00     0.037 C 
HETATM   21  C   UNL     1     -41.677  57.123 -54.100  1.00  0.00     0.235 C 
BRANCH  19  22
HETATM   22  C   UNL     1     -43.966  58.757 -52.690  1.00  0.00    -0.018 A 
HETATM   23  C   UNL     1     -45.055  57.979 -52.221  1.00  0.00     0.147 A 
HETATM   24  N   UNL     1     -45.247  58.096 -50.909  1.00  0.00    -0.187 NA
HETATM   25  N   UNL     1     -44.223  58.853 -50.496  1.00  0.00    -0.289 N 
HETATM   26  H   UNL     1     -44.124  59.036 -49.502  1.00  0.00     0.188 HD
HETATM   27  C   UNL     1     -43.437  59.287 -51.527  1.00  0.00     0.118 A 
ENDBRANCH  19  22
ENDBRANCH   1  15
TORSDOF 6
ENDMDL
MODEL 10
REMARK VINA RESULT:      -7.3      2.649      3.426
REMARK  6 active torsions:
REMARK  status: ('A' for Active; 'I' for Inactive)
REMARK    1  A    between atoms: C_3  and  C_4 
REMARK    2  A    between atoms: C_9  and  C_10 
REMARK    3  A    between atoms: C_10  and  O_11 
REMARK    4  A    between atoms: C_10  and  C_12 
REMARK    5  A    between atoms: C_12  and  N_13 
REMARK    6  A    between atoms: C_17  and  C_18 
ROOT
HETATM    1  C   UNL     1     -41.625  57.165 -52.228  1.00  0.00     0.271 C 
ENDROOT
BRANCH   1   2
HETATM    2  C   UNL     1     -41.968  56.195 -51.064  1.00  0.00     0.177 C 
BRANCH   2   3
HETATM    3  C   UNL     1     -41.308  54.829 -51.156  1.00  0.00    -0.027 A 
HETATM    4  C   UNL     1     -41.105  54.217 -52.407  1.00  0.00     0.025 A 
HETATM    5  C   UNL     1     -40.452  52.975 -52.525  1.00  0.00     0.048 A 
HETATM    6  C   UNL     1     -40.036  52.316 -51.364  1.00  0.00     0.016 A 
HETATM    7  C   UNL     1     -40.271  52.883 -50.114  1.00  0.00     0.001 A 
HETATM    8  C   UNL     1     -40.901  54.127 -50.010  1.00  0.00     0.010 A 
BRANCH   5   9
HETATM    9  C   UNL     1     -40.185  52.395 -53.896  1.00  0.00     0.417 C 
HETATM   10  F   UNL     1     -39.205  51.454 -53.917  1.00  0.00    -0.166 F 
HETATM   11  F   UNL     1     -41.291  51.818 -54.436  1.00  0.00    -0.166 F 
HETATM   12  F   UNL     1     -39.802  53.364 -54.775  1.00  0.00    -0.166 F 
ENDBRANCH   5   9
ENDBRANCH   2   3
BRANCH   2  13
HETATM   13  O   UNL     1     -41.597  56.889 -49.862  1.00  0.00    -0.389 OA
HETATM   14  H   UNL     1     -41.656  57.844 -50.065  1.00  0.00     0.210 HD
ENDBRANCH   2  13
ENDBRANCH   1   2
BRANCH   1  15
HETATM   15  N   UNL     1     -42.829  57.389 -53.162  1.00  0.00    -0.068 N 
HETATM   16  H   UNL     1     -43.557  56.768 -52.766  1.00  0.00     0.280 HD
HETATM   17  C   UNL     1     -43.367  58.797 -53.102  1.00  0.00     0.235 C 
HETATM   18  C   UNL     1     -44.525  58.975 -54.074  1.00  0.00     0.037 C 
HETATM   19  C   UNL     1     -44.123  58.631 -55.514  1.00  0.00     0.025 C 
HETATM   20  C   UNL     1     -43.642  57.174 -55.519  1.00  0.00     0.037 C 
HETATM   21  C   UNL     1     -42.486  56.937 -54.558  1.00  0.00     0.235 C 
BRANCH  19  22
HETATM   22  C   UNL     1     -43.129  59.608 -56.092  1.00  0.00    -0.018 A 
HETATM   23  C   UNL     1     -42.129  59.383 -57.072  1.00  0.00     0.147 A 
HETATM   24  N   UNL     1     -41.390  60.463 -57.315  1.00  0.00    -0.187 NA
HETATM   25  N   UNL     1     -41.971  61.425 -56.587  1.00  0.00    -0.289 N 
HETATM   26  H   UNL     1     -41.608  62.372 -56.655  1.00  0.00     0.188 HD
HETATM   27  C   UNL     1     -43.005  60.960 -55.825  1.00  0.00     0.118 A 
ENDBRANCH  19  22
ENDBRANCH   1  15
TORSDOF 6
ENDMDL
