MODEL 1
REMARK VINA RESULT:      -8.2      0.000      0.000
REMARK  7 active torsions:
REMARK  status: ('A' for Active; 'I' for Inactive)
REMARK    1  A    between atoms: C_4  and  C_5 
REMARK    2  A    between atoms: C_12  and  C_13 
REMARK       I    between atoms: C_13  and  N_14 
REMARK    3  A    between atoms: N_14  and  N_15 
REMARK       I    between atoms: N_15  and  C_16 
REMARK    4  A    between atoms: C_16  and  C_17 
REMARK    5  A    between atoms: C_17  and  C_18 
REMARK    6  A    between atoms: C_18  and  C_19 
REMARK    7  A    between atoms: C_22  and  O_23 
ROOT
HETATM    1  C   UNL     1     -41.808  57.381 -51.201  1.00  0.00     0.272 C 
HETATM    2  N   UNL     1     -43.168  57.579 -51.090  1.00  0.00    -0.263 N 
HETATM    3  O   UNL     1     -40.980  58.231 -50.891  1.00  0.00    -0.266 OA
HETATM    4  H   UNL     1     -43.878  56.875 -51.286  1.00  0.00     0.190 HD
ENDROOT
BRANCH   2   5
HETATM    5  N   UNL     1     -43.625  58.812 -50.627  1.00  0.00    -0.267 N 
HETATM    6  C   UNL     1     -44.987  59.019 -50.599  1.00  0.00     0.236 C 
HETATM    7  O   UNL     1     -45.797  58.117 -50.815  1.00  0.00    -0.272 OA
HETATM    8  H   UNL     1     -42.931  59.553 -50.558  1.00  0.00     0.190 HD
BRANCH   6   9
HETATM    9  C   UNL     1     -45.418  60.419 -50.222  1.00  0.00     0.109 C 
BRANCH   9  10
HETATM   10  C   UNL     1     -44.329  61.238 -49.526  1.00  0.00     0.048 C 
BRANCH  10  11
HETATM   11  C   UNL     1     -44.686  61.871 -48.200  1.00  0.00    -0.058 A 
HETATM   12  C   UNL     1     -44.906  61.124 -47.038  1.00  0.00     0.010 A 
HETATM   13  C   UNL     1     -45.209  61.761 -45.831  1.00  0.00     0.037 A 
HETATM   14  C   UNL     1     -45.279  63.152 -45.752  1.00  0.00     0.068 A 
HETATM   15  C   UNL     1     -45.044  63.906 -46.898  1.00  0.00     0.037 A 
HETATM   16  C   UNL     1     -44.745  63.269 -48.110  1.00  0.00     0.010 A 
BRANCH  14  17
HETATM   17  O   UNL     1     -45.580  63.642 -44.512  1.00  0.00    -0.356 OA
HETATM   18  C   UNL     1     -44.496  64.139 -43.737  1.00  0.00     0.210 C 
ENDBRANCH  14  17
ENDBRANCH  10  11
ENDBRANCH   9  10
ENDBRANCH   6   9
ENDBRANCH   2   5
BRANCH   1  19
HETATM   19  C   UNL     1     -41.402  56.052 -51.715  1.00  0.00     0.058 A 
HETATM   20  C   UNL     1     -41.164  54.978 -50.858  1.00  0.00     0.047 A 
HETATM   21  C   UNL     1     -41.296  55.088 -49.368  1.00  0.00     0.071 C 
HETATM   22  N   UNL     1     -40.803  53.749 -51.325  1.00  0.00    -0.252 NA
HETATM   23  C   UNL     1     -40.651  53.570 -52.663  1.00  0.00     0.074 A 
HETATM   24  C   UNL     1     -40.863  54.602 -53.570  1.00  0.00     0.034 A 
HETATM   25  C   UNL     1     -41.243  55.856 -53.091  1.00  0.00     0.021 A 
BRANCH  23  26
HETATM   26  C   UNL     1     -40.267  52.200 -53.041  1.00  0.00     0.033 A 
HETATM   27  S   UNL     1     -39.578  51.101 -51.909  1.00  0.00    -0.100 SA
HETATM   28  C   UNL     1     -39.457  49.853 -53.068  1.00  0.00     0.050 A 
HETATM   29  C   UNL     1     -39.929  50.245 -54.298  1.00  0.00     0.008 A 
HETATM   30  C   UNL     1     -40.401  51.589 -54.279  1.00  0.00     0.021 A 
ENDBRANCH  23  26
ENDBRANCH   1  19
TORSDOF 7
ENDMDL
MODEL 2
REMARK VINA RESULT:      -7.8      8.018     11.890
REMARK  7 active torsions:
REMARK  status: ('A' for Active; 'I' for Inactive)
REMARK    1  A    between atoms: C_4  and  C_5 
REMARK    2  A    between atoms: C_12  and  C_13 
REMARK       I    between atoms: C_13  and  N_14 
REMARK    3  A    between atoms: N_14  and  N_15 
REMARK       I    between atoms: N_15  and  C_16 
REMARK    4  A    between atoms: C_16  and  C_17 
REMARK    5  A    between atoms: C_17  and  C_18 
REMARK    6  A    between atoms: C_18  and  C_19 
REMARK    7  A    between atoms: C_22  and  O_23 
ROOT
HETATM    1  C   UNL     1     -43.531  56.295 -59.344  1.00  0.00     0.272 C 
HETATM    2  N   UNL     1     -43.516  56.203 -57.969  1.00  0.00    -0.263 N 
HETATM    3  O   UNL     1     -42.571  55.993 -60.045  1.00  0.00    -0.266 OA
HETATM    4  H   UNL     1     -44.313  56.392 -57.362  1.00  0.00     0.190 HD
ENDROOT
BRANCH   2   5
HETATM    5  N   UNL     1     -42.348  55.769 -57.343  1.00  0.00    -0.267 N 
HETATM    6  C   UNL     1     -42.371  55.626 -55.974  1.00  0.00     0.236 C 
HETATM    7  O   UNL     1     -43.410  55.716 -55.318  1.00  0.00    -0.272 OA
HETATM    8  H   UNL     1     -41.497  55.807 -57.901  1.00  0.00     0.190 HD
BRANCH   6   9
HETATM    9  C   UNL     1     -41.040  55.290 -55.338  1.00  0.00     0.109 C 
BRANCH   9  10
HETATM   10  C   UNL     1     -41.119  55.029 -53.833  1.00  0.00     0.048 C 
BRANCH  10  11
HETATM   11  C   UNL     1     -40.607  53.695 -53.338  1.00  0.00    -0.058 A 
HETATM   12  C   UNL     1     -40.355  53.433 -51.988  1.00  0.00     0.010 A 
HETATM   13  C   UNL     1     -39.904  52.173 -51.580  1.00  0.00     0.037 A 
HETATM   14  C   UNL     1     -39.717  51.145 -52.505  1.00  0.00     0.068 A 
HETATM   15  C   UNL     1     -39.982  51.390 -53.849  1.00  0.00     0.037 A 
HETATM   16  C   UNL     1     -40.428  52.653 -54.260  1.00  0.00     0.010 A 
BRANCH  14  17
HETATM   17  O   UNL     1     -39.278  49.967 -51.970  1.00  0.00    -0.356 OA
HETATM   18  C   UNL     1     -39.678  49.679 -50.636  1.00  0.00     0.210 C 
ENDBRANCH  14  17
ENDBRANCH  10  11
ENDBRANCH   9  10
ENDBRANCH   6   9
ENDBRANCH   2   5
BRANCH   1  19
HETATM   19  C   UNL     1     -44.802  56.779 -59.932  1.00  0.00     0.058 A 
HETATM   20  C   UNL     1     -45.042  58.138 -60.137  1.00  0.00     0.047 A 
HETATM   21  C   UNL     1     -44.044  59.199 -59.778  1.00  0.00     0.071 C 
HETATM   22  N   UNL     1     -46.202  58.589 -60.690  1.00  0.00    -0.252 NA
HETATM   23  C   UNL     1     -47.163  57.692 -61.034  1.00  0.00     0.074 A 
HETATM   24  C   UNL     1     -46.989  56.325 -60.847  1.00  0.00     0.034 A 
HETATM   25  C   UNL     1     -45.797  55.865 -60.291  1.00  0.00     0.021 A 
BRANCH  23  26
HETATM   26  C   UNL     1     -48.364  58.302 -61.627  1.00  0.00     0.033 A 
HETATM   27  S   UNL     1     -48.835  59.919 -61.272  1.00  0.00    -0.100 SA
HETATM   28  C   UNL     1     -50.201  59.834 -62.292  1.00  0.00     0.050 A 
HETATM   29  C   UNL     1     -50.312  58.608 -62.904  1.00  0.00     0.008 A 
HETATM   30  C   UNL     1     -49.253  57.732 -62.526  1.00  0.00     0.021 A 
ENDBRANCH  23  26
ENDBRANCH   1  19
TORSDOF 7
ENDMDL
MODEL 3
REMARK VINA RESULT:      -7.6      1.315      1.873
REMARK  7 active torsions:
REMARK  status: ('A' for Active; 'I' for Inactive)
REMARK    1  A    between atoms: C_4  and  C_5 
REMARK    2  A    between atoms: C_12  and  C_13 
REMARK       I    between atoms: C_13  and  N_14 
REMARK    3  A    between atoms: N_14  and  N_15 
REMARK       I    between atoms: N_15  and  C_16 
REMARK    4  A    between atoms: C_16  and  C_17 
REMARK    5  A    between atoms: C_17  and  C_18 
REMARK    6  A    between atoms: C_18  and  C_19 
REMARK    7  A    between atoms: C_22  and  O_23 
ROOT
HETATM    1  C   UNL     1     -42.371  56.732 -51.059  1.00  0.00     0.272 C 
HETATM    2  N   UNL     1     -41.449  57.731 -50.830  1.00  0.00    -0.263 N 
HETATM    3  O   UNL     1     -43.569  56.861 -50.831  1.00  0.00    -0.266 OA
HETATM    4  H   UNL     1     -40.458  57.676 -51.061  1.00  0.00     0.190 HD
ENDROOT
BRANCH   2   5
HETATM    5  N   UNL     1     -41.896  58.937 -50.291  1.00  0.00    -0.267 N 
HETATM    6  C   UNL     1     -42.010  60.014 -51.142  1.00  0.00     0.236 C 
HETATM    7  O   UNL     1     -41.887  59.908 -52.362  1.00  0.00    -0.272 OA
HETATM    8  H   UNL     1     -41.887  59.008 -49.276  1.00  0.00     0.190 HD
BRANCH   6   9
HETATM    9  C   UNL     1     -42.362  61.326 -50.477  1.00  0.00     0.109 C 
BRANCH   9  10
HETATM   10  C   UNL     1     -43.864  61.545 -50.289  1.00  0.00     0.048 C 
BRANCH  10  11
HETATM   11  C   UNL     1     -44.308  62.205 -49.003  1.00  0.00    -0.058 A 
HETATM   12  C   UNL     1     -44.324  63.593 -48.829  1.00  0.00     0.010 A 
HETATM   13  C   UNL     1     -44.767  64.153 -47.627  1.00  0.00     0.037 A 
HETATM   14  C   UNL     1     -45.223  63.346 -46.584  1.00  0.00     0.068 A 
HETATM   15  C   UNL     1     -45.229  61.964 -46.754  1.00  0.00     0.037 A 
HETATM   16  C   UNL     1     -44.780  61.400 -47.956  1.00  0.00     0.010 A 
BRANCH  14  17
HETATM   17  O   UNL     1     -45.630  64.024 -45.470  1.00  0.00    -0.356 OA
HETATM   18  C   UNL     1     -47.024  64.016 -45.187  1.00  0.00     0.210 C 
ENDBRANCH  14  17
ENDBRANCH  10  11
ENDBRANCH   9  10
ENDBRANCH   6   9
ENDBRANCH   2   5
BRANCH   1  19
HETATM   19  C   UNL     1     -41.817  55.476 -51.618  1.00  0.00     0.058 A 
HETATM   20  C   UNL     1     -41.385  54.437 -50.793  1.00  0.00     0.047 A 
HETATM   21  C   UNL     1     -41.446  54.515 -49.296  1.00  0.00     0.071 C 
HETATM   22  N   UNL     1     -40.888  53.274 -51.299  1.00  0.00    -0.252 NA
HETATM   23  C   UNL     1     -40.790  53.129 -52.647  1.00  0.00     0.074 A 
HETATM   24  C   UNL     1     -41.193  54.130 -53.523  1.00  0.00     0.034 A 
HETATM   25  C   UNL     1     -41.712  55.315 -53.003  1.00  0.00     0.021 A 
BRANCH  23  26
HETATM   26  C   UNL     1     -40.244  51.828 -53.068  1.00  0.00     0.033 A 
HETATM   27  S   UNL     1     -39.559  50.719 -51.944  1.00  0.00    -0.100 SA
HETATM   28  C   UNL     1     -39.215  49.571 -53.159  1.00  0.00     0.050 A 
HETATM   29  C   UNL     1     -39.610  50.003 -54.403  1.00  0.00     0.008 A 
HETATM   30  C   UNL     1     -40.207  51.295 -54.348  1.00  0.00     0.021 A 
ENDBRANCH  23  26
ENDBRANCH   1  19
TORSDOF 7
ENDMDL
MODEL 4
REMARK VINA RESULT:      -7.5     18.321     21.270
REMARK  7 active torsions:
REMARK  status: ('A' for Active; 'I' for Inactive)
REMARK    1  A    between atoms: C_4  and  C_5 
REMARK    2  A    between atoms: C_12  and  C_13 
REMARK       I    between atoms: C_13  and  N_14 
REMARK    3  A    between atoms: N_14  and  N_15 
REMARK       I    between atoms: N_15  and  C_16 
REMARK    4  A    between atoms: C_16  and  C_17 
REMARK    5  A    between atoms: C_17  and  C_18 
REMARK    6  A    between atoms: C_18  and  C_19 
REMARK    7  A    between atoms: C_22  and  O_23 
ROOT
HETATM    1  C   UNL     1     -33.728  40.146 -52.644  1.00  0.00     0.272 C 
HETATM    2  N   UNL     1     -34.144  41.450 -52.813  1.00  0.00    -0.263 N 
HETATM    3  O   UNL     1     -33.702  39.328 -53.558  1.00  0.00    -0.266 OA
HETATM    4  H   UNL     1     -34.124  42.167 -52.090  1.00  0.00     0.190 HD
ENDROOT
BRANCH   2   5
HETATM    5  N   UNL     1     -34.578  41.851 -54.076  1.00  0.00    -0.267 N 
HETATM    6  C   UNL     1     -35.900  42.213 -54.212  1.00  0.00     0.236 C 
HETATM    7  O   UNL     1     -36.652  42.342 -53.246  1.00  0.00    -0.272 OA
HETATM    8  H   UNL     1     -33.960  41.634 -54.856  1.00  0.00     0.190 HD
BRANCH   6   9
HETATM    9  C   UNL     1     -36.346  42.504 -55.628  1.00  0.00     0.109 C 
BRANCH   9  10
HETATM   10  C   UNL     1     -37.588  41.724 -56.060  1.00  0.00     0.048 C 
BRANCH  10  11
HETATM   11  C   UNL     1     -37.598  41.170 -57.468  1.00  0.00    -0.058 A 
HETATM   12  C   UNL     1     -38.072  39.891 -57.777  1.00  0.00     0.010 A 
HETATM   13  C   UNL     1     -38.081  39.438 -59.100  1.00  0.00     0.037 A 
HETATM   14  C   UNL     1     -37.640  40.254 -60.142  1.00  0.00     0.068 A 
HETATM   15  C   UNL     1     -37.183  41.536 -59.847  1.00  0.00     0.037 A 
HETATM   16  C   UNL     1     -37.168  41.991 -58.522  1.00  0.00     0.010 A 
BRANCH  14  17
HETATM   17  O   UNL     1     -37.707  39.687 -61.383  1.00  0.00    -0.356 OA
HETATM   18  C   UNL     1     -36.717  38.716 -61.699  1.00  0.00     0.210 C 
ENDBRANCH  14  17
ENDBRANCH  10  11
ENDBRANCH   9  10
ENDBRANCH   6   9
ENDBRANCH   2   5
BRANCH   1  19
HETATM   19  C   UNL     1     -33.296  39.793 -51.272  1.00  0.00     0.058 A 
HETATM   20  C   UNL     1     -34.176  39.218 -50.354  1.00  0.00     0.047 A 
HETATM   21  C   UNL     1     -35.609  38.921 -50.685  1.00  0.00     0.071 C 
HETATM   22  N   UNL     1     -33.783  38.877 -49.095  1.00  0.00    -0.252 NA
HETATM   23  C   UNL     1     -32.502  39.123 -48.714  1.00  0.00     0.074 A 
HETATM   24  C   UNL     1     -31.579  39.703 -49.577  1.00  0.00     0.034 A 
HETATM   25  C   UNL     1     -31.981  40.041 -50.868  1.00  0.00     0.021 A 
BRANCH  23  26
HETATM   26  C   UNL     1     -32.200  38.705 -47.335  1.00  0.00     0.033 A 
HETATM   27  S   UNL     1     -33.179  37.567 -46.492  1.00  0.00    -0.100 SA
HETATM   28  C   UNL     1     -32.201  37.635 -45.094  1.00  0.00     0.050 A 
HETATM   29  C   UNL     1     -31.143  38.499 -45.248  1.00  0.00     0.008 A 
HETATM   30  C   UNL     1     -31.140  39.106 -46.537  1.00  0.00     0.021 A 
ENDBRANCH  23  26
ENDBRANCH   1  19
TORSDOF 7
ENDMDL
MODEL 5
REMARK VINA RESULT:      -7.4      1.551      2.329
REMARK  7 active torsions:
REMARK  status: ('A' for Active; 'I' for Inactive)
REMARK    1  A    between atoms: C_4  and  C_5 
REMARK    2  A    between atoms: C_12  and  C_13 
REMARK       I    between atoms: C_13  and  N_14 
REMARK    3  A    between atoms: N_14  and  N_15 
REMARK       I    between atoms: N_15  and  C_16 
REMARK    4  A    between atoms: C_16  and  C_17 
REMARK    5  A    between atoms: C_17  and  C_18 
REMARK    6  A    between atoms: C_18  and  C_19 
REMARK    7  A    between atoms: C_22  and  O_23 
ROOT
HETATM    1  C   UNL     1     -43.991  57.323 -50.869  1.00  0.00     0.272 C 
HETATM    2  N   UNL     1     -43.322  58.516 -50.699  1.00  0.00    -0.263 N 
HETATM    3  O   UNL     1     -45.202  57.207 -50.711  1.00  0.00    -0.266 OA
HETATM    4  H   UNL     1     -42.328  58.659 -50.876  1.00  0.00     0.190 HD
ENDROOT
BRANCH   2   5
HETATM    5  N   UNL     1     -44.050  59.639 -50.307  1.00  0.00    -0.267 N 
HETATM    6  C   UNL     1     -43.533  60.877 -50.616  1.00  0.00     0.236 C 
HETATM    7  O   UNL     1     -42.552  61.019 -51.346  1.00  0.00    -0.272 OA
HETATM    8  H   UNL     1     -44.790  59.480 -49.625  1.00  0.00     0.190 HD
BRANCH   6   9
HETATM    9  C   UNL     1     -44.293  62.054 -50.044  1.00  0.00     0.109 C 
BRANCH   9  10
HETATM   10  C   UNL     1     -45.425  61.660 -49.094  1.00  0.00     0.048 C 
BRANCH  10  11
HETATM   11  C   UNL     1     -45.259  62.026 -47.636  1.00  0.00    -0.058 A 
HETATM   12  C   UNL     1     -45.038  61.075 -46.636  1.00  0.00     0.010 A 
HETATM   13  C   UNL     1     -44.867  61.470 -45.305  1.00  0.00     0.037 A 
HETATM   14  C   UNL     1     -44.892  62.818 -44.948  1.00  0.00     0.068 A 
HETATM   15  C   UNL     1     -45.093  63.775 -45.940  1.00  0.00     0.037 A 
HETATM   16  C   UNL     1     -45.270  63.381 -47.273  1.00  0.00     0.010 A 
BRANCH  14  17
HETATM   17  O   UNL     1     -44.708  63.063 -43.617  1.00  0.00    -0.356 OA
HETATM   18  C   UNL     1     -43.501  62.582 -43.037  1.00  0.00     0.210 C 
ENDBRANCH  14  17
ENDBRANCH  10  11
ENDBRANCH   9  10
ENDBRANCH   6   9
ENDBRANCH   2   5
BRANCH   1  19
HETATM   19  C   UNL     1     -43.145  56.175 -51.270  1.00  0.00     0.058 A 
HETATM   20  C   UNL     1     -43.053  55.765 -52.600  1.00  0.00     0.047 A 
HETATM   21  C   UNL     1     -43.797  56.447 -53.710  1.00  0.00     0.071 C 
HETATM   22  N   UNL     1     -42.267  54.718 -52.979  1.00  0.00    -0.252 NA
HETATM   23  C   UNL     1     -41.568  54.041 -52.031  1.00  0.00     0.074 A 
HETATM   24  C   UNL     1     -41.625  54.392 -50.687  1.00  0.00     0.034 A 
HETATM   25  C   UNL     1     -42.421  55.470 -50.303  1.00  0.00     0.021 A 
BRANCH  23  26
HETATM   26  C   UNL     1     -40.752  52.938 -52.566  1.00  0.00     0.033 A 
HETATM   27  S   UNL     1     -40.849  52.449 -54.214  1.00  0.00    -0.100 SA
HETATM   28  C   UNL     1     -39.673  51.229 -54.007  1.00  0.00     0.050 A 
HETATM   29  C   UNL     1     -39.200  51.182 -52.717  1.00  0.00     0.008 A 
HETATM   30  C   UNL     1     -39.816  52.168 -51.893  1.00  0.00     0.021 A 
ENDBRANCH  23  26
ENDBRANCH   1  19
TORSDOF 7
ENDMDL
MODEL 6
REMARK VINA RESULT:      -7.4      3.965     10.532
REMARK  7 active torsions:
REMARK  status: ('A' for Active; 'I' for Inactive)
REMARK    1  A    between atoms: C_4  and  C_5 
REMARK    2  A    between atoms: C_12  and  C_13 
REMARK       I    between atoms: C_13  and  N_14 
REMARK    3  A    between atoms: N_14  and  N_15 
REMARK       I    between atoms: N_15  and  C_16 
REMARK    4  A    between atoms: C_16  and  C_17 
REMARK    5  A    between atoms: C_17  and  C_18 
REMARK    6  A    between atoms: C_18  and  C_19 
REMARK    7  A    between atoms: C_22  and  O_23 
ROOT
HETATM    1  C   UNL     1     -43.527  58.209 -53.074  1.00  0.00     0.272 C 
HETATM    2  N   UNL     1     -42.833  57.054 -52.785  1.00  0.00    -0.263 N 
HETATM    3  O   UNL     1     -43.743  58.591 -54.220  1.00  0.00    -0.266 OA
HETATM    4  H   UNL     1     -42.685  56.681 -51.848  1.00  0.00     0.190 HD
ENDROOT
BRANCH   2   5
HETATM    5  N   UNL     1     -42.332  56.296 -53.842  1.00  0.00    -0.267 N 
HETATM    6  C   UNL     1     -43.008  55.144 -54.179  1.00  0.00     0.236 C 
HETATM    7  O   UNL     1     -44.101  54.853 -53.693  1.00  0.00    -0.272 OA
HETATM    8  H   UNL     1     -41.384  56.513 -54.143  1.00  0.00     0.190 HD
BRANCH   6   9
HETATM    9  C   UNL     1     -42.341  54.292 -55.237  1.00  0.00     0.109 C 
BRANCH   9  10
HETATM   10  C   UNL     1     -40.832  54.133 -55.047  1.00  0.00     0.048 C 
BRANCH  10  11
HETATM   11  C   UNL     1     -40.371  53.098 -54.045  1.00  0.00    -0.058 A 
HETATM   12  C   UNL     1     -40.272  53.359 -52.675  1.00  0.00     0.010 A 
HETATM   13  C   UNL     1     -39.863  52.358 -51.788  1.00  0.00     0.037 A 
HETATM   14  C   UNL     1     -39.564  51.074 -52.245  1.00  0.00     0.068 A 
HETATM   15  C   UNL     1     -39.677  50.798 -53.605  1.00  0.00     0.037 A 
HETATM   16  C   UNL     1     -40.081  51.801 -54.495  1.00  0.00     0.010 A 
BRANCH  14  17
HETATM   17  O   UNL     1     -39.181  50.194 -51.272  1.00  0.00    -0.356 OA
HETATM   18  C   UNL     1     -40.118  49.939 -50.233  1.00  0.00     0.210 C 
ENDBRANCH  14  17
ENDBRANCH  10  11
ENDBRANCH   9  10
ENDBRANCH   6   9
ENDBRANCH   2   5
BRANCH   1  19
HETATM   19  C   UNL     1     -44.013  58.967 -51.897  1.00  0.00     0.058 A 
HETATM   20  C   UNL     1     -43.220  59.926 -51.267  1.00  0.00     0.047 A 
HETATM   21  C   UNL     1     -41.829  60.254 -51.726  1.00  0.00     0.071 C 
HETATM   22  N   UNL     1     -43.664  60.636 -50.193  1.00  0.00    -0.252 NA
HETATM   23  C   UNL     1     -44.910  60.391 -49.708  1.00  0.00     0.074 A 
HETATM   24  C   UNL     1     -45.746  59.442 -50.285  1.00  0.00     0.034 A 
HETATM   25  C   UNL     1     -45.293  58.723 -51.390  1.00  0.00     0.021 A 
BRANCH  23  26
HETATM   26  C   UNL     1     -45.276  61.226 -48.553  1.00  0.00     0.033 A 
HETATM   27  S   UNL     1     -46.308  62.595 -48.708  1.00  0.00    -0.100 SA
HETATM   28  C   UNL     1     -46.229  62.948 -47.040  1.00  0.00     0.050 A 
HETATM   29  C   UNL     1     -45.440  62.051 -46.360  1.00  0.00     0.008 A 
HETATM   30  C   UNL     1     -44.900  61.059 -47.229  1.00  0.00     0.021 A 
ENDBRANCH  23  26
ENDBRANCH   1  19
TORSDOF 7
ENDMDL
MODEL 7
REMARK VINA RESULT:      -7.2     19.125     21.753
REMARK  7 active torsions:
REMARK  status: ('A' for Active; 'I' for Inactive)
REMARK    1  A    between atoms: C_4  and  C_5 
REMARK    2  A    between atoms: C_12  and  C_13 
REMARK       I    between atoms: C_13  and  N_14 
REMARK    3  A    between atoms: N_14  and  N_15 
REMARK       I    between atoms: N_15  and  C_16 
REMARK    4  A    between atoms: C_16  and  C_17 
REMARK    5  A    between atoms: C_17  and  C_18 
REMARK    6  A    between atoms: C_18  and  C_19 
REMARK    7  A    between atoms: C_22  and  O_23 
ROOT
HETATM    1  C   UNL     1     -33.685  39.861 -53.582  1.00  0.00     0.272 C 
HETATM    2  N   UNL     1     -33.360  41.078 -54.142  1.00  0.00    -0.263 N 
HETATM    3  O   UNL     1     -34.297  38.988 -54.188  1.00  0.00    -0.266 OA
HETATM    4  H   UNL     1     -32.805  41.801 -53.686  1.00  0.00     0.190 HD
ENDROOT
BRANCH   2   5
HETATM    5  N   UNL     1     -33.765  41.338 -55.451  1.00  0.00    -0.267 N 
HETATM    6  C   UNL     1     -34.928  42.055 -55.629  1.00  0.00     0.236 C 
HETATM    7  O   UNL     1     -35.521  42.594 -54.695  1.00  0.00    -0.272 OA
HETATM    8  H   UNL     1     -33.310  40.794 -56.181  1.00  0.00     0.190 HD
BRANCH   6   9
HETATM    9  C   UNL     1     -35.391  42.185 -57.064  1.00  0.00     0.109 C 
BRANCH   9  10
HETATM   10  C   UNL     1     -36.894  41.982 -57.252  1.00  0.00     0.048 C 
BRANCH  10  11
HETATM   11  C   UNL     1     -37.327  40.902 -58.218  1.00  0.00    -0.058 A 
HETATM   12  C   UNL     1     -37.985  39.737 -57.809  1.00  0.00     0.010 A 
HETATM   13  C   UNL     1     -38.386  38.781 -58.747  1.00  0.00     0.037 A 
HETATM   14  C   UNL     1     -38.158  38.973 -60.110  1.00  0.00     0.068 A 
HETATM   15  C   UNL     1     -37.520  40.137 -60.529  1.00  0.00     0.037 A 
HETATM   16  C   UNL     1     -37.113  41.095 -59.591  1.00  0.00     0.010 A 
BRANCH  14  17
HETATM   17  O   UNL     1     -38.604  37.962 -60.914  1.00  0.00    -0.356 OA
HETATM   18  C   UNL     1     -38.525  38.177 -62.318  1.00  0.00     0.210 C 
ENDBRANCH  14  17
ENDBRANCH  10  11
ENDBRANCH   9  10
ENDBRANCH   6   9
ENDBRANCH   2   5
BRANCH   1  19
HETATM   19  C   UNL     1     -33.233  39.666 -52.185  1.00  0.00     0.058 A 
HETATM   20  C   UNL     1     -32.252  38.731 -51.857  1.00  0.00     0.047 A 
HETATM   21  C   UNL     1     -31.590  37.860 -52.885  1.00  0.00     0.071 C 
HETATM   22  N   UNL     1     -31.821  38.556 -50.576  1.00  0.00    -0.252 NA
HETATM   23  C   UNL     1     -32.378  39.300 -49.585  1.00  0.00     0.074 A 
HETATM   24  C   UNL     1     -33.368  40.241 -49.844  1.00  0.00     0.034 A 
HETATM   25  C   UNL     1     -33.800  40.426 -51.157  1.00  0.00     0.021 A 
BRANCH  23  26
HETATM   26  C   UNL     1     -31.825  39.023 -48.249  1.00  0.00     0.033 A 
HETATM   27  S   UNL     1     -32.069  37.515 -47.456  1.00  0.00    -0.100 SA
HETATM   28  C   UNL     1     -31.165  37.993 -46.089  1.00  0.00     0.050 A 
HETATM   29  C   UNL     1     -30.675  39.271 -46.217  1.00  0.00     0.008 A 
HETATM   30  C   UNL     1     -31.049  39.858 -47.460  1.00  0.00     0.021 A 
ENDBRANCH  23  26
ENDBRANCH   1  19
TORSDOF 7
ENDMDL
MODEL 8
REMARK VINA RESULT:      -7.2     18.494     21.349
REMARK  7 active torsions:
REMARK  status: ('A' for Active; 'I' for Inactive)
REMARK    1  A    between atoms: C_4  and  C_5 
REMARK    2  A    between atoms: C_12  and  C_13 
REMARK       I    between atoms: C_13  and  N_14 
REMARK    3  A    between atoms: N_14  and  N_15 
REMARK       I    between atoms: N_15  and  C_16 
REMARK    4  A    between atoms: C_16  and  C_17 
REMARK    5  A    between atoms: C_17  and  C_18 
REMARK    6  A    between atoms: C_18  and  C_19 
REMARK    7  A    between atoms: C_22  and  O_23 
ROOT
HETATM    1  C   UNL     1     -34.450  39.105 -51.830  1.00  0.00     0.272 C 
HETATM    2  N   UNL     1     -35.358  40.133 -51.964  1.00  0.00    -0.263 N 
HETATM    3  O   UNL     1     -34.335  38.202 -52.652  1.00  0.00    -0.266 OA
HETATM    4  H   UNL     1     -35.441  40.926 -51.329  1.00  0.00     0.190 HD
ENDROOT
BRANCH   2   5
HETATM    5  N   UNL     1     -36.202  40.135 -53.074  1.00  0.00    -0.267 N 
HETATM    6  C   UNL     1     -36.548  41.355 -53.612  1.00  0.00     0.236 C 
HETATM    7  O   UNL     1     -36.022  42.408 -53.252  1.00  0.00    -0.272 OA
HETATM    8  H   UNL     1     -36.689  39.263 -53.272  1.00  0.00     0.190 HD
BRANCH   6   9
HETATM    9  C   UNL     1     -37.573  41.302 -54.723  1.00  0.00     0.109 C 
BRANCH   9  10
HETATM   10  C   UNL     1     -37.257  42.220 -55.905  1.00  0.00     0.048 C 
BRANCH  10  11
HETATM   11  C   UNL     1     -37.380  41.625 -57.290  1.00  0.00    -0.058 A 
HETATM   12  C   UNL     1     -36.966  42.298 -58.444  1.00  0.00     0.010 A 
HETATM   13  C   UNL     1     -37.079  41.692 -59.699  1.00  0.00     0.037 A 
HETATM   14  C   UNL     1     -37.585  40.399 -59.828  1.00  0.00     0.068 A 
HETATM   15  C   UNL     1     -37.983  39.713 -58.684  1.00  0.00     0.037 A 
HETATM   16  C   UNL     1     -37.876  40.320 -57.426  1.00  0.00     0.010 A 
BRANCH  14  17
HETATM   17  O   UNL     1     -37.637  39.929 -61.110  1.00  0.00    -0.356 OA
HETATM   18  C   UNL     1     -36.915  38.734 -61.385  1.00  0.00     0.210 C 
ENDBRANCH  14  17
ENDBRANCH  10  11
ENDBRANCH   9  10
ENDBRANCH   6   9
ENDBRANCH   2   5
BRANCH   1  19
HETATM   19  C   UNL     1     -33.601  39.165 -50.617  1.00  0.00     0.058 A 
HETATM   20  C   UNL     1     -32.404  39.880 -50.597  1.00  0.00     0.047 A 
HETATM   21  C   UNL     1     -31.891  40.630 -51.791  1.00  0.00     0.071 C 
HETATM   22  N   UNL     1     -31.625  39.951 -49.482  1.00  0.00    -0.252 NA
HETATM   23  C   UNL     1     -32.015  39.290 -48.361  1.00  0.00     0.074 A 
HETATM   24  C   UNL     1     -33.192  38.551 -48.318  1.00  0.00     0.034 A 
HETATM   25  C   UNL     1     -33.993  38.488 -49.457  1.00  0.00     0.021 A 
BRANCH  23  26
HETATM   26  C   UNL     1     -31.094  39.449 -47.223  1.00  0.00     0.033 A 
HETATM   27  S   UNL     1     -30.675  38.131 -46.198  1.00  0.00    -0.100 SA
HETATM   28  C   UNL     1     -29.648  39.097 -45.236  1.00  0.00     0.050 A 
HETATM   29  C   UNL     1     -29.607  40.400 -45.674  1.00  0.00     0.008 A 
HETATM   30  C   UNL     1     -30.432  40.598 -46.818  1.00  0.00     0.021 A 
ENDBRANCH  23  26
ENDBRANCH   1  19
TORSDOF 7
ENDMDL
MODEL 9
REMARK VINA RESULT:      -7.1      2.819      3.798
REMARK  7 active torsions:
REMARK  status: ('A' for Active; 'I' for Inactive)
REMARK    1  A    between atoms: C_4  and  C_5 
REMARK    2  A    between atoms: C_12  and  C_13 
REMARK       I    between atoms: C_13  and  N_14 
REMARK    3  A    between atoms: N_14  and  N_15 
REMARK       I    between atoms: N_15  and  C_16 
REMARK    4  A    between atoms: C_16  and  C_17 
REMARK    5  A    between atoms: C_17  and  C_18 
REMARK    6  A    between atoms: C_18  and  C_19 
REMARK    7  A    between atoms: C_22  and  O_23 
ROOT
HETATM    1  C   UNL     1     -42.489  56.783 -51.071  1.00  0.00     0.272 C 
HETATM    2  N   UNL     1     -41.572  57.759 -50.744  1.00  0.00    -0.263 N 
HETATM    3  O   UNL     1     -43.700  56.933 -50.946  1.00  0.00    -0.266 OA
HETATM    4  H   UNL     1     -40.566  57.688 -50.887  1.00  0.00     0.190 HD
ENDROOT
BRANCH   2   5
HETATM    5  N   UNL     1     -42.042  58.966 -50.225  1.00  0.00    -0.267 N 
HETATM    6  C   UNL     1     -42.060  60.058 -51.064  1.00  0.00     0.236 C 
HETATM    7  O   UNL     1     -41.830  59.969 -52.270  1.00  0.00    -0.272 OA
HETATM    8  H   UNL     1     -42.122  59.020 -49.212  1.00  0.00     0.190 HD
BRANCH   6   9
HETATM    9  C   UNL     1     -42.444  61.367 -50.409  1.00  0.00     0.109 C 
BRANCH   9  10
HETATM   10  C   UNL     1     -43.789  61.326 -49.682  1.00  0.00     0.048 C 
BRANCH  10  11
HETATM   11  C   UNL     1     -45.031  61.531 -50.521  1.00  0.00    -0.058 A 
HETATM   12  C   UNL     1     -45.642  62.779 -50.679  1.00  0.00     0.010 A 
HETATM   13  C   UNL     1     -46.776  62.917 -51.487  1.00  0.00     0.037 A 
HETATM   14  C   UNL     1     -47.310  61.822 -52.167  1.00  0.00     0.068 A 
HETATM   15  C   UNL     1     -46.698  60.579 -52.031  1.00  0.00     0.037 A 
HETATM   16  C   UNL     1     -45.565  60.437 -51.219  1.00  0.00     0.010 A 
BRANCH  14  17
HETATM   17  O   UNL     1     -48.414  62.100 -52.922  1.00  0.00    -0.356 OA
HETATM   18  C   UNL     1     -49.303  63.090 -52.419  1.00  0.00     0.210 C 
ENDBRANCH  14  17
ENDBRANCH  10  11
ENDBRANCH   9  10
ENDBRANCH   6   9
ENDBRANCH   2   5
BRANCH   1  19
HETATM   19  C   UNL     1     -41.911  55.525 -51.600  1.00  0.00     0.058 A 
HETATM   20  C   UNL     1     -41.411  54.537 -50.753  1.00  0.00     0.047 A 
HETATM   21  C   UNL     1     -41.418  54.674 -49.258  1.00  0.00     0.071 C 
HETATM   22  N   UNL     1     -40.892  53.372 -51.231  1.00  0.00    -0.252 NA
HETATM   23  C   UNL     1     -40.840  53.175 -52.574  1.00  0.00     0.074 A 
HETATM   24  C   UNL     1     -41.312  54.124 -53.473  1.00  0.00     0.034 A 
HETATM   25  C   UNL     1     -41.853  55.311 -52.981  1.00  0.00     0.021 A 
BRANCH  23  26
HETATM   26  C   UNL     1     -40.264  51.877 -52.965  1.00  0.00     0.033 A 
HETATM   27  S   UNL     1     -39.611  50.784 -51.806  1.00  0.00    -0.100 SA
HETATM   28  C   UNL     1     -39.208  49.631 -52.999  1.00  0.00     0.050 A 
HETATM   29  C   UNL     1     -39.559  50.050 -54.260  1.00  0.00     0.008 A 
HETATM   30  C   UNL     1     -40.172  51.336 -54.238  1.00  0.00     0.021 A 
ENDBRANCH  23  26
ENDBRANCH   1  19
TORSDOF 7
ENDMDL
MODEL 10
REMARK VINA RESULT:      -6.9      6.413      9.897
REMARK  7 active torsions:
REMARK  status: ('A' for Active; 'I' for Inactive)
REMARK    1  A    between atoms: C_4  and  C_5 
REMARK    2  A    between atoms: C_12  and  C_13 
REMARK       I    between atoms: C_13  and  N_14 
REMARK    3  A    between atoms: N_14  and  N_15 
REMARK       I    between atoms: N_15  and  C_16 
REMARK    4  A    between atoms: C_16  and  C_17 
REMARK    5  A    between atoms: C_17  and  C_18 
REMARK    6  A    between atoms: C_18  and  C_19 
REMARK    7  A    between atoms: C_22  and  O_23 
ROOT
HETATM    1  C   UNL     1     -42.485  55.615 -56.010  1.00  0.00     0.272 C 
HETATM    2  N   UNL     1     -41.993  56.818 -56.468  1.00  0.00    -0.263 N 
HETATM    3  O   UNL     1     -43.113  54.835 -56.719  1.00  0.00    -0.266 OA
HETATM    4  H   UNL     1     -41.421  57.461 -55.922  1.00  0.00     0.190 HD
ENDROOT
BRANCH   2   5
HETATM    5  N   UNL     1     -42.240  57.178 -57.792  1.00  0.00    -0.267 N 
HETATM    6  C   UNL     1     -42.081  58.502 -58.135  1.00  0.00     0.236 C 
HETATM    7  O   UNL     1     -41.587  59.329 -57.368  1.00  0.00    -0.272 OA
HETATM    8  H   UNL     1     -42.739  56.495 -58.359  1.00  0.00     0.190 HD
BRANCH   6   9
HETATM    9  C   UNL     1     -42.498  58.857 -59.546  1.00  0.00     0.109 C 
BRANCH   9  10
HETATM   10  C   UNL     1     -43.869  59.527 -59.638  1.00  0.00     0.048 C 
BRANCH  10  11
HETATM   11  C   UNL     1     -45.016  58.680 -60.143  1.00  0.00    -0.058 A 
HETATM   12  C   UNL     1     -45.033  57.286 -60.036  1.00  0.00     0.010 A 
HETATM   13  C   UNL     1     -46.131  56.552 -60.498  1.00  0.00     0.037 A 
HETATM   14  C   UNL     1     -47.239  57.191 -61.054  1.00  0.00     0.068 A 
HETATM   15  C   UNL     1     -47.239  58.581 -61.148  1.00  0.00     0.037 A 
HETATM   16  C   UNL     1     -46.139  59.318 -60.691  1.00  0.00     0.010 A 
BRANCH  14  17
HETATM   17  O   UNL     1     -48.240  56.355 -61.460  1.00  0.00    -0.356 OA
HETATM   18  C   UNL     1     -49.262  56.922 -62.270  1.00  0.00     0.210 C 
ENDBRANCH  14  17
ENDBRANCH  10  11
ENDBRANCH   9  10
ENDBRANCH   6   9
ENDBRANCH   2   5
BRANCH   1  19
HETATM   19  C   UNL     1     -42.194  55.312 -54.589  1.00  0.00     0.058 A 
HETATM   20  C   UNL     1     -41.059  54.595 -54.212  1.00  0.00     0.047 A 
HETATM   21  C   UNL     1     -40.060  54.080 -55.206  1.00  0.00     0.071 C 
HETATM   22  N   UNL     1     -40.778  54.324 -52.906  1.00  0.00    -0.252 NA
HETATM   23  C   UNL     1     -41.639  54.747 -51.944  1.00  0.00     0.074 A 
HETATM   24  C   UNL     1     -42.793  55.457 -52.255  1.00  0.00     0.034 A 
HETATM   25  C   UNL     1     -43.073  55.742 -53.590  1.00  0.00     0.021 A 
BRANCH  23  26
HETATM   26  C   UNL     1     -41.222  54.399 -50.576  1.00  0.00     0.033 A 
HETATM   27  S   UNL     1     -40.433  52.913 -50.214  1.00  0.00    -0.100 SA
HETATM   28  C   UNL     1     -40.303  53.291 -48.554  1.00  0.00     0.050 A 
HETATM   29  C   UNL     1     -40.840  54.522 -48.262  1.00  0.00     0.008 A 
HETATM   30  C   UNL     1     -41.361  55.159 -49.425  1.00  0.00     0.021 A 
ENDBRANCH  23  26
ENDBRANCH   1  19
TORSDOF 7
ENDMDL
