MODEL 1
REMARK VINA RESULT:      -7.4      0.000      0.000
REMARK  5 active torsions:
REMARK  status: ('A' for Active; 'I' for Inactive)
REMARK    1  A    between atoms: C_6  and  C_7 
REMARK    2  A    between atoms: N_10  and  C_12 
REMARK    3  A    between atoms: C_12  and  C_13 
REMARK    4  A    between atoms: C_14  and  N_15 
REMARK    5  A    between atoms: N_15  and  C_16 
ROOT
HETATM    1  C   UNL     1     -41.917  55.191 -54.832  1.00  0.00    -0.006 A 
HETATM    2  C   UNL     1     -41.791  55.381 -53.435  1.00  0.00     0.038 A 
HETATM    3  C   UNL     1     -40.981  54.488 -52.706  1.00  0.00     0.030 A 
HETATM    4  C   UNL     1     -40.240  53.493 -53.341  1.00  0.00     0.002 A 
HETATM    5  C   UNL     1     -40.284  53.377 -54.722  1.00  0.00     0.001 A 
HETATM    6  C   UNL     1     -41.110  54.221 -55.464  1.00  0.00     0.011 A 
ENDROOT
BRANCH   1   7
HETATM    7  C   UNL     1     -42.901  56.012 -55.637  1.00  0.00     0.275 C 
BRANCH   7   8
HETATM    8  N   UNL     1     -42.447  56.424 -57.036  1.00  0.00    -0.067 N 
HETATM    9  C   UNL     1     -43.252  55.775 -58.137  1.00  0.00     0.236 C 
HETATM   10  C   UNL     1     -42.643  56.122 -59.492  1.00  0.00     0.038 C 
HETATM   11  C   UNL     1     -42.422  57.625 -59.728  1.00  0.00     0.040 C 
HETATM   12  C   UNL     1     -41.769  58.287 -58.506  1.00  0.00     0.038 C 
HETATM   13  C   UNL     1     -42.449  57.926 -57.194  1.00  0.00     0.236 C 
HETATM   14  H   UNL     1     -41.475  56.112 -57.128  1.00  0.00     0.280 HD
BRANCH  11  15
HETATM   15  C   UNL     1     -43.665  58.360 -60.155  1.00  0.00     0.035 A 
HETATM   16  N   UNL     1     -43.627  59.525 -60.905  1.00  0.00    -0.278 N 
HETATM   17  C   UNL     1     -42.473  60.196 -61.463  1.00  0.00     0.179 C 
HETATM   18  N   UNL     1     -44.840  60.059 -61.111  1.00  0.00    -0.185 NA
HETATM   19  C   UNL     1     -45.686  59.170 -60.605  1.00  0.00     0.141 A 
HETATM   20  C   UNL     1     -45.015  58.096 -59.996  1.00  0.00     0.048 A 
ENDBRANCH  11  15
ENDBRANCH   7   8
ENDBRANCH   1   7
BRANCH   2  21
HETATM   21  N   UNL     1     -42.433  56.463 -52.787  1.00  0.00    -0.380 N 
HETATM   22  C   UNL     1     -43.593  56.060 -51.984  1.00  0.00     0.150 C 
BRANCH  21  23
HETATM   23  C   UNL     1     -41.517  57.554 -52.330  1.00  0.00     0.087 C 
HETATM   24  C   UNL     1     -42.093  58.529 -51.293  1.00  0.00     0.053 C 
HETATM   25  C   UNL     1     -42.928  59.640 -51.896  1.00  0.00     0.236 C 
HETATM   26  N   UNL     1     -42.103  60.386 -52.911  1.00  0.00    -0.075 N 
HETATM   27  H   UNL     1     -41.273  60.765 -52.431  1.00  0.00     0.279 HD
HETATM   28  C   UNL     1     -42.839  61.598 -53.436  1.00  0.00     0.269 C 
HETATM   29  C   UNL     1     -41.634  59.495 -54.028  1.00  0.00     0.236 C 
HETATM   30  C   UNL     1     -40.837  58.316 -53.479  1.00  0.00     0.053 C 
ENDBRANCH  21  23
ENDBRANCH   2  21
TORSDOF 5
ENDMDL
MODEL 2
REMARK VINA RESULT:      -7.3      1.860      2.252
REMARK  5 active torsions:
REMARK  status: ('A' for Active; 'I' for Inactive)
REMARK    1  A    between atoms: C_6  and  C_7 
REMARK    2  A    between atoms: N_10  and  C_12 
REMARK    3  A    between atoms: C_12  and  C_13 
REMARK    4  A    between atoms: C_14  and  N_15 
REMARK    5  A    between atoms: N_15  and  C_16 
ROOT
HETATM    1  C   UNL     1     -41.478  55.672 -54.624  1.00  0.00    -0.006 A 
HETATM    2  C   UNL     1     -42.422  55.343 -53.622  1.00  0.00     0.038 A 
HETATM    3  C   UNL     1     -42.365  54.060 -53.041  1.00  0.00     0.030 A 
HETATM    4  C   UNL     1     -41.354  53.158 -53.365  1.00  0.00     0.002 A 
HETATM    5  C   UNL     1     -40.369  53.523 -54.270  1.00  0.00     0.001 A 
HETATM    6  C   UNL     1     -40.424  54.770 -54.890  1.00  0.00     0.011 A 
ENDROOT
BRANCH   1   7
HETATM    7  C   UNL     1     -41.593  56.967 -55.399  1.00  0.00     0.275 C 
BRANCH   7   8
HETATM    8  N   UNL     1     -41.928  56.835 -56.883  1.00  0.00    -0.067 N 
HETATM    9  C   UNL     1     -42.899  55.716 -57.176  1.00  0.00     0.236 C 
HETATM   10  C   UNL     1     -43.064  55.559 -58.684  1.00  0.00     0.038 C 
HETATM   11  C   UNL     1     -43.417  56.858 -59.427  1.00  0.00     0.040 C 
HETATM   12  C   UNL     1     -42.527  58.021 -58.963  1.00  0.00     0.038 C 
HETATM   13  C   UNL     1     -42.438  58.139 -57.449  1.00  0.00     0.236 C 
HETATM   14  H   UNL     1     -41.046  56.623 -57.360  1.00  0.00     0.280 HD
BRANCH  11  15
HETATM   15  C   UNL     1     -44.878  57.219 -59.356  1.00  0.00     0.035 A 
HETATM   16  N   UNL     1     -45.842  56.597 -60.132  1.00  0.00    -0.278 N 
HETATM   17  C   UNL     1     -45.678  55.496 -61.056  1.00  0.00     0.179 C 
HETATM   18  N   UNL     1     -47.067  57.120 -59.971  1.00  0.00    -0.185 NA
HETATM   19  C   UNL     1     -46.925  58.002 -58.988  1.00  0.00     0.141 A 
HETATM   20  C   UNL     1     -45.588  58.109 -58.569  1.00  0.00     0.048 A 
ENDBRANCH  11  15
ENDBRANCH   7   8
ENDBRANCH   1   7
BRANCH   2  21
HETATM   21  N   UNL     1     -43.379  56.289 -53.185  1.00  0.00    -0.380 N 
HETATM   22  C   UNL     1     -44.620  56.269 -53.967  1.00  0.00     0.150 C 
BRANCH  21  23
HETATM   23  C   UNL     1     -43.398  56.527 -51.709  1.00  0.00     0.087 C 
HETATM   24  C   UNL     1     -44.517  57.439 -51.186  1.00  0.00     0.053 C 
HETATM   25  C   UNL     1     -44.208  58.918 -51.306  1.00  0.00     0.236 C 
HETATM   26  N   UNL     1     -42.917  59.214 -50.588  1.00  0.00    -0.075 N 
HETATM   27  H   UNL     1     -43.029  58.936 -49.602  1.00  0.00     0.279 HD
HETATM   28  C   UNL     1     -42.637  60.699 -50.549  1.00  0.00     0.269 C 
HETATM   29  C   UNL     1     -41.759  58.445 -51.163  1.00  0.00     0.236 C 
HETATM   30  C   UNL     1     -42.036  56.947 -51.130  1.00  0.00     0.053 C 
ENDBRANCH  21  23
ENDBRANCH   2  21
TORSDOF 5
ENDMDL
MODEL 3
REMARK VINA RESULT:      -7.2      2.583      7.055
REMARK  5 active torsions:
REMARK  status: ('A' for Active; 'I' for Inactive)
REMARK    1  A    between atoms: C_6  and  C_7 
REMARK    2  A    between atoms: N_10  and  C_12 
REMARK    3  A    between atoms: C_12  and  C_13 
REMARK    4  A    between atoms: C_14  and  N_15 
REMARK    5  A    between atoms: N_15  and  C_16 
ROOT
HETATM    1  C   UNL     1     -42.934  56.164 -57.904  1.00  0.00    -0.006 A 
HETATM    2  C   UNL     1     -42.788  57.523 -57.537  1.00  0.00     0.038 A 
HETATM    3  C   UNL     1     -42.279  58.426 -58.493  1.00  0.00     0.030 A 
HETATM    4  C   UNL     1     -42.009  58.026 -59.801  1.00  0.00     0.002 A 
HETATM    5  C   UNL     1     -42.253  56.716 -60.184  1.00  0.00     0.001 A 
HETATM    6  C   UNL     1     -42.717  55.793 -59.249  1.00  0.00     0.011 A 
ENDROOT
BRANCH   1   7
HETATM    7  C   UNL     1     -43.315  55.123 -56.873  1.00  0.00     0.275 C 
BRANCH   7   8
HETATM    8  N   UNL     1     -42.537  55.162 -55.559  1.00  0.00    -0.067 N 
HETATM    9  C   UNL     1     -43.137  54.284 -54.487  1.00  0.00     0.236 C 
HETATM   10  C   UNL     1     -42.390  54.492 -53.173  1.00  0.00     0.038 C 
HETATM   11  C   UNL     1     -40.864  54.343 -53.275  1.00  0.00     0.040 C 
HETATM   12  C   UNL     1     -40.312  55.101 -54.491  1.00  0.00     0.038 C 
HETATM   13  C   UNL     1     -41.082  54.817 -55.772  1.00  0.00     0.236 C 
HETATM   14  H   UNL     1     -42.572  56.132 -55.231  1.00  0.00     0.280 HD
BRANCH  11  15
HETATM   15  C   UNL     1     -40.392  52.912 -53.256  1.00  0.00     0.035 A 
HETATM   16  N   UNL     1     -40.067  52.246 -52.086  1.00  0.00    -0.278 N 
HETATM   17  C   UNL     1     -40.173  52.719 -50.723  1.00  0.00     0.179 C 
HETATM   18  N   UNL     1     -39.597  51.007 -52.298  1.00  0.00    -0.185 NA
HETATM   19  C   UNL     1     -39.739  50.816 -53.605  1.00  0.00     0.141 A 
HETATM   20  C   UNL     1     -40.225  51.965 -54.252  1.00  0.00     0.048 A 
ENDBRANCH  11  15
ENDBRANCH   7   8
ENDBRANCH   1   7
BRANCH   2  21
HETATM   21  N   UNL     1     -43.176  57.977 -56.255  1.00  0.00    -0.380 N 
HETATM   22  C   UNL     1     -42.235  58.934 -55.663  1.00  0.00     0.150 C 
BRANCH  21  23
HETATM   23  C   UNL     1     -44.652  58.122 -56.060  1.00  0.00     0.087 C 
HETATM   24  C   UNL     1     -45.262  59.463 -56.497  1.00  0.00     0.053 C 
HETATM   25  C   UNL     1     -45.133  60.560 -55.460  1.00  0.00     0.236 C 
HETATM   26  N   UNL     1     -45.757  60.099 -54.169  1.00  0.00    -0.075 N 
HETATM   27  H   UNL     1     -46.747  59.878 -54.355  1.00  0.00     0.279 HD
HETATM   28  C   UNL     1     -45.789  61.210 -53.144  1.00  0.00     0.269 C 
HETATM   29  C   UNL     1     -45.094  58.862 -53.627  1.00  0.00     0.236 C 
HETATM   30  C   UNL     1     -45.134  57.735 -54.653  1.00  0.00     0.053 C 
ENDBRANCH  21  23
ENDBRANCH   2  21
TORSDOF 5
ENDMDL
MODEL 4
REMARK VINA RESULT:      -6.9      2.614      7.652
REMARK  5 active torsions:
REMARK  status: ('A' for Active; 'I' for Inactive)
REMARK    1  A    between atoms: C_6  and  C_7 
REMARK    2  A    between atoms: N_10  and  C_12 
REMARK    3  A    between atoms: C_12  and  C_13 
REMARK    4  A    between atoms: C_14  and  N_15 
REMARK    5  A    between atoms: N_15  and  C_16 
ROOT
HETATM    1  C   UNL     1     -44.298  57.014 -54.078  1.00  0.00    -0.006 A 
HETATM    2  C   UNL     1     -44.622  57.903 -55.130  1.00  0.00     0.038 A 
HETATM    3  C   UNL     1     -45.166  59.162 -54.804  1.00  0.00     0.030 A 
HETATM    4  C   UNL     1     -45.300  59.575 -53.480  1.00  0.00     0.002 A 
HETATM    5  C   UNL     1     -44.883  58.743 -52.453  1.00  0.00     0.001 A 
HETATM    6  C   UNL     1     -44.380  57.476 -52.746  1.00  0.00     0.011 A 
ENDROOT
BRANCH   1   7
HETATM    7  C   UNL     1     -43.870  55.592 -54.371  1.00  0.00     0.275 C 
BRANCH   7   8
HETATM    8  N   UNL     1     -42.518  55.166 -53.803  1.00  0.00    -0.067 N 
HETATM    9  C   UNL     1     -42.636  54.170 -52.674  1.00  0.00     0.236 C 
HETATM   10  C   UNL     1     -41.259  53.911 -52.071  1.00  0.00     0.038 C 
HETATM   11  C   UNL     1     -40.176  53.524 -53.091  1.00  0.00     0.040 C 
HETATM   12  C   UNL     1     -40.212  54.450 -54.316  1.00  0.00     0.038 C 
HETATM   13  C   UNL     1     -41.611  54.633 -54.886  1.00  0.00     0.236 C 
HETATM   14  H   UNL     1     -42.080  56.015 -53.433  1.00  0.00     0.280 HD
BRANCH  11  15
HETATM   15  C   UNL     1     -40.215  52.073 -53.496  1.00  0.00     0.035 A 
HETATM   16  N   UNL     1     -39.796  51.051 -52.660  1.00  0.00    -0.278 N 
HETATM   17  C   UNL     1     -39.336  51.141 -51.291  1.00  0.00     0.179 C 
HETATM   18  N   UNL     1     -39.842  49.842 -53.242  1.00  0.00    -0.185 NA
HETATM   19  C   UNL     1     -40.416  50.061 -54.419  1.00  0.00     0.141 A 
HETATM   20  C   UNL     1     -40.667  51.427 -54.633  1.00  0.00     0.048 A 
ENDBRANCH  11  15
ENDBRANCH   7   8
ENDBRANCH   1   7
BRANCH   2  21
HETATM   21  N   UNL     1     -44.375  57.554 -56.479  1.00  0.00    -0.380 N 
HETATM   22  C   UNL     1     -45.396  58.050 -57.409  1.00  0.00     0.150 C 
BRANCH  21  23
HETATM   23  C   UNL     1     -42.930  57.520 -56.864  1.00  0.00     0.087 C 
HETATM   24  C   UNL     1     -42.225  58.881 -56.964  1.00  0.00     0.053 C 
HETATM   25  C   UNL     1     -42.443  59.587 -58.288  1.00  0.00     0.236 C 
HETATM   26  N   UNL     1     -41.998  58.685 -59.409  1.00  0.00    -0.075 N 
HETATM   27  H   UNL     1     -41.001  58.465 -59.265  1.00  0.00     0.279 HD
HETATM   28  C   UNL     1     -42.054  59.396 -60.743  1.00  0.00     0.269 C 
HETATM   29  C   UNL     1     -42.764  57.391 -59.437  1.00  0.00     0.236 C 
HETATM   30  C   UNL     1     -42.638  56.660 -58.105  1.00  0.00     0.053 C 
ENDBRANCH  21  23
ENDBRANCH   2  21
TORSDOF 5
ENDMDL
MODEL 5
REMARK VINA RESULT:      -6.9      3.967      6.881
REMARK  5 active torsions:
REMARK  status: ('A' for Active; 'I' for Inactive)
REMARK    1  A    between atoms: C_6  and  C_7 
REMARK    2  A    between atoms: N_10  and  C_12 
REMARK    3  A    between atoms: C_12  and  C_13 
REMARK    4  A    between atoms: C_14  and  N_15 
REMARK    5  A    between atoms: N_15  and  C_16 
ROOT
HETATM    1  C   UNL     1     -41.487  58.508 -53.054  1.00  0.00    -0.006 A 
HETATM    2  C   UNL     1     -42.421  58.835 -52.042  1.00  0.00     0.038 A 
HETATM    3  C   UNL     1     -41.936  59.155 -50.757  1.00  0.00     0.030 A 
HETATM    4  C   UNL     1     -40.570  59.244 -50.497  1.00  0.00     0.002 A 
HETATM    5  C   UNL     1     -39.658  59.026 -51.518  1.00  0.00     0.001 A 
HETATM    6  C   UNL     1     -40.110  58.668 -52.788  1.00  0.00     0.011 A 
ENDROOT
BRANCH   1   7
HETATM    7  C   UNL     1     -41.954  57.996 -54.399  1.00  0.00     0.275 C 
BRANCH   7   8
HETATM    8  N   UNL     1     -41.875  56.485 -54.608  1.00  0.00    -0.067 N 
HETATM    9  C   UNL     1     -40.458  55.963 -54.638  1.00  0.00     0.236 C 
HETATM   10  C   UNL     1     -40.464  54.480 -54.994  1.00  0.00     0.038 C 
HETATM   11  C   UNL     1     -41.394  53.617 -54.125  1.00  0.00     0.040 C 
HETATM   12  C   UNL     1     -42.771  54.277 -53.963  1.00  0.00     0.038 C 
HETATM   13  C   UNL     1     -42.689  55.745 -53.572  1.00  0.00     0.236 C 
HETATM   14  H   UNL     1     -42.303  56.296 -55.519  1.00  0.00     0.280 HD
BRANCH  11  15
HETATM   15  C   UNL     1     -40.802  53.242 -52.792  1.00  0.00     0.035 A 
HETATM   16  N   UNL     1     -40.034  52.105 -52.606  1.00  0.00    -0.278 N 
HETATM   17  C   UNL     1     -39.603  51.140 -53.594  1.00  0.00     0.179 C 
HETATM   18  N   UNL     1     -39.670  51.917 -51.328  1.00  0.00    -0.185 NA
HETATM   19  C   UNL     1     -40.092  53.007 -50.698  1.00  0.00     0.141 A 
HETATM   20  C   UNL     1     -40.804  53.864 -51.555  1.00  0.00     0.048 A 
ENDBRANCH  11  15
ENDBRANCH   7   8
ENDBRANCH   1   7
BRANCH   2  21
HETATM   21  N   UNL     1     -43.808  58.876 -52.317  1.00  0.00    -0.380 N 
HETATM   22  C   UNL     1     -44.625  58.178 -51.318  1.00  0.00     0.150 C 
BRANCH  21  23
HETATM   23  C   UNL     1     -44.284  60.141 -52.958  1.00  0.00     0.087 C 
HETATM   24  C   UNL     1     -43.740  61.447 -52.360  1.00  0.00     0.053 C 
HETATM   25  C   UNL     1     -44.494  61.919 -51.133  1.00  0.00     0.236 C 
HETATM   26  N   UNL     1     -45.953  62.071 -51.477  1.00  0.00    -0.075 N 
HETATM   27  H   UNL     1     -46.030  62.753 -52.246  1.00  0.00     0.279 HD
HETATM   28  C   UNL     1     -46.728  62.682 -50.331  1.00  0.00     0.269 C 
HETATM   29  C   UNL     1     -46.567  60.776 -51.934  1.00  0.00     0.236 C 
HETATM   30  C   UNL     1     -45.810  60.214 -53.132  1.00  0.00     0.053 C 
ENDBRANCH  21  23
ENDBRANCH   2  21
TORSDOF 5
ENDMDL
MODEL 6
REMARK VINA RESULT:      -6.9      2.160      7.666
REMARK  5 active torsions:
REMARK  status: ('A' for Active; 'I' for Inactive)
REMARK    1  A    between atoms: C_6  and  C_7 
REMARK    2  A    between atoms: N_10  and  C_12 
REMARK    3  A    between atoms: C_12  and  C_13 
REMARK    4  A    between atoms: C_14  and  N_15 
REMARK    5  A    between atoms: N_15  and  C_16 
ROOT
HETATM    1  C   UNL     1     -43.602  58.584 -52.745  1.00  0.00    -0.006 A 
HETATM    2  C   UNL     1     -43.511  59.130 -54.048  1.00  0.00     0.038 A 
HETATM    3  C   UNL     1     -43.175  60.492 -54.184  1.00  0.00     0.030 A 
HETATM    4  C   UNL     1     -42.845  61.274 -53.078  1.00  0.00     0.002 A 
HETATM    5  C   UNL     1     -42.834  60.708 -51.813  1.00  0.00     0.001 A 
HETATM    6  C   UNL     1     -43.202  59.374 -51.646  1.00  0.00     0.011 A 
ENDROOT
BRANCH   1   7
HETATM    7  C   UNL     1     -44.121  57.178 -52.532  1.00  0.00     0.275 C 
BRANCH   7   8
HETATM    8  N   UNL     1     -43.180  56.218 -51.806  1.00  0.00    -0.067 N 
HETATM    9  C   UNL     1     -43.616  54.775 -51.900  1.00  0.00     0.236 C 
HETATM   10  C   UNL     1     -42.710  53.907 -51.033  1.00  0.00     0.038 C 
HETATM   11  C   UNL     1     -41.207  54.089 -51.296  1.00  0.00     0.040 C 
HETATM   12  C   UNL     1     -40.835  55.577 -51.381  1.00  0.00     0.038 C 
HETATM   13  C   UNL     1     -41.758  56.373 -52.291  1.00  0.00     0.236 C 
HETATM   14  H   UNL     1     -43.194  56.491 -50.819  1.00  0.00     0.280 HD
BRANCH  11  15
HETATM   15  C   UNL     1     -40.705  53.326 -52.494  1.00  0.00     0.035 A 
HETATM   16  N   UNL     1     -40.016  52.129 -52.385  1.00  0.00    -0.278 N 
HETATM   17  C   UNL     1     -39.717  51.369 -51.191  1.00  0.00     0.179 C 
HETATM   18  N   UNL     1     -39.592  51.655 -53.567  1.00  0.00    -0.185 NA
HETATM   19  C   UNL     1     -40.120  52.480 -54.465  1.00  0.00     0.141 A 
HETATM   20  C   UNL     1     -40.818  53.538 -53.857  1.00  0.00     0.048 A 
ENDBRANCH  11  15
ENDBRANCH   7   8
ENDBRANCH   1   7
BRANCH   2  21
HETATM   21  N   UNL     1     -43.716  58.323 -55.192  1.00  0.00    -0.380 N 
HETATM   22  C   UNL     1     -44.938  58.656 -55.933  1.00  0.00     0.150 C 
BRANCH  21  23
HETATM   23  C   UNL     1     -42.466  57.914 -55.904  1.00  0.00     0.087 C 
HETATM   24  C   UNL     1     -42.237  58.549 -57.284  1.00  0.00     0.053 C 
HETATM   25  C   UNL     1     -42.971  57.848 -58.409  1.00  0.00     0.236 C 
HETATM   26  N   UNL     1     -42.574  56.396 -58.432  1.00  0.00    -0.075 N 
HETATM   27  H   UNL     1     -41.553  56.346 -58.566  1.00  0.00     0.279 HD
HETATM   28  C   UNL     1     -43.163  55.681 -59.627  1.00  0.00     0.269 C 
HETATM   29  C   UNL     1     -42.911  55.694 -57.144  1.00  0.00     0.236 C 
HETATM   30  C   UNL     1     -42.252  56.393 -55.960  1.00  0.00     0.053 C 
ENDBRANCH  21  23
ENDBRANCH   2  21
TORSDOF 5
ENDMDL
MODEL 7
REMARK VINA RESULT:      -6.9      1.632      2.248
REMARK  5 active torsions:
REMARK  status: ('A' for Active; 'I' for Inactive)
REMARK    1  A    between atoms: C_6  and  C_7 
REMARK    2  A    between atoms: N_10  and  C_12 
REMARK    3  A    between atoms: C_12  and  C_13 
REMARK    4  A    between atoms: C_14  and  N_15 
REMARK    5  A    between atoms: N_15  and  C_16 
ROOT
HETATM    1  C   UNL     1     -42.560  54.849 -53.790  1.00  0.00    -0.006 A 
HETATM    2  C   UNL     1     -41.806  55.047 -52.608  1.00  0.00     0.038 A 
HETATM    3  C   UNL     1     -40.781  54.129 -52.304  1.00  0.00     0.030 A 
HETATM    4  C   UNL     1     -40.442  53.099 -53.180  1.00  0.00     0.002 A 
HETATM    5  C   UNL     1     -41.114  52.972 -54.386  1.00  0.00     0.001 A 
HETATM    6  C   UNL     1     -42.159  53.841 -54.694  1.00  0.00     0.011 A 
ENDROOT
BRANCH   1   7
HETATM    7  C   UNL     1     -43.777  55.701 -54.081  1.00  0.00     0.275 C 
BRANCH   7   8
HETATM    8  N   UNL     1     -43.926  56.189 -55.521  1.00  0.00    -0.067 N 
HETATM    9  C   UNL     1     -44.741  57.455 -55.637  1.00  0.00     0.236 C 
HETATM   10  C   UNL     1     -44.963  57.790 -57.109  1.00  0.00     0.038 C 
HETATM   11  C   UNL     1     -43.682  57.831 -57.956  1.00  0.00     0.040 C 
HETATM   12  C   UNL     1     -42.789  56.615 -57.669  1.00  0.00     0.038 C 
HETATM   13  C   UNL     1     -42.580  56.363 -56.183  1.00  0.00     0.236 C 
HETATM   14  H   UNL     1     -44.419  55.447 -56.028  1.00  0.00     0.280 HD
BRANCH  11  15
HETATM   15  C   UNL     1     -42.914  59.121 -57.832  1.00  0.00     0.035 A 
HETATM   16  N   UNL     1     -42.178  59.659 -58.875  1.00  0.00    -0.278 N 
HETATM   17  C   UNL     1     -42.058  59.175 -60.233  1.00  0.00     0.179 C 
HETATM   18  N   UNL     1     -41.510  60.770 -58.531  1.00  0.00    -0.185 NA
HETATM   19  C   UNL     1     -41.914  61.032 -57.293  1.00  0.00     0.141 A 
HETATM   20  C   UNL     1     -42.783  60.041 -56.806  1.00  0.00     0.048 A 
ENDBRANCH  11  15
ENDBRANCH   7   8
ENDBRANCH   1   7
BRANCH   2  21
HETATM   21  N   UNL     1     -42.048  56.159 -51.768  1.00  0.00    -0.380 N 
HETATM   22  C   UNL     1     -42.671  55.802 -50.489  1.00  0.00     0.150 C 
BRANCH  21  23
HETATM   23  C   UNL     1     -41.023  57.245 -51.854  1.00  0.00     0.087 C 
HETATM   24  C   UNL     1     -41.168  58.391 -50.842  1.00  0.00     0.053 C 
HETATM   25  C   UNL     1     -42.163  59.455 -51.260  1.00  0.00     0.236 C 
HETATM   26  N   UNL     1     -41.772  59.998 -52.609  1.00  0.00    -0.075 N 
HETATM   27  H   UNL     1     -40.821  60.388 -52.532  1.00  0.00     0.279 HD
HETATM   28  C   UNL     1     -42.646  61.166 -53.008  1.00  0.00     0.269 C 
HETATM   29  C   UNL     1     -41.756  58.929 -53.668  1.00  0.00     0.236 C 
HETATM   30  C   UNL     1     -40.817  57.794 -53.275  1.00  0.00     0.053 C 
ENDBRANCH  21  23
ENDBRANCH   2  21
TORSDOF 5
ENDMDL
MODEL 8
REMARK VINA RESULT:      -6.9      2.319      5.019
REMARK  5 active torsions:
REMARK  status: ('A' for Active; 'I' for Inactive)
REMARK    1  A    between atoms: C_6  and  C_7 
REMARK    2  A    between atoms: N_10  and  C_12 
REMARK    3  A    between atoms: C_12  and  C_13 
REMARK    4  A    between atoms: C_14  and  N_15 
REMARK    5  A    between atoms: N_15  and  C_16 
ROOT
HETATM    1  C   UNL     1     -44.091  58.904 -53.478  1.00  0.00    -0.006 A 
HETATM    2  C   UNL     1     -43.739  57.834 -52.622  1.00  0.00     0.038 A 
HETATM    3  C   UNL     1     -44.362  57.750 -51.360  1.00  0.00     0.030 A 
HETATM    4  C   UNL     1     -45.370  58.636 -50.986  1.00  0.00     0.002 A 
HETATM    5  C   UNL     1     -45.785  59.620 -51.870  1.00  0.00     0.001 A 
HETATM    6  C   UNL     1     -45.158  59.751 -53.108  1.00  0.00     0.011 A 
ENDROOT
BRANCH   1   7
HETATM    7  C   UNL     1     -43.337  59.140 -54.770  1.00  0.00     0.275 C 
BRANCH   7   8
HETATM    8  N   UNL     1     -44.174  59.128 -56.048  1.00  0.00    -0.067 N 
HETATM    9  C   UNL     1     -43.337  59.127 -57.305  1.00  0.00     0.236 C 
HETATM   10  C   UNL     1     -44.242  59.263 -58.525  1.00  0.00     0.038 C 
HETATM   11  C   UNL     1     -45.396  58.249 -58.581  1.00  0.00     0.040 C 
HETATM   12  C   UNL     1     -46.106  58.141 -57.224  1.00  0.00     0.038 C 
HETATM   13  C   UNL     1     -45.144  57.971 -56.057  1.00  0.00     0.236 C 
HETATM   14  H   UNL     1     -44.730  59.989 -56.037  1.00  0.00     0.280 HD
BRANCH  11  15
HETATM   15  C   UNL     1     -44.987  56.894 -59.099  1.00  0.00     0.035 A 
HETATM   16  N   UNL     1     -45.821  56.105 -59.873  1.00  0.00    -0.278 N 
HETATM   17  C   UNL     1     -47.140  56.419 -60.380  1.00  0.00     0.179 C 
HETATM   18  N   UNL     1     -45.293  54.906 -60.164  1.00  0.00    -0.185 NA
HETATM   19  C   UNL     1     -44.055  54.963 -59.686  1.00  0.00     0.141 A 
HETATM   20  C   UNL     1     -43.810  56.171 -59.012  1.00  0.00     0.048 A 
ENDBRANCH  11  15
ENDBRANCH   7   8
ENDBRANCH   1   7
BRANCH   2  21
HETATM   21  N   UNL     1     -42.811  56.848 -53.033  1.00  0.00    -0.380 N 
HETATM   22  C   UNL     1     -41.521  56.933 -52.339  1.00  0.00     0.150 C 
BRANCH  21  23
HETATM   23  C   UNL     1     -43.414  55.526 -53.385  1.00  0.00     0.087 C 
HETATM   24  C   UNL     1     -43.131  54.373 -52.410  1.00  0.00     0.053 C 
HETATM   25  C   UNL     1     -41.795  53.695 -52.637  1.00  0.00     0.236 C 
HETATM   26  N   UNL     1     -41.723  53.204 -54.059  1.00  0.00    -0.075 N 
HETATM   27  H   UNL     1     -42.503  52.548 -54.210  1.00  0.00     0.279 HD
HETATM   28  C   UNL     1     -40.471  52.389 -54.298  1.00  0.00     0.269 C 
HETATM   29  C   UNL     1     -41.853  54.325 -55.054  1.00  0.00     0.236 C 
HETATM   30  C   UNL     1     -43.154  55.091 -54.836  1.00  0.00     0.053 C 
ENDBRANCH  21  23
ENDBRANCH   2  21
TORSDOF 5
ENDMDL
MODEL 9
REMARK VINA RESULT:      -6.8      2.531      6.691
REMARK  5 active torsions:
REMARK  status: ('A' for Active; 'I' for Inactive)
REMARK    1  A    between atoms: C_6  and  C_7 
REMARK    2  A    between atoms: N_10  and  C_12 
REMARK    3  A    between atoms: C_12  and  C_13 
REMARK    4  A    between atoms: C_14  and  N_15 
REMARK    5  A    between atoms: N_15  and  C_16 
ROOT
HETATM    1  C   UNL     1     -41.416  56.121 -51.583  1.00  0.00    -0.006 A 
HETATM    2  C   UNL     1     -41.406  55.058 -52.517  1.00  0.00     0.038 A 
HETATM    3  C   UNL     1     -41.302  53.739 -52.032  1.00  0.00     0.030 A 
HETATM    4  C   UNL     1     -41.301  53.463 -50.666  1.00  0.00     0.002 A 
HETATM    5  C   UNL     1     -41.416  54.501 -49.754  1.00  0.00     0.001 A 
HETATM    6  C   UNL     1     -41.480  55.818 -50.206  1.00  0.00     0.011 A 
ENDROOT
BRANCH   1   7
HETATM    7  C   UNL     1     -41.357  57.560 -52.050  1.00  0.00     0.275 C 
BRANCH   7   8
HETATM    8  N   UNL     1     -42.208  58.556 -51.265  1.00  0.00    -0.067 N 
HETATM    9  C   UNL     1     -41.540  59.900 -51.091  1.00  0.00     0.236 C 
HETATM   10  C   UNL     1     -42.387  60.781 -50.178  1.00  0.00     0.038 C 
HETATM   11  C   UNL     1     -43.862  60.902 -50.595  1.00  0.00     0.040 C 
HETATM   12  C   UNL     1     -44.454  59.529 -50.945  1.00  0.00     0.038 C 
HETATM   13  C   UNL     1     -43.574  58.721 -51.888  1.00  0.00     0.236 C 
HETATM   14  H   UNL     1     -42.347  58.149 -50.335  1.00  0.00     0.280 HD
BRANCH  11  15
HETATM   15  C   UNL     1     -44.100  61.903 -51.695  1.00  0.00     0.035 A 
HETATM   16  N   UNL     1     -45.261  62.652 -51.788  1.00  0.00    -0.278 N 
HETATM   17  C   UNL     1     -46.382  62.690 -50.874  1.00  0.00     0.179 C 
HETATM   18  N   UNL     1     -45.303  63.426 -52.884  1.00  0.00    -0.185 NA
HETATM   19  C   UNL     1     -44.107  63.278 -53.441  1.00  0.00     0.141 A 
HETATM   20  C   UNL     1     -43.319  62.343 -52.750  1.00  0.00     0.048 A 
ENDBRANCH  11  15
ENDBRANCH   7   8
ENDBRANCH   1   7
BRANCH   2  21
HETATM   21  N   UNL     1     -41.536  55.307 -53.904  1.00  0.00    -0.380 N 
HETATM   22  C   UNL     1     -40.301  55.068 -54.659  1.00  0.00     0.150 C 
BRANCH  21  23
HETATM   23  C   UNL     1     -42.873  54.967 -54.481  1.00  0.00     0.087 C 
HETATM   24  C   UNL     1     -42.882  54.524 -55.952  1.00  0.00     0.053 C 
HETATM   25  C   UNL     1     -42.876  55.676 -56.937  1.00  0.00     0.236 C 
HETATM   26  N   UNL     1     -44.052  56.574 -56.656  1.00  0.00    -0.075 N 
HETATM   27  H   UNL     1     -44.912  56.012 -56.746  1.00  0.00     0.279 HD
HETATM   28  C   UNL     1     -44.180  57.658 -57.703  1.00  0.00     0.269 C 
HETATM   29  C   UNL     1     -44.010  57.147 -55.266  1.00  0.00     0.236 C 
HETATM   30  C   UNL     1     -43.949  56.035 -54.225  1.00  0.00     0.053 C 
ENDBRANCH  21  23
ENDBRANCH   2  21
TORSDOF 5
ENDMDL
MODEL 10
REMARK VINA RESULT:      -6.7      2.168      4.994
REMARK  5 active torsions:
REMARK  status: ('A' for Active; 'I' for Inactive)
REMARK    1  A    between atoms: C_6  and  C_7 
REMARK    2  A    between atoms: N_10  and  C_12 
REMARK    3  A    between atoms: C_12  and  C_13 
REMARK    4  A    between atoms: C_14  and  N_15 
REMARK    5  A    between atoms: N_15  and  C_16 
ROOT
HETATM    1  C   UNL     1     -42.191  60.109 -52.751  1.00  0.00    -0.006 A 
HETATM    2  C   UNL     1     -41.804  59.701 -51.452  1.00  0.00     0.038 A 
HETATM    3  C   UNL     1     -42.227  60.472 -50.351  1.00  0.00     0.030 A 
HETATM    4  C   UNL     1     -43.084  61.560 -50.511  1.00  0.00     0.002 A 
HETATM    5  C   UNL     1     -43.545  61.893 -51.775  1.00  0.00     0.001 A 
HETATM    6  C   UNL     1     -43.110  61.173 -52.886  1.00  0.00     0.011 A 
ENDROOT
BRANCH   1   7
HETATM    7  C   UNL     1     -41.630  59.420 -53.977  1.00  0.00     0.275 C 
BRANCH   7   8
HETATM    8  N   UNL     1     -42.639  58.681 -54.853  1.00  0.00    -0.067 N 
HETATM    9  C   UNL     1     -43.150  59.515 -56.003  1.00  0.00     0.236 C 
HETATM   10  C   UNL     1     -44.254  58.759 -56.736  1.00  0.00     0.038 C 
HETATM   11  C   UNL     1     -43.877  57.331 -57.162  1.00  0.00     0.040 C 
HETATM   12  C   UNL     1     -43.188  56.575 -56.017  1.00  0.00     0.038 C 
HETATM   13  C   UNL     1     -42.074  57.374 -55.357  1.00  0.00     0.236 C 
HETATM   14  H   UNL     1     -43.434  58.453 -54.248  1.00  0.00     0.280 HD
BRANCH  11  15
HETATM   15  C   UNL     1     -43.065  57.271 -58.430  1.00  0.00     0.035 A 
HETATM   16  N   UNL     1     -43.130  56.205 -59.312  1.00  0.00    -0.278 N 
HETATM   17  C   UNL     1     -43.985  55.039 -59.251  1.00  0.00     0.179 C 
HETATM   18  N   UNL     1     -42.271  56.316 -60.337  1.00  0.00    -0.185 NA
HETATM   19  C   UNL     1     -41.734  57.522 -60.193  1.00  0.00     0.141 A 
HETATM   20  C   UNL     1     -42.187  58.160 -59.026  1.00  0.00     0.048 A 
ENDBRANCH  11  15
ENDBRANCH   7   8
ENDBRANCH   1   7
BRANCH   2  21
HETATM   21  N   UNL     1     -41.041  58.526 -51.256  1.00  0.00    -0.380 N 
HETATM   22  C   UNL     1     -39.624  58.788 -50.977  1.00  0.00     0.150 C 
BRANCH  21  23
HETATM   23  C   UNL     1     -41.769  57.410 -50.579  1.00  0.00     0.087 C 
HETATM   24  C   UNL     1     -40.985  56.101 -50.399  1.00  0.00     0.053 C 
HETATM   25  C   UNL     1     -40.992  55.210 -51.624  1.00  0.00     0.236 C 
HETATM   26  N   UNL     1     -42.417  54.914 -52.013  1.00  0.00    -0.075 N 
HETATM   27  H   UNL     1     -42.876  54.451 -51.214  1.00  0.00     0.279 HD
HETATM   28  C   UNL     1     -42.483  53.908 -53.140  1.00  0.00     0.269 C 
HETATM   29  C   UNL     1     -43.189  56.163 -52.338  1.00  0.00     0.236 C 
HETATM   30  C   UNL     1     -43.165  57.134 -51.163  1.00  0.00     0.053 C 
ENDBRANCH  21  23
ENDBRANCH   2  21
TORSDOF 5
ENDMDL
