MODEL 1
REMARK VINA RESULT:      -7.2      0.000      0.000
REMARK  11 active torsions:
REMARK  status: ('A' for Active; 'I' for Inactive)
REMARK    1  A    between atoms: O_1  and  C_2 
REMARK    2  A    between atoms: C_2  and  C_3 
REMARK    3  A    between atoms: C_3  and  O_4 
REMARK    4  A    between atoms: O_4  and  C_5 
REMARK    5  A    between atoms: C_7  and  C_25 
REMARK    6  A    between atoms: C_10  and  N_11 
REMARK       I    between atoms: N_11  and  C_12 
REMARK       I    between atoms: C_12  and  N_14 
REMARK    7  A    between atoms: N_14  and  C_15 
REMARK    8  A    between atoms: N_14  and  C_18 
REMARK    9  A    between atoms: C_15  and  C_16 
REMARK   10  A    between atoms: C_16  and  O_17 
REMARK   11  A    between atoms: C_18  and  C_19 
ROOT
HETATM    1  C   UNL     1     -44.155  58.003 -57.040  1.00  0.00     0.096 A 
HETATM    2  C   UNL     1     -45.068  58.014 -58.103  1.00  0.00     0.051 A 
HETATM    3  C   UNL     1     -45.070  56.986 -59.059  1.00  0.00    -0.020 A 
HETATM    4  C   UNL     1     -44.122  55.962 -58.963  1.00  0.00     0.015 A 
HETATM    5  C   UNL     1     -43.214  55.936 -57.904  1.00  0.00     0.033 A 
HETATM    6  C   UNL     1     -43.268  56.920 -56.911  1.00  0.00     0.069 A 
ENDROOT
BRANCH   6   7
HETATM    7  N   UNL     1     -42.404  56.773 -55.799  1.00  0.00    -0.306 N 
HETATM    8  C   UNL     1     -42.798  56.027 -54.699  1.00  0.00     0.323 C 
HETATM    9  O   UNL     1     -43.870  55.431 -54.617  1.00  0.00    -0.247 OA
HETATM   10  N   UNL     1     -41.819  55.909 -53.713  1.00  0.00    -0.328 N 
HETATM   11  H   UNL     1     -41.427  56.616 -56.028  1.00  0.00     0.171 HD
BRANCH  10  12
HETATM   12  C   UNL     1     -40.621  56.757 -53.639  1.00  0.00     0.153 C 
BRANCH  12  13
HETATM   13  C   UNL     1     -40.831  57.989 -52.757  1.00  0.00     0.184 C 
BRANCH  13  14
HETATM   14  O   UNL     1     -40.072  59.096 -53.247  1.00  0.00    -0.399 OA
HETATM   15  H   UNL     1     -39.197  58.733 -53.487  1.00  0.00     0.209 HD
ENDBRANCH  13  14
ENDBRANCH  12  13
ENDBRANCH  10  12
BRANCH  10  16
HETATM   16  C   UNL     1     -41.984  54.864 -52.704  1.00  0.00     0.166 C 
BRANCH  16  17
HETATM   17  C   UNL     1     -41.084  53.661 -52.863  1.00  0.00    -0.040 A 
HETATM   18  C   UNL     1     -40.322  53.154 -51.803  1.00  0.00     0.009 A 
HETATM   19  C   UNL     1     -39.557  51.996 -51.965  1.00  0.00     0.001 A 
HETATM   20  C   UNL     1     -39.560  51.321 -53.184  1.00  0.00     0.000 A 
HETATM   21  C   UNL     1     -40.330  51.800 -54.242  1.00  0.00     0.001 A 
HETATM   22  C   UNL     1     -41.089  52.960 -54.081  1.00  0.00     0.009 A 
ENDBRANCH  16  17
ENDBRANCH  10  16
ENDBRANCH   6   7
BRANCH   1  23
HETATM   23  O   UNL     1     -44.044  59.013 -56.117  1.00  0.00    -0.347 OA
BRANCH  23  24
HETATM   24  C   UNL     1     -43.752  60.314 -56.623  1.00  0.00     0.201 C 
BRANCH  24  25
HETATM   25  C   UNL     1     -42.240  60.460 -56.742  1.00  0.00     0.190 C 
BRANCH  25  26
HETATM   26  O   UNL     1     -41.598  59.849 -55.628  1.00  0.00    -0.399 OA
HETATM   27  H   UNL     1     -40.848  60.421 -55.388  1.00  0.00     0.209 HD
ENDBRANCH  25  26
ENDBRANCH  24  25
ENDBRANCH  23  24
ENDBRANCH   1  23
BRANCH   3  28
HETATM   28  C   UNL     1     -46.053  56.964 -60.125  1.00  0.00     0.010 A 
HETATM   29  C   UNL     1     -46.481  55.906 -60.960  1.00  0.00     0.152 A 
HETATM   30  N   UNL     1     -47.414  56.286 -61.837  1.00  0.00    -0.187 NA
HETATM   31  N   UNL     1     -47.591  57.589 -61.561  1.00  0.00    -0.289 N 
HETATM   32  H   UNL     1     -48.270  58.108 -62.107  1.00  0.00     0.188 HD
HETATM   33  C   UNL     1     -46.799  58.043 -60.546  1.00  0.00     0.123 A 
ENDBRANCH   3  28
TORSDOF 11
ENDMDL
MODEL 2
REMARK VINA RESULT:      -7.2      3.678      8.132
REMARK  11 active torsions:
REMARK  status: ('A' for Active; 'I' for Inactive)
REMARK    1  A    between atoms: O_1  and  C_2 
REMARK    2  A    between atoms: C_2  and  C_3 
REMARK    3  A    between atoms: C_3  and  O_4 
REMARK    4  A    between atoms: O_4  and  C_5 
REMARK    5  A    between atoms: C_7  and  C_25 
REMARK    6  A    between atoms: C_10  and  N_11 
REMARK       I    between atoms: N_11  and  C_12 
REMARK       I    between atoms: C_12  and  N_14 
REMARK    7  A    between atoms: N_14  and  C_15 
REMARK    8  A    between atoms: N_14  and  C_18 
REMARK    9  A    between atoms: C_15  and  C_16 
REMARK   10  A    between atoms: C_16  and  O_17 
REMARK   11  A    between atoms: C_18  and  C_19 
ROOT
HETATM    1  C   UNL     1     -41.387  54.670 -52.539  1.00  0.00     0.096 A 
HETATM    2  C   UNL     1     -40.962  53.354 -52.311  1.00  0.00     0.051 A 
HETATM    3  C   UNL     1     -40.446  52.575 -53.358  1.00  0.00    -0.020 A 
HETATM    4  C   UNL     1     -40.393  53.113 -54.649  1.00  0.00     0.015 A 
HETATM    5  C   UNL     1     -40.805  54.426 -54.884  1.00  0.00     0.033 A 
HETATM    6  C   UNL     1     -41.244  55.223 -53.823  1.00  0.00     0.069 A 
ENDROOT
BRANCH   6   7
HETATM    7  N   UNL     1     -41.532  56.581 -54.103  1.00  0.00    -0.306 N 
HETATM    8  C   UNL     1     -42.780  56.949 -54.581  1.00  0.00     0.323 C 
HETATM    9  O   UNL     1     -43.709  56.164 -54.763  1.00  0.00    -0.247 OA
HETATM   10  N   UNL     1     -42.944  58.324 -54.742  1.00  0.00    -0.328 N 
HETATM   11  H   UNL     1     -41.181  57.247 -53.421  1.00  0.00     0.171 HD
BRANCH  10  12
HETATM   12  C   UNL     1     -41.834  59.288 -54.759  1.00  0.00     0.153 C 
BRANCH  12  13
HETATM   13  C   UNL     1     -41.329  59.620 -53.353  1.00  0.00     0.184 C 
BRANCH  13  14
HETATM   14  O   UNL     1     -39.992  59.148 -53.173  1.00  0.00    -0.399 OA
HETATM   15  H   UNL     1     -39.786  58.621 -53.970  1.00  0.00     0.209 HD
ENDBRANCH  13  14
ENDBRANCH  12  13
ENDBRANCH  10  12
BRANCH  10  16
HETATM   16  C   UNL     1     -44.304  58.842 -54.881  1.00  0.00     0.166 C 
BRANCH  16  17
HETATM   17  C   UNL     1     -44.924  59.385 -53.615  1.00  0.00    -0.040 A 
HETATM   18  C   UNL     1     -45.669  60.572 -53.600  1.00  0.00     0.009 A 
HETATM   19  C   UNL     1     -46.289  61.007 -52.426  1.00  0.00     0.001 A 
HETATM   20  C   UNL     1     -46.188  60.252 -51.259  1.00  0.00     0.000 A 
HETATM   21  C   UNL     1     -45.469  59.059 -51.264  1.00  0.00     0.001 A 
HETATM   22  C   UNL     1     -44.844  58.627 -52.434  1.00  0.00     0.009 A 
ENDBRANCH  16  17
ENDBRANCH  10  16
ENDBRANCH   6   7
BRANCH   1  23
HETATM   23  O   UNL     1     -41.974  55.459 -51.581  1.00  0.00    -0.347 OA
BRANCH  23  24
HETATM   24  C   UNL     1     -42.480  54.795 -50.425  1.00  0.00     0.201 C 
BRANCH  24  25
HETATM   25  C   UNL     1     -43.950  54.468 -50.658  1.00  0.00     0.190 C 
BRANCH  25  26
HETATM   26  O   UNL     1     -44.746  55.637 -50.497  1.00  0.00    -0.399 OA
HETATM   27  H   UNL     1     -44.139  56.359 -50.259  1.00  0.00     0.209 HD
ENDBRANCH  25  26
ENDBRANCH  24  25
ENDBRANCH  23  24
ENDBRANCH   1  23
BRANCH   3  28
HETATM   28  C   UNL     1     -39.950  51.234 -53.114  1.00  0.00     0.010 A 
HETATM   29  C   UNL     1     -39.736  50.156 -54.003  1.00  0.00     0.152 A 
HETATM   30  N   UNL     1     -39.266  49.067 -53.389  1.00  0.00    -0.187 NA
HETATM   31  N   UNL     1     -39.171  49.448 -52.105  1.00  0.00    -0.289 N 
HETATM   32  H   UNL     1     -38.826  48.776 -51.428  1.00  0.00     0.188 HD
HETATM   33  C   UNL     1     -39.569  50.736 -51.887  1.00  0.00     0.123 A 
ENDBRANCH   3  28
TORSDOF 11
ENDMDL
MODEL 3
REMARK VINA RESULT:      -7.1      4.416      8.550
REMARK  11 active torsions:
REMARK  status: ('A' for Active; 'I' for Inactive)
REMARK    1  A    between atoms: O_1  and  C_2 
REMARK    2  A    between atoms: C_2  and  C_3 
REMARK    3  A    between atoms: C_3  and  O_4 
REMARK    4  A    between atoms: O_4  and  C_5 
REMARK    5  A    between atoms: C_7  and  C_25 
REMARK    6  A    between atoms: C_10  and  N_11 
REMARK       I    between atoms: N_11  and  C_12 
REMARK       I    between atoms: C_12  and  N_14 
REMARK    7  A    between atoms: N_14  and  C_15 
REMARK    8  A    between atoms: N_14  and  C_18 
REMARK    9  A    between atoms: C_15  and  C_16 
REMARK   10  A    between atoms: C_16  and  O_17 
REMARK   11  A    between atoms: C_18  and  C_19 
ROOT
HETATM    1  C   UNL     1     -40.910  54.691 -53.411  1.00  0.00     0.096 A 
HETATM    2  C   UNL     1     -40.509  53.352 -53.500  1.00  0.00     0.051 A 
HETATM    3  C   UNL     1     -40.207  52.615 -52.345  1.00  0.00    -0.020 A 
HETATM    4  C   UNL     1     -40.274  53.242 -51.096  1.00  0.00     0.015 A 
HETATM    5  C   UNL     1     -40.681  54.573 -50.995  1.00  0.00     0.033 A 
HETATM    6  C   UNL     1     -41.057  55.279 -52.142  1.00  0.00     0.069 A 
ENDROOT
BRANCH   6   7
HETATM    7  N   UNL     1     -41.577  56.584 -51.964  1.00  0.00    -0.306 N 
HETATM    8  C   UNL     1     -42.940  56.779 -51.800  1.00  0.00     0.323 C 
HETATM    9  O   UNL     1     -43.768  55.871 -51.764  1.00  0.00    -0.247 OA
HETATM   10  N   UNL     1     -43.299  58.106 -51.563  1.00  0.00    -0.328 N 
HETATM   11  H   UNL     1     -41.035  57.185 -51.351  1.00  0.00     0.171 HD
BRANCH  10  12
HETATM   12  C   UNL     1     -42.414  59.253 -51.807  1.00  0.00     0.153 C 
BRANCH  12  13
HETATM   13  C   UNL     1     -41.855  59.844 -50.511  1.00  0.00     0.184 C 
BRANCH  13  14
HETATM   14  O   UNL     1     -41.108  58.862 -49.789  1.00  0.00    -0.399 OA
HETATM   15  H   UNL     1     -40.207  58.881 -50.170  1.00  0.00     0.209 HD
ENDBRANCH  13  14
ENDBRANCH  12  13
ENDBRANCH  10  12
BRANCH  10  16
HETATM   16  C   UNL     1     -44.630  58.369 -51.018  1.00  0.00     0.166 C 
BRANCH  16  17
HETATM   17  C   UNL     1     -45.253  59.682 -51.432  1.00  0.00    -0.040 A 
HETATM   18  C   UNL     1     -45.614  59.950 -52.759  1.00  0.00     0.009 A 
HETATM   19  C   UNL     1     -46.254  61.145 -53.095  1.00  0.00     0.001 A 
HETATM   20  C   UNL     1     -46.557  62.079 -52.105  1.00  0.00     0.000 A 
HETATM   21  C   UNL     1     -46.223  61.818 -50.778  1.00  0.00     0.001 A 
HETATM   22  C   UNL     1     -45.578  60.626 -50.444  1.00  0.00     0.009 A 
ENDBRANCH  16  17
ENDBRANCH  10  16
ENDBRANCH   6   7
BRANCH   1  23
HETATM   23  O   UNL     1     -41.143  55.493 -54.501  1.00  0.00    -0.347 OA
BRANCH  23  24
HETATM   24  C   UNL     1     -42.069  55.005 -55.469  1.00  0.00     0.201 C 
BRANCH  24  25
HETATM   25  C   UNL     1     -43.392  55.739 -55.288  1.00  0.00     0.190 C 
BRANCH  25  26
HETATM   26  O   UNL     1     -44.294  54.947 -54.525  1.00  0.00    -0.399 OA
HETATM   27  H   UNL     1     -43.807  54.647 -53.737  1.00  0.00     0.209 HD
ENDBRANCH  25  26
ENDBRANCH  24  25
ENDBRANCH  23  24
ENDBRANCH   1  23
BRANCH   3  28
HETATM   28  C   UNL     1     -39.849  51.211 -52.429  1.00  0.00     0.010 A 
HETATM   29  C   UNL     1     -39.702  50.365 -53.552  1.00  0.00     0.152 A 
HETATM   30  N   UNL     1     -39.363  49.118 -53.217  1.00  0.00    -0.187 NA
HETATM   31  N   UNL     1     -39.283  49.164 -51.877  1.00  0.00    -0.289 N 
HETATM   32  H   UNL     1     -39.030  48.316 -51.381  1.00  0.00     0.188 HD
HETATM   33  C   UNL     1     -39.567  50.394 -51.356  1.00  0.00     0.123 A 
ENDBRANCH   3  28
TORSDOF 11
ENDMDL
MODEL 4
REMARK VINA RESULT:      -7.0      2.081      3.192
REMARK  11 active torsions:
REMARK  status: ('A' for Active; 'I' for Inactive)
REMARK    1  A    between atoms: O_1  and  C_2 
REMARK    2  A    between atoms: C_2  and  C_3 
REMARK    3  A    between atoms: C_3  and  O_4 
REMARK    4  A    between atoms: O_4  and  C_5 
REMARK    5  A    between atoms: C_7  and  C_25 
REMARK    6  A    between atoms: C_10  and  N_11 
REMARK       I    between atoms: N_11  and  C_12 
REMARK       I    between atoms: C_12  and  N_14 
REMARK    7  A    between atoms: N_14  and  C_15 
REMARK    8  A    between atoms: N_14  and  C_18 
REMARK    9  A    between atoms: C_15  and  C_16 
REMARK   10  A    between atoms: C_16  and  O_17 
REMARK   11  A    between atoms: C_18  and  C_19 
ROOT
HETATM    1  C   UNL     1     -42.751  57.521 -55.297  1.00  0.00     0.096 A 
HETATM    2  C   UNL     1     -42.966  58.181 -56.514  1.00  0.00     0.051 A 
HETATM    3  C   UNL     1     -43.135  57.456 -57.704  1.00  0.00    -0.020 A 
HETATM    4  C   UNL     1     -43.050  56.060 -57.672  1.00  0.00     0.015 A 
HETATM    5  C   UNL     1     -42.845  55.392 -56.464  1.00  0.00     0.033 A 
HETATM    6  C   UNL     1     -42.756  56.115 -55.270  1.00  0.00     0.069 A 
ENDROOT
BRANCH   6   7
HETATM    7  N   UNL     1     -42.672  55.377 -54.065  1.00  0.00    -0.306 N 
HETATM    8  C   UNL     1     -41.511  54.692 -53.742  1.00  0.00     0.323 C 
HETATM    9  O   UNL     1     -40.493  54.696 -54.431  1.00  0.00    -0.247 OA
HETATM   10  N   UNL     1     -41.546  54.071 -52.494  1.00  0.00    -0.328 N 
HETATM   11  H   UNL     1     -43.078  55.830 -53.251  1.00  0.00     0.171 HD
BRANCH  10  12
HETATM   12  C   UNL     1     -42.777  53.839 -51.726  1.00  0.00     0.153 C 
BRANCH  12  13
HETATM   13  C   UNL     1     -42.936  54.824 -50.566  1.00  0.00     0.184 C 
BRANCH  13  14
HETATM   14  O   UNL     1     -43.529  56.043 -51.017  1.00  0.00    -0.399 OA
HETATM   15  H   UNL     1     -43.411  56.682 -50.288  1.00  0.00     0.209 HD
ENDBRANCH  13  14
ENDBRANCH  12  13
ENDBRANCH  10  12
BRANCH  10  16
HETATM   16  C   UNL     1     -40.279  53.645 -51.903  1.00  0.00     0.166 C 
BRANCH  16  17
HETATM   17  C   UNL     1     -39.974  52.169 -52.014  1.00  0.00    -0.040 A 
HETATM   18  C   UNL     1     -39.920  51.333 -50.891  1.00  0.00     0.009 A 
HETATM   19  C   UNL     1     -39.707  49.960 -51.036  1.00  0.00     0.001 A 
HETATM   20  C   UNL     1     -39.566  49.404 -52.305  1.00  0.00     0.000 A 
HETATM   21  C   UNL     1     -39.638  50.218 -53.433  1.00  0.00     0.001 A 
HETATM   22  C   UNL     1     -39.844  51.591 -53.288  1.00  0.00     0.009 A 
ENDBRANCH  16  17
ENDBRANCH  10  16
ENDBRANCH   6   7
BRANCH   1  23
HETATM   23  O   UNL     1     -42.498  58.167 -54.112  1.00  0.00    -0.347 OA
BRANCH  23  24
HETATM   24  C   UNL     1     -41.206  58.753 -53.964  1.00  0.00     0.201 C 
BRANCH  24  25
HETATM   25  C   UNL     1     -40.828  58.726 -52.489  1.00  0.00     0.190 C 
BRANCH  25  26
HETATM   26  O   UNL     1     -41.112  57.448 -51.931  1.00  0.00    -0.399 OA
HETATM   27  H   UNL     1     -41.796  57.584 -51.252  1.00  0.00     0.209 HD
ENDBRANCH  25  26
ENDBRANCH  24  25
ENDBRANCH  23  24
ENDBRANCH   1  23
BRANCH   3  28
HETATM   28  C   UNL     1     -43.417  58.134 -58.955  1.00  0.00     0.010 A 
HETATM   29  C   UNL     1     -42.764  59.220 -59.581  1.00  0.00     0.152 A 
HETATM   30  N   UNL     1     -43.332  59.566 -60.739  1.00  0.00    -0.187 NA
HETATM   31  N   UNL     1     -44.348  58.695 -60.861  1.00  0.00    -0.289 N 
HETATM   32  H   UNL     1     -44.938  58.759 -61.684  1.00  0.00     0.188 HD
HETATM   33  C   UNL     1     -44.443  57.819 -59.819  1.00  0.00     0.123 A 
ENDBRANCH   3  28
TORSDOF 11
ENDMDL
MODEL 5
REMARK VINA RESULT:      -7.0      4.200      7.520
REMARK  11 active torsions:
REMARK  status: ('A' for Active; 'I' for Inactive)
REMARK    1  A    between atoms: O_1  and  C_2 
REMARK    2  A    between atoms: C_2  and  C_3 
REMARK    3  A    between atoms: C_3  and  O_4 
REMARK    4  A    between atoms: O_4  and  C_5 
REMARK    5  A    between atoms: C_7  and  C_25 
REMARK    6  A    between atoms: C_10  and  N_11 
REMARK       I    between atoms: N_11  and  C_12 
REMARK       I    between atoms: C_12  and  N_14 
REMARK    7  A    between atoms: N_14  and  C_15 
REMARK    8  A    between atoms: N_14  and  C_18 
REMARK    9  A    between atoms: C_15  and  C_16 
REMARK   10  A    between atoms: C_16  and  O_17 
REMARK   11  A    between atoms: C_18  and  C_19 
ROOT
HETATM    1  C   UNL     1     -42.267  59.777 -51.306  1.00  0.00     0.096 A 
HETATM    2  C   UNL     1     -42.665  60.679 -50.311  1.00  0.00     0.051 A 
HETATM    3  C   UNL     1     -44.025  60.924 -50.068  1.00  0.00    -0.020 A 
HETATM    4  C   UNL     1     -44.988  60.283 -50.856  1.00  0.00     0.015 A 
HETATM    5  C   UNL     1     -44.602  59.375 -51.843  1.00  0.00     0.033 A 
HETATM    6  C   UNL     1     -43.248  59.076 -52.029  1.00  0.00     0.069 A 
ENDROOT
BRANCH   6   7
HETATM    7  N   UNL     1     -42.926  58.058 -52.959  1.00  0.00    -0.306 N 
HETATM    8  C   UNL     1     -42.878  56.732 -52.559  1.00  0.00     0.323 C 
HETATM    9  O   UNL     1     -43.133  56.345 -51.420  1.00  0.00    -0.247 OA
HETATM   10  N   UNL     1     -42.621  55.835 -53.595  1.00  0.00    -0.328 N 
HETATM   11  H   UNL     1     -43.355  58.159 -53.875  1.00  0.00     0.171 HD
BRANCH  10  12
HETATM   12  C   UNL     1     -42.098  56.228 -54.911  1.00  0.00     0.153 C 
BRANCH  12  13
HETATM   13  C   UNL     1     -43.150  56.113 -56.016  1.00  0.00     0.184 C 
BRANCH  13  14
HETATM   14  O   UNL     1     -44.331  56.838 -55.666  1.00  0.00    -0.399 OA
HETATM   15  H   UNL     1     -44.258  57.700 -56.121  1.00  0.00     0.209 HD
ENDBRANCH  13  14
ENDBRANCH  12  13
ENDBRANCH  10  12
BRANCH  10  16
HETATM   16  C   UNL     1     -42.910  54.421 -53.366  1.00  0.00     0.166 C 
BRANCH  16  17
HETATM   17  C   UNL     1     -41.701  53.527 -53.215  1.00  0.00    -0.040 A 
HETATM   18  C   UNL     1     -41.009  53.408 -52.003  1.00  0.00     0.009 A 
HETATM   19  C   UNL     1     -39.940  52.518 -51.878  1.00  0.00     0.001 A 
HETATM   20  C   UNL     1     -39.562  51.722 -52.958  1.00  0.00     0.000 A 
HETATM   21  C   UNL     1     -40.253  51.814 -54.164  1.00  0.00     0.001 A 
HETATM   22  C   UNL     1     -41.318  52.708 -54.291  1.00  0.00     0.009 A 
ENDBRANCH  16  17
ENDBRANCH  10  16
ENDBRANCH   6   7
BRANCH   1  23
HETATM   23  O   UNL     1     -40.957  59.550 -51.652  1.00  0.00    -0.347 OA
BRANCH  23  24
HETATM   24  C   UNL     1     -40.159  58.841 -50.707  1.00  0.00     0.201 C 
BRANCH  24  25
HETATM   25  C   UNL     1     -38.742  59.400 -50.753  1.00  0.00     0.190 C 
BRANCH  25  26
HETATM   26  O   UNL     1     -38.319  59.557 -52.103  1.00  0.00    -0.399 OA
HETATM   27  H   UNL     1     -38.930  60.191 -52.516  1.00  0.00     0.209 HD
ENDBRANCH  25  26
ENDBRANCH  24  25
ENDBRANCH  23  24
ENDBRANCH   1  23
BRANCH   3  28
HETATM   28  C   UNL     1     -44.442  61.812 -48.999  1.00  0.00     0.010 A 
HETATM   29  C   UNL     1     -44.617  63.215 -48.984  1.00  0.00     0.152 A 
HETATM   30  N   UNL     1     -45.013  63.672 -47.792  1.00  0.00    -0.187 NA
HETATM   31  N   UNL     1     -45.100  62.560 -47.044  1.00  0.00    -0.289 N 
HETATM   32  H   UNL     1     -45.392  62.654 -46.077  1.00  0.00     0.188 HD
HETATM   33  C   UNL     1     -44.768  61.421 -47.718  1.00  0.00     0.123 A 
ENDBRANCH   3  28
TORSDOF 11
ENDMDL
MODEL 6
REMARK VINA RESULT:      -6.9      2.728      8.001
REMARK  11 active torsions:
REMARK  status: ('A' for Active; 'I' for Inactive)
REMARK    1  A    between atoms: O_1  and  C_2 
REMARK    2  A    between atoms: C_2  and  C_3 
REMARK    3  A    between atoms: C_3  and  O_4 
REMARK    4  A    between atoms: O_4  and  C_5 
REMARK    5  A    between atoms: C_7  and  C_25 
REMARK    6  A    between atoms: C_10  and  N_11 
REMARK       I    between atoms: N_11  and  C_12 
REMARK       I    between atoms: C_12  and  N_14 
REMARK    7  A    between atoms: N_14  and  C_15 
REMARK    8  A    between atoms: N_14  and  C_18 
REMARK    9  A    between atoms: C_15  and  C_16 
REMARK   10  A    between atoms: C_16  and  O_17 
REMARK   11  A    between atoms: C_18  and  C_19 
ROOT
HETATM    1  C   UNL     1     -41.373  54.716 -52.660  1.00  0.00     0.096 A 
HETATM    2  C   UNL     1     -40.942  53.419 -52.351  1.00  0.00     0.051 A 
HETATM    3  C   UNL     1     -40.473  52.561 -53.357  1.00  0.00    -0.020 A 
HETATM    4  C   UNL     1     -40.472  52.999 -54.686  1.00  0.00     0.015 A 
HETATM    5  C   UNL     1     -40.891  54.293 -55.003  1.00  0.00     0.033 A 
HETATM    6  C   UNL     1     -41.283  55.170 -53.987  1.00  0.00     0.069 A 
ENDROOT
BRANCH   6   7
HETATM    7  N   UNL     1     -41.580  56.505 -54.357  1.00  0.00    -0.306 N 
HETATM    8  C   UNL     1     -42.832  56.833 -54.853  1.00  0.00     0.323 C 
HETATM    9  O   UNL     1     -43.757  56.033 -54.976  1.00  0.00    -0.247 OA
HETATM   10  N   UNL     1     -43.003  58.194 -55.106  1.00  0.00    -0.328 N 
HETATM   11  H   UNL     1     -41.228  57.217 -53.723  1.00  0.00     0.171 HD
BRANCH  10  12
HETATM   12  C   UNL     1     -41.899  59.159 -55.193  1.00  0.00     0.153 C 
BRANCH  12  13
HETATM   13  C   UNL     1     -41.779  60.024 -53.936  1.00  0.00     0.184 C 
BRANCH  13  14
HETATM   14  O   UNL     1     -40.883  59.428 -52.996  1.00  0.00    -0.399 OA
HETATM   15  H   UNL     1     -40.078  59.981 -53.008  1.00  0.00     0.209 HD
ENDBRANCH  13  14
ENDBRANCH  12  13
ENDBRANCH  10  12
BRANCH  10  16
HETATM   16  C   UNL     1     -44.366  58.694 -55.272  1.00  0.00     0.166 C 
BRANCH  16  17
HETATM   17  C   UNL     1     -44.984  58.457 -56.631  1.00  0.00    -0.040 A 
HETATM   18  C   UNL     1     -46.342  58.154 -56.790  1.00  0.00     0.009 A 
HETATM   19  C   UNL     1     -46.895  58.012 -58.065  1.00  0.00     0.001 A 
HETATM   20  C   UNL     1     -46.102  58.192 -59.196  1.00  0.00     0.000 A 
HETATM   21  C   UNL     1     -44.754  58.515 -59.055  1.00  0.00     0.001 A 
HETATM   22  C   UNL     1     -44.200  58.650 -57.781  1.00  0.00     0.009 A 
ENDBRANCH  16  17
ENDBRANCH  10  16
ENDBRANCH   6   7
BRANCH   1  23
HETATM   23  O   UNL     1     -41.919  55.579 -51.741  1.00  0.00    -0.347 OA
BRANCH  23  24
HETATM   24  C   UNL     1     -43.294  55.385 -51.418  1.00  0.00     0.201 C 
BRANCH  24  25
HETATM   25  C   UNL     1     -43.931  56.748 -51.176  1.00  0.00     0.190 C 
BRANCH  25  26
HETATM   26  O   UNL     1     -43.068  57.783 -51.633  1.00  0.00    -0.399 OA
HETATM   27  H   UNL     1     -42.188  57.385 -51.746  1.00  0.00     0.209 HD
ENDBRANCH  25  26
ENDBRANCH  24  25
ENDBRANCH  23  24
ENDBRANCH   1  23
BRANCH   3  28
HETATM   28  C   UNL     1     -39.970  51.239 -53.033  1.00  0.00     0.010 A 
HETATM   29  C   UNL     1     -39.751  50.111 -53.855  1.00  0.00     0.152 A 
HETATM   30  N   UNL     1     -39.276  49.062 -53.177  1.00  0.00    -0.187 NA
HETATM   31  N   UNL     1     -39.182  49.521 -51.918  1.00  0.00    -0.289 N 
HETATM   32  H   UNL     1     -38.833  48.892 -51.203  1.00  0.00     0.188 HD
HETATM   33  C   UNL     1     -39.586  50.817 -51.778  1.00  0.00     0.123 A 
ENDBRANCH   3  28
TORSDOF 11
ENDMDL
MODEL 7
REMARK VINA RESULT:      -6.9      3.093      8.152
REMARK  11 active torsions:
REMARK  status: ('A' for Active; 'I' for Inactive)
REMARK    1  A    between atoms: O_1  and  C_2 
REMARK    2  A    between atoms: C_2  and  C_3 
REMARK    3  A    between atoms: C_3  and  O_4 
REMARK    4  A    between atoms: O_4  and  C_5 
REMARK    5  A    between atoms: C_7  and  C_25 
REMARK    6  A    between atoms: C_10  and  N_11 
REMARK       I    between atoms: N_11  and  C_12 
REMARK       I    between atoms: C_12  and  N_14 
REMARK    7  A    between atoms: N_14  and  C_15 
REMARK    8  A    between atoms: N_14  and  C_18 
REMARK    9  A    between atoms: C_15  and  C_16 
REMARK   10  A    between atoms: C_16  and  O_17 
REMARK   11  A    between atoms: C_18  and  C_19 
ROOT
HETATM    1  C   UNL     1     -41.714  54.622 -52.870  1.00  0.00     0.096 A 
HETATM    2  C   UNL     1     -41.322  53.305 -52.601  1.00  0.00     0.051 A 
HETATM    3  C   UNL     1     -40.469  52.617 -53.478  1.00  0.00    -0.020 A 
HETATM    4  C   UNL     1     -40.040  53.247 -54.651  1.00  0.00     0.015 A 
HETATM    5  C   UNL     1     -40.418  54.563 -54.924  1.00  0.00     0.033 A 
HETATM    6  C   UNL     1     -41.203  55.271 -54.008  1.00  0.00     0.069 A 
ENDROOT
BRANCH   6   7
HETATM    7  N   UNL     1     -41.452  56.638 -54.281  1.00  0.00    -0.306 N 
HETATM    8  C   UNL     1     -42.120  57.012 -55.436  1.00  0.00     0.323 C 
HETATM    9  O   UNL     1     -42.562  56.219 -56.266  1.00  0.00    -0.247 OA
HETATM   10  N   UNL     1     -42.357  58.382 -55.537  1.00  0.00    -0.328 N 
HETATM   11  H   UNL     1     -41.745  57.192 -53.482  1.00  0.00     0.171 HD
BRANCH  10  12
HETATM   12  C   UNL     1     -41.682  59.396 -54.715  1.00  0.00     0.153 C 
BRANCH  12  13
HETATM   13  C   UNL     1     -42.607  60.003 -53.659  1.00  0.00     0.184 C 
BRANCH  13  14
HETATM   14  O   UNL     1     -43.037  59.005 -52.731  1.00  0.00    -0.399 OA
HETATM   15  H   UNL     1     -43.953  58.780 -52.987  1.00  0.00     0.209 HD
ENDBRANCH  13  14
ENDBRANCH  12  13
ENDBRANCH  10  12
BRANCH  10  16
HETATM   16  C   UNL     1     -43.355  58.837 -56.504  1.00  0.00     0.166 C 
BRANCH  16  17
HETATM   17  C   UNL     1     -42.821  59.187 -57.873  1.00  0.00    -0.040 A 
HETATM   18  C   UNL     1     -42.935  58.315 -58.963  1.00  0.00     0.009 A 
HETATM   19  C   UNL     1     -42.494  58.700 -60.232  1.00  0.00     0.001 A 
HETATM   20  C   UNL     1     -41.953  59.969 -60.429  1.00  0.00     0.000 A 
HETATM   21  C   UNL     1     -41.852  60.855 -59.360  1.00  0.00     0.001 A 
HETATM   22  C   UNL     1     -42.286  60.469 -58.091  1.00  0.00     0.009 A 
ENDBRANCH  16  17
ENDBRANCH  10  16
ENDBRANCH   6   7
BRANCH   1  23
HETATM   23  O   UNL     1     -42.607  55.326 -52.100  1.00  0.00    -0.347 OA
BRANCH  23  24
HETATM   24  C   UNL     1     -42.388  55.313 -50.691  1.00  0.00     0.201 C 
BRANCH  24  25
HETATM   25  C   UNL     1     -41.410  56.428 -50.342  1.00  0.00     0.190 C 
BRANCH  25  26
HETATM   26  O   UNL     1     -42.062  57.692 -50.406  1.00  0.00    -0.399 OA
HETATM   27  H   UNL     1     -42.961  57.527 -50.739  1.00  0.00     0.209 HD
ENDBRANCH  25  26
ENDBRANCH  24  25
ENDBRANCH  23  24
ENDBRANCH   1  23
BRANCH   3  28
HETATM   28  C   UNL     1     -40.013  51.274 -53.172  1.00  0.00     0.010 A 
HETATM   29  C   UNL     1     -39.871  50.139 -54.002  1.00  0.00     0.152 A 
HETATM   30  N   UNL     1     -39.419  49.070 -53.341  1.00  0.00    -0.187 NA
HETATM   31  N   UNL     1     -39.262  49.521 -52.086  1.00  0.00    -0.289 N 
HETATM   32  H   UNL     1     -38.917  48.876 -51.384  1.00  0.00     0.188 HD
HETATM   33  C   UNL     1     -39.605  50.833 -51.932  1.00  0.00     0.123 A 
ENDBRANCH   3  28
TORSDOF 11
ENDMDL
MODEL 8
REMARK VINA RESULT:      -6.8      3.760      6.197
REMARK  11 active torsions:
REMARK  status: ('A' for Active; 'I' for Inactive)
REMARK    1  A    between atoms: O_1  and  C_2 
REMARK    2  A    between atoms: C_2  and  C_3 
REMARK    3  A    between atoms: C_3  and  O_4 
REMARK    4  A    between atoms: O_4  and  C_5 
REMARK    5  A    between atoms: C_7  and  C_25 
REMARK    6  A    between atoms: C_10  and  N_11 
REMARK       I    between atoms: N_11  and  C_12 
REMARK       I    between atoms: C_12  and  N_14 
REMARK    7  A    between atoms: N_14  and  C_15 
REMARK    8  A    between atoms: N_14  and  C_18 
REMARK    9  A    between atoms: C_15  and  C_16 
REMARK   10  A    between atoms: C_16  and  O_17 
REMARK   11  A    between atoms: C_18  and  C_19 
ROOT
HETATM    1  C   UNL     1     -44.660  58.877 -53.706  1.00  0.00     0.096 A 
HETATM    2  C   UNL     1     -45.126  59.845 -52.806  1.00  0.00     0.051 A 
HETATM    3  C   UNL     1     -45.311  59.534 -51.450  1.00  0.00    -0.020 A 
HETATM    4  C   UNL     1     -45.060  58.231 -51.006  1.00  0.00     0.015 A 
HETATM    5  C   UNL     1     -44.586  57.262 -51.892  1.00  0.00     0.033 A 
HETATM    6  C   UNL     1     -44.329  57.598 -53.225  1.00  0.00     0.069 A 
ENDROOT
BRANCH   6   7
HETATM    7  N   UNL     1     -43.736  56.607 -54.044  1.00  0.00    -0.306 N 
HETATM    8  C   UNL     1     -42.357  56.472 -54.095  1.00  0.00     0.323 C 
HETATM    9  O   UNL     1     -41.573  57.152 -53.435  1.00  0.00    -0.247 OA
HETATM   10  N   UNL     1     -41.918  55.411 -54.886  1.00  0.00    -0.328 N 
HETATM   11  H   UNL     1     -44.201  55.704 -54.036  1.00  0.00     0.171 HD
BRANCH  10  12
HETATM   12  C   UNL     1     -42.764  54.708 -55.860  1.00  0.00     0.153 C 
BRANCH  12  13
HETATM   13  C   UNL     1     -42.955  55.507 -57.151  1.00  0.00     0.184 C 
BRANCH  13  14
HETATM   14  O   UNL     1     -43.951  56.517 -56.978  1.00  0.00    -0.399 OA
HETATM   15  H   UNL     1     -43.462  57.346 -56.809  1.00  0.00     0.209 HD
ENDBRANCH  13  14
ENDBRANCH  12  13
ENDBRANCH  10  12
BRANCH  10  16
HETATM   16  C   UNL     1     -40.539  54.955 -54.719  1.00  0.00     0.166 C 
BRANCH  16  17
HETATM   17  C   UNL     1     -40.365  53.703 -53.892  1.00  0.00    -0.040 A 
HETATM   18  C   UNL     1     -40.035  52.469 -54.468  1.00  0.00     0.009 A 
HETATM   19  C   UNL     1     -39.810  51.347 -53.667  1.00  0.00     0.001 A 
HETATM   20  C   UNL     1     -39.894  51.449 -52.280  1.00  0.00     0.000 A 
HETATM   21  C   UNL     1     -40.201  52.674 -51.691  1.00  0.00     0.001 A 
HETATM   22  C   UNL     1     -40.431  53.794 -52.491  1.00  0.00     0.009 A 
ENDBRANCH  16  17
ENDBRANCH  10  16
ENDBRANCH   6   7
BRANCH   1  23
HETATM   23  O   UNL     1     -44.533  59.088 -55.057  1.00  0.00    -0.347 OA
BRANCH  23  24
HETATM   24  C   UNL     1     -43.726  60.193 -55.460  1.00  0.00     0.201 C 
BRANCH  24  25
HETATM   25  C   UNL     1     -42.358  59.667 -55.876  1.00  0.00     0.190 C 
BRANCH  25  26
HETATM   26  O   UNL     1     -41.438  59.781 -54.796  1.00  0.00    -0.399 OA
HETATM   27  H   UNL     1     -40.777  59.077 -54.915  1.00  0.00     0.209 HD
ENDBRANCH  25  26
ENDBRANCH  24  25
ENDBRANCH  23  24
ENDBRANCH   1  23
BRANCH   3  28
HETATM   28  C   UNL     1     -45.735  60.550 -50.505  1.00  0.00     0.010 A 
HETATM   29  C   UNL     1     -45.608  60.608 -49.098  1.00  0.00     0.152 A 
HETATM   30  N   UNL     1     -46.136  61.720 -48.579  1.00  0.00    -0.187 NA
HETATM   31  N   UNL     1     -46.595  62.380 -49.654  1.00  0.00    -0.289 N 
HETATM   32  H   UNL     1     -47.046  63.278 -49.510  1.00  0.00     0.188 HD
HETATM   33  C   UNL     1     -46.382  61.722 -50.831  1.00  0.00     0.123 A 
ENDBRANCH   3  28
TORSDOF 11
ENDMDL
MODEL 9
REMARK VINA RESULT:      -6.6      2.350      7.986
REMARK  11 active torsions:
REMARK  status: ('A' for Active; 'I' for Inactive)
REMARK    1  A    between atoms: O_1  and  C_2 
REMARK    2  A    between atoms: C_2  and  C_3 
REMARK    3  A    between atoms: C_3  and  O_4 
REMARK    4  A    between atoms: O_4  and  C_5 
REMARK    5  A    between atoms: C_7  and  C_25 
REMARK    6  A    between atoms: C_10  and  N_11 
REMARK       I    between atoms: N_11  and  C_12 
REMARK       I    between atoms: C_12  and  N_14 
REMARK    7  A    between atoms: N_14  and  C_15 
REMARK    8  A    between atoms: N_14  and  C_18 
REMARK    9  A    between atoms: C_15  and  C_16 
REMARK   10  A    between atoms: C_16  and  O_17 
REMARK   11  A    between atoms: C_18  and  C_19 
ROOT
HETATM    1  C   UNL     1     -42.404  56.025 -53.421  1.00  0.00     0.096 A 
HETATM    2  C   UNL     1     -41.542  55.031 -52.941  1.00  0.00     0.051 A 
HETATM    3  C   UNL     1     -41.517  53.757 -53.530  1.00  0.00    -0.020 A 
HETATM    4  C   UNL     1     -42.391  53.474 -54.586  1.00  0.00     0.015 A 
HETATM    5  C   UNL     1     -43.247  54.461 -55.078  1.00  0.00     0.033 A 
HETATM    6  C   UNL     1     -43.212  55.751 -54.538  1.00  0.00     0.069 A 
ENDROOT
BRANCH   6   7
HETATM    7  N   UNL     1     -44.014  56.739 -55.159  1.00  0.00    -0.306 N 
HETATM    8  C   UNL     1     -43.632  57.293 -56.371  1.00  0.00     0.323 C 
HETATM    9  O   UNL     1     -42.625  56.962 -56.994  1.00  0.00    -0.247 OA
HETATM   10  N   UNL     1     -44.552  58.199 -56.897  1.00  0.00    -0.328 N 
HETATM   11  H   UNL     1     -45.015  56.569 -55.123  1.00  0.00     0.171 HD
BRANCH  10  12
HETATM   12  C   UNL     1     -45.647  58.801 -56.123  1.00  0.00     0.153 C 
BRANCH  12  13
HETATM   13  C   UNL     1     -45.364  60.257 -55.748  1.00  0.00     0.184 C 
BRANCH  13  14
HETATM   14  O   UNL     1     -46.354  60.746 -54.841  1.00  0.00    -0.399 OA
HETATM   15  H   UNL     1     -47.016  61.206 -55.393  1.00  0.00     0.209 HD
ENDBRANCH  13  14
ENDBRANCH  12  13
ENDBRANCH  10  12
BRANCH  10  16
HETATM   16  C   UNL     1     -44.434  58.553 -58.310  1.00  0.00     0.166 C 
BRANCH  16  17
HETATM   17  C   UNL     1     -45.022  57.556 -59.281  1.00  0.00    -0.040 A 
HETATM   18  C   UNL     1     -44.220  56.687 -60.033  1.00  0.00     0.009 A 
HETATM   19  C   UNL     1     -44.799  55.728 -60.868  1.00  0.00     0.001 A 
HETATM   20  C   UNL     1     -46.186  55.613 -60.945  1.00  0.00     0.000 A 
HETATM   21  C   UNL     1     -46.996  56.455 -60.187  1.00  0.00     0.001 A 
HETATM   22  C   UNL     1     -46.418  57.418 -59.358  1.00  0.00     0.009 A 
ENDBRANCH  16  17
ENDBRANCH  10  16
ENDBRANCH   6   7
BRANCH   1  23
HETATM   23  O   UNL     1     -42.539  57.264 -52.843  1.00  0.00    -0.347 OA
BRANCH  23  24
HETATM   24  C   UNL     1     -42.878  57.291 -51.458  1.00  0.00     0.201 C 
BRANCH  24  25
HETATM   25  C   UNL     1     -44.396  57.307 -51.331  1.00  0.00     0.190 C 
BRANCH  25  26
HETATM   26  O   UNL     1     -44.844  56.145 -50.641  1.00  0.00    -0.399 OA
HETATM   27  H   UNL     1     -44.345  56.105 -49.806  1.00  0.00     0.209 HD
ENDBRANCH  25  26
ENDBRANCH  24  25
ENDBRANCH  23  24
ENDBRANCH   1  23
BRANCH   3  28
HETATM   28  C   UNL     1     -40.584  52.745 -53.074  1.00  0.00     0.010 A 
HETATM   29  C   UNL     1     -40.063  52.487 -51.786  1.00  0.00     0.152 A 
HETATM   30  N   UNL     1     -39.215  51.455 -51.769  1.00  0.00    -0.187 NA
HETATM   31  N   UNL     1     -39.197  51.044 -53.048  1.00  0.00    -0.289 N 
HETATM   32  H   UNL     1     -38.613  50.250 -53.289  1.00  0.00     0.188 HD
HETATM   33  C   UNL     1     -39.998  51.783 -53.869  1.00  0.00     0.123 A 
ENDBRANCH   3  28
TORSDOF 11
ENDMDL
MODEL 10
REMARK VINA RESULT:      -6.5      2.306      8.347
REMARK  11 active torsions:
REMARK  status: ('A' for Active; 'I' for Inactive)
REMARK    1  A    between atoms: O_1  and  C_2 
REMARK    2  A    between atoms: C_2  and  C_3 
REMARK    3  A    between atoms: C_3  and  O_4 
REMARK    4  A    between atoms: O_4  and  C_5 
REMARK    5  A    between atoms: C_7  and  C_25 
REMARK    6  A    between atoms: C_10  and  N_11 
REMARK       I    between atoms: N_11  and  C_12 
REMARK       I    between atoms: C_12  and  N_14 
REMARK    7  A    between atoms: N_14  and  C_15 
REMARK    8  A    between atoms: N_14  and  C_18 
REMARK    9  A    between atoms: C_15  and  C_16 
REMARK   10  A    between atoms: C_16  and  O_17 
REMARK   11  A    between atoms: C_18  and  C_19 
ROOT
HETATM    1  C   UNL     1     -41.392  56.351 -54.114  1.00  0.00     0.096 A 
HETATM    2  C   UNL     1     -41.044  55.470 -53.082  1.00  0.00     0.051 A 
HETATM    3  C   UNL     1     -41.099  54.081 -53.276  1.00  0.00    -0.020 A 
HETATM    4  C   UNL     1     -41.541  53.578 -54.504  1.00  0.00     0.015 A 
HETATM    5  C   UNL     1     -41.880  54.448 -55.542  1.00  0.00     0.033 A 
HETATM    6  C   UNL     1     -41.749  55.830 -55.370  1.00  0.00     0.069 A 
ENDROOT
BRANCH   6   7
HETATM    7  N   UNL     1     -41.991  56.653 -56.495  1.00  0.00    -0.306 N 
HETATM    8  C   UNL     1     -43.243  57.211 -56.701  1.00  0.00     0.323 C 
HETATM    9  O   UNL     1     -44.196  57.068 -55.936  1.00  0.00    -0.247 OA
HETATM   10  N   UNL     1     -43.315  58.056 -57.807  1.00  0.00    -0.328 N 
HETATM   11  H   UNL     1     -41.248  57.308 -56.719  1.00  0.00     0.171 HD
BRANCH  10  12
HETATM   12  C   UNL     1     -42.304  58.102 -58.873  1.00  0.00     0.153 C 
BRANCH  12  13
HETATM   13  C   UNL     1     -42.466  56.963 -59.881  1.00  0.00     0.184 C 
BRANCH  13  14
HETATM   14  O   UNL     1     -41.194  56.550 -60.384  1.00  0.00    -0.399 OA
HETATM   15  H   UNL     1     -41.087  57.005 -61.243  1.00  0.00     0.209 HD
ENDBRANCH  13  14
ENDBRANCH  12  13
ENDBRANCH  10  12
BRANCH  10  16
HETATM   16  C   UNL     1     -44.454  58.968 -57.902  1.00  0.00     0.166 C 
BRANCH  16  17
HETATM   17  C   UNL     1     -45.504  58.591 -58.920  1.00  0.00    -0.040 A 
HETATM   18  C   UNL     1     -45.912  59.470 -59.931  1.00  0.00     0.009 A 
HETATM   19  C   UNL     1     -46.833  59.064 -60.900  1.00  0.00     0.001 A 
HETATM   20  C   UNL     1     -47.343  57.767 -60.880  1.00  0.00     0.000 A 
HETATM   21  C   UNL     1     -46.932  56.874 -59.893  1.00  0.00     0.001 A 
HETATM   22  C   UNL     1     -46.016  57.282 -58.922  1.00  0.00     0.009 A 
ENDBRANCH  16  17
ENDBRANCH  10  16
ENDBRANCH   6   7
BRANCH   1  23
HETATM   23  O   UNL     1     -41.439  57.716 -53.970  1.00  0.00    -0.347 OA
BRANCH  23  24
HETATM   24  C   UNL     1     -42.423  58.233 -53.077  1.00  0.00     0.201 C 
BRANCH  24  25
HETATM   25  C   UNL     1     -41.713  58.896 -51.904  1.00  0.00     0.190 C 
BRANCH  25  26
HETATM   26  O   UNL     1     -42.112  58.291 -50.679  1.00  0.00    -0.399 OA
HETATM   27  H   UNL     1     -42.033  58.973 -49.990  1.00  0.00     0.209 HD
ENDBRANCH  25  26
ENDBRANCH  24  25
ENDBRANCH  23  24
ENDBRANCH   1  23
BRANCH   3  28
HETATM   28  C   UNL     1     -40.682  53.167 -52.229  1.00  0.00     0.010 A 
HETATM   29  C   UNL     1     -40.946  53.177 -50.840  1.00  0.00     0.152 A 
HETATM   30  N   UNL     1     -40.376  52.152 -50.200  1.00  0.00    -0.187 NA
HETATM   31  N   UNL     1     -39.752  51.479 -51.181  1.00  0.00    -0.289 N 
HETATM   32  H   UNL     1     -39.239  50.639 -50.935  1.00  0.00     0.188 HD
HETATM   33  C   UNL     1     -39.903  52.045 -52.413  1.00  0.00     0.123 A 
ENDBRANCH   3  28
TORSDOF 11
ENDMDL
