MODEL 1
REMARK VINA RESULT:      -7.8      0.000      0.000
REMARK  4 active torsions:
REMARK  status: ('A' for Active; 'I' for Inactive)
REMARK    1  A    between atoms: C_2  and  C_3 
REMARK    2  A    between atoms: C_5  and  C_6 
REMARK       I    between atoms: C_6  and  N_7 
REMARK    3  A    between atoms: N_7  and  C_8 
REMARK    4  A    between atoms: C_10  and  C_11 
ROOT
HETATM    1  C   UNL     1     -40.939  53.746 -54.011  1.00  0.00     0.035 A 
HETATM    2  C   UNL     1     -41.064  54.144 -52.676  1.00  0.00     0.042 A 
HETATM    3  C   UNL     1     -40.527  53.367 -51.634  1.00  0.00    -0.021 A 
HETATM    4  C   UNL     1     -39.876  52.169 -51.951  1.00  0.00     0.012 A 
HETATM    5  C   UNL     1     -39.751  51.761 -53.279  1.00  0.00     0.003 A 
HETATM    6  C   UNL     1     -40.276  52.549 -54.303  1.00  0.00     0.029 A 
ENDROOT
BRANCH   1   7
HETATM    7  N   UNL     1     -41.428  54.488 -55.103  1.00  0.00    -0.321 N 
HETATM    8  C   UNL     1     -42.732  54.862 -55.377  1.00  0.00     0.279 C 
HETATM    9  O   UNL     1     -43.717  54.557 -54.714  1.00  0.00    -0.265 OA
HETATM   10  H   UNL     1     -40.750  54.802 -55.790  1.00  0.00     0.169 HD
BRANCH   8  11
HETATM   11  C   UNL     1     -42.835  55.678 -56.575  1.00  0.00     0.143 A 
HETATM   12  O   UNL     1     -43.355  55.128 -57.721  1.00  0.00    -0.310 OA
HETATM   13  C   UNL     1     -43.308  56.091 -58.686  1.00  0.00     0.053 A 
HETATM   14  C   UNL     1     -42.786  57.257 -58.171  1.00  0.00     0.036 A 
HETATM   15  C   UNL     1     -42.479  56.991 -56.815  1.00  0.00     0.045 A 
BRANCH  13  16
HETATM   16  C   UNL     1     -43.794  55.702 -60.033  1.00  0.00     0.060 C 
HETATM   17  C   UNL     1     -44.686  54.471 -59.965  1.00  0.00     0.012 C 
ENDBRANCH  13  16
ENDBRANCH   8  11
ENDBRANCH   1   7
BRANCH   3  18
HETATM   18  C   UNL     1     -40.635  53.792 -50.246  1.00  0.00     0.010 A 
HETATM   19  C   UNL     1     -41.073  55.012 -49.679  1.00  0.00     0.152 A 
HETATM   20  N   UNL     1     -41.046  55.005 -48.342  1.00  0.00    -0.187 NA
HETATM   21  N   UNL     1     -40.587  53.778 -48.046  1.00  0.00    -0.289 N 
HETATM   22  H   UNL     1     -40.477  53.528 -47.070  1.00  0.00     0.188 HD
HETATM   23  C   UNL     1     -40.333  53.013 -49.147  1.00  0.00     0.123 A 
ENDBRANCH   3  18
TORSDOF 4
ENDMDL
MODEL 2
REMARK VINA RESULT:      -7.8      2.200      3.085
REMARK  4 active torsions:
REMARK  status: ('A' for Active; 'I' for Inactive)
REMARK    1  A    between atoms: C_2  and  C_3 
REMARK    2  A    between atoms: C_5  and  C_6 
REMARK       I    between atoms: C_6  and  N_7 
REMARK    3  A    between atoms: N_7  and  C_8 
REMARK    4  A    between atoms: C_10  and  C_11 
ROOT
HETATM    1  C   UNL     1     -41.135  54.475 -53.894  1.00  0.00     0.035 A 
HETATM    2  C   UNL     1     -40.711  53.143 -53.862  1.00  0.00     0.042 A 
HETATM    3  C   UNL     1     -40.313  52.537 -52.657  1.00  0.00    -0.021 A 
HETATM    4  C   UNL     1     -40.326  53.298 -51.481  1.00  0.00     0.012 A 
HETATM    5  C   UNL     1     -40.742  54.629 -51.504  1.00  0.00     0.003 A 
HETATM    6  C   UNL     1     -41.148  55.212 -52.705  1.00  0.00     0.029 A 
ENDROOT
BRANCH   1   7
HETATM    7  N   UNL     1     -41.573  55.134 -55.058  1.00  0.00    -0.321 N 
HETATM    8  C   UNL     1     -42.682  54.859 -55.840  1.00  0.00     0.279 C 
HETATM    9  O   UNL     1     -43.467  53.933 -55.666  1.00  0.00    -0.265 OA
HETATM   10  H   UNL     1     -41.017  55.918 -55.383  1.00  0.00     0.169 HD
BRANCH   8  11
HETATM   11  C   UNL     1     -42.837  55.801 -56.936  1.00  0.00     0.143 A 
HETATM   12  O   UNL     1     -43.381  55.372 -58.121  1.00  0.00    -0.310 OA
HETATM   13  C   UNL     1     -43.381  56.437 -58.973  1.00  0.00     0.053 A 
HETATM   14  C   UNL     1     -42.864  57.549 -58.345  1.00  0.00     0.036 A 
HETATM   15  C   UNL     1     -42.510  57.140 -57.037  1.00  0.00     0.045 A 
BRANCH  13  16
HETATM   16  C   UNL     1     -43.902  56.191 -60.340  1.00  0.00     0.060 C 
HETATM   17  C   UNL     1     -44.684  54.888 -60.407  1.00  0.00     0.012 C 
ENDBRANCH  13  16
ENDBRANCH   8  11
ENDBRANCH   1   7
BRANCH   3  18
HETATM   18  C   UNL     1     -39.895  51.144 -52.617  1.00  0.00     0.010 A 
HETATM   19  C   UNL     1     -39.702  50.201 -53.655  1.00  0.00     0.152 A 
HETATM   20  N   UNL     1     -39.285  49.012 -53.208  1.00  0.00    -0.187 NA
HETATM   21  N   UNL     1     -39.212  49.186 -51.879  1.00  0.00    -0.289 N 
HETATM   22  H   UNL     1     -38.911  48.406 -51.307  1.00  0.00     0.188 HD
HETATM   23  C   UNL     1     -39.559  50.443 -51.476  1.00  0.00     0.123 A 
ENDBRANCH   3  18
TORSDOF 4
ENDMDL
MODEL 3
REMARK VINA RESULT:      -7.6      2.591      8.078
REMARK  4 active torsions:
REMARK  status: ('A' for Active; 'I' for Inactive)
REMARK    1  A    between atoms: C_2  and  C_3 
REMARK    2  A    between atoms: C_5  and  C_6 
REMARK       I    between atoms: C_6  and  N_7 
REMARK    3  A    between atoms: N_7  and  C_8 
REMARK    4  A    between atoms: C_10  and  C_11 
ROOT
HETATM    1  C   UNL     1     -42.265  55.765 -55.956  1.00  0.00     0.035 A 
HETATM    2  C   UNL     1     -42.856  55.251 -57.115  1.00  0.00     0.042 A 
HETATM    3  C   UNL     1     -43.426  56.104 -58.078  1.00  0.00    -0.021 A 
HETATM    4  C   UNL     1     -43.413  57.485 -57.849  1.00  0.00     0.012 A 
HETATM    5  C   UNL     1     -42.832  58.006 -56.693  1.00  0.00     0.003 A 
HETATM    6  C   UNL     1     -42.257  57.149 -55.754  1.00  0.00     0.029 A 
ENDROOT
BRANCH   1   7
HETATM    7  N   UNL     1     -41.653  54.972 -54.967  1.00  0.00    -0.321 N 
HETATM    8  C   UNL     1     -42.226  54.395 -53.847  1.00  0.00     0.279 C 
HETATM    9  O   UNL     1     -43.394  54.524 -53.495  1.00  0.00    -0.265 OA
HETATM   10  H   UNL     1     -40.661  54.786 -55.072  1.00  0.00     0.169 HD
BRANCH   8  11
HETATM   11  C   UNL     1     -41.279  53.594 -53.089  1.00  0.00     0.143 A 
HETATM   12  O   UNL     1     -40.869  52.384 -53.590  1.00  0.00    -0.310 OA
HETATM   13  C   UNL     1     -40.018  51.837 -52.676  1.00  0.00     0.053 A 
HETATM   14  C   UNL     1     -39.860  52.688 -51.604  1.00  0.00     0.036 A 
HETATM   15  C   UNL     1     -40.674  53.815 -51.867  1.00  0.00     0.045 A 
BRANCH  13  16
HETATM   16  C   UNL     1     -39.471  50.496 -52.999  1.00  0.00     0.060 C 
HETATM   17  C   UNL     1     -39.864  50.062 -54.403  1.00  0.00     0.012 C 
ENDBRANCH  13  16
ENDBRANCH   8  11
ENDBRANCH   1   7
BRANCH   3  18
HETATM   18  C   UNL     1     -44.019  55.573 -59.296  1.00  0.00     0.010 A 
HETATM   19  C   UNL     1     -44.283  56.185 -60.544  1.00  0.00     0.152 A 
HETATM   20  N   UNL     1     -44.823  55.345 -61.433  1.00  0.00    -0.187 NA
HETATM   21  N   UNL     1     -44.909  54.189 -60.757  1.00  0.00    -0.289 N 
HETATM   22  H   UNL     1     -45.297  53.381 -61.231  1.00  0.00     0.188 HD
HETATM   23  C   UNL     1     -44.437  54.270 -59.479  1.00  0.00     0.123 A 
ENDBRANCH   3  18
TORSDOF 4
ENDMDL
MODEL 4
REMARK VINA RESULT:      -7.6      2.557      3.836
REMARK  4 active torsions:
REMARK  status: ('A' for Active; 'I' for Inactive)
REMARK    1  A    between atoms: C_2  and  C_3 
REMARK    2  A    between atoms: C_5  and  C_6 
REMARK       I    between atoms: C_6  and  N_7 
REMARK    3  A    between atoms: N_7  and  C_8 
REMARK    4  A    between atoms: C_10  and  C_11 
ROOT
HETATM    1  C   UNL     1     -41.156  54.792 -54.837  1.00  0.00     0.035 A 
HETATM    2  C   UNL     1     -40.740  53.461 -54.738  1.00  0.00     0.042 A 
HETATM    3  C   UNL     1     -40.437  52.887 -53.490  1.00  0.00    -0.021 A 
HETATM    4  C   UNL     1     -40.539  53.678 -52.339  1.00  0.00     0.012 A 
HETATM    5  C   UNL     1     -40.948  55.009 -52.430  1.00  0.00     0.003 A 
HETATM    6  C   UNL     1     -41.259  55.561 -53.673  1.00  0.00     0.029 A 
ENDROOT
BRANCH   1   7
HETATM    7  N   UNL     1     -41.501  55.420 -56.049  1.00  0.00    -0.321 N 
HETATM    8  C   UNL     1     -42.639  55.247 -56.818  1.00  0.00     0.279 C 
HETATM    9  O   UNL     1     -43.545  54.454 -56.584  1.00  0.00    -0.265 OA
HETATM   10  H   UNL     1     -40.842  56.094 -56.425  1.00  0.00     0.169 HD
BRANCH   8  11
HETATM   11  C   UNL     1     -42.664  56.121 -57.979  1.00  0.00     0.143 A 
HETATM   12  O   UNL     1     -42.378  57.455 -57.824  1.00  0.00    -0.310 OA
HETATM   13  C   UNL     1     -42.502  58.038 -59.050  1.00  0.00     0.053 A 
HETATM   14  C   UNL     1     -42.844  57.094 -59.993  1.00  0.00     0.036 A 
HETATM   15  C   UNL     1     -42.952  55.863 -59.305  1.00  0.00     0.045 A 
BRANCH  13  16
HETATM   16  C   UNL     1     -42.268  59.501 -59.113  1.00  0.00     0.060 C 
HETATM   17  C   UNL     1     -41.616  60.013 -57.838  1.00  0.00     0.012 C 
ENDBRANCH  13  16
ENDBRANCH   8  11
ENDBRANCH   1   7
BRANCH   3  18
HETATM   18  C   UNL     1     -40.028  51.495 -53.381  1.00  0.00     0.010 A 
HETATM   19  C   UNL     1     -39.906  50.482 -54.363  1.00  0.00     0.152 A 
HETATM   20  N   UNL     1     -39.470  49.321 -53.863  1.00  0.00    -0.187 NA
HETATM   21  N   UNL     1     -39.315  49.584 -52.555  1.00  0.00    -0.289 N 
HETATM   22  H   UNL     1     -38.985  48.840 -51.951  1.00  0.00     0.188 HD
HETATM   23  C   UNL     1     -39.628  50.868 -52.218  1.00  0.00     0.123 A 
ENDBRANCH   3  18
TORSDOF 4
ENDMDL
MODEL 5
REMARK VINA RESULT:      -7.3      2.799      8.535
REMARK  4 active torsions:
REMARK  status: ('A' for Active; 'I' for Inactive)
REMARK    1  A    between atoms: C_2  and  C_3 
REMARK    2  A    between atoms: C_5  and  C_6 
REMARK       I    between atoms: C_6  and  N_7 
REMARK    3  A    between atoms: N_7  and  C_8 
REMARK    4  A    between atoms: C_10  and  C_11 
ROOT
HETATM    1  C   UNL     1     -42.427  55.783 -56.460  1.00  0.00     0.035 A 
HETATM    2  C   UNL     1     -43.109  55.434 -57.630  1.00  0.00     0.042 A 
HETATM    3  C   UNL     1     -43.750  56.410 -58.414  1.00  0.00    -0.021 A 
HETATM    4  C   UNL     1     -43.715  57.745 -57.994  1.00  0.00     0.012 A 
HETATM    5  C   UNL     1     -43.043  58.101 -56.825  1.00  0.00     0.003 A 
HETATM    6  C   UNL     1     -42.399  57.125 -56.064  1.00  0.00     0.029 A 
ENDROOT
BRANCH   1   7
HETATM    7  N   UNL     1     -41.742  54.863 -55.644  1.00  0.00    -0.321 N 
HETATM    8  C   UNL     1     -42.149  54.300 -54.447  1.00  0.00     0.279 C 
HETATM    9  O   UNL     1     -43.193  54.556 -53.856  1.00  0.00    -0.265 OA
HETATM   10  H   UNL     1     -40.826  54.558 -55.959  1.00  0.00     0.169 HD
BRANCH   8  11
HETATM   11  C   UNL     1     -41.187  53.343 -53.927  1.00  0.00     0.143 A 
HETATM   12  O   UNL     1     -41.156  53.085 -52.579  1.00  0.00    -0.310 OA
HETATM   13  C   UNL     1     -40.154  52.185 -52.365  1.00  0.00     0.053 A 
HETATM   14  C   UNL     1     -39.556  51.846 -53.558  1.00  0.00     0.036 A 
HETATM   15  C   UNL     1     -40.217  52.592 -54.562  1.00  0.00     0.045 A 
BRANCH  13  16
HETATM   16  C   UNL     1     -39.915  51.783 -50.957  1.00  0.00     0.060 C 
HETATM   17  C   UNL     1     -39.713  50.280 -50.837  1.00  0.00     0.012 C 
ENDBRANCH  13  16
ENDBRANCH   8  11
ENDBRANCH   1   7
BRANCH   3  18
HETATM   18  C   UNL     1     -44.438  56.053 -59.646  1.00  0.00     0.010 A 
HETATM   19  C   UNL     1     -44.265  54.956 -60.523  1.00  0.00     0.152 A 
HETATM   20  N   UNL     1     -45.121  54.969 -61.550  1.00  0.00    -0.187 NA
HETATM   21  N   UNL     1     -45.846  56.078 -61.337  1.00  0.00    -0.289 N 
HETATM   22  H   UNL     1     -46.579  56.309 -61.998  1.00  0.00     0.188 HD
HETATM   23  C   UNL     1     -45.483  56.757 -60.210  1.00  0.00     0.123 A 
ENDBRANCH   3  18
TORSDOF 4
ENDMDL
MODEL 6
REMARK VINA RESULT:      -7.2      2.384      3.757
REMARK  4 active torsions:
REMARK  status: ('A' for Active; 'I' for Inactive)
REMARK    1  A    between atoms: C_2  and  C_3 
REMARK    2  A    between atoms: C_5  and  C_6 
REMARK       I    between atoms: C_6  and  N_7 
REMARK    3  A    between atoms: N_7  and  C_8 
REMARK    4  A    between atoms: C_10  and  C_11 
ROOT
HETATM    1  C   UNL     1     -43.072  54.950 -55.115  1.00  0.00     0.035 A 
HETATM    2  C   UNL     1     -42.099  53.985 -54.841  1.00  0.00     0.042 A 
HETATM    3  C   UNL     1     -41.709  53.701 -53.519  1.00  0.00    -0.021 A 
HETATM    4  C   UNL     1     -42.300  54.420 -52.472  1.00  0.00     0.012 A 
HETATM    5  C   UNL     1     -43.267  55.389 -52.737  1.00  0.00     0.003 A 
HETATM    6  C   UNL     1     -43.654  55.649 -54.051  1.00  0.00     0.029 A 
ENDROOT
BRANCH   1   7
HETATM    7  N   UNL     1     -43.527  55.263 -56.410  1.00  0.00    -0.321 N 
HETATM    8  C   UNL     1     -43.098  56.273 -57.255  1.00  0.00     0.279 C 
HETATM    9  O   UNL     1     -42.252  57.119 -56.985  1.00  0.00    -0.265 OA
HETATM   10  H   UNL     1     -44.266  54.684 -56.793  1.00  0.00     0.169 HD
BRANCH   8  11
HETATM   11  C   UNL     1     -43.772  56.243 -58.542  1.00  0.00     0.143 A 
HETATM   12  O   UNL     1     -44.871  57.040 -58.745  1.00  0.00    -0.310 OA
HETATM   13  C   UNL     1     -45.318  56.795 -60.010  1.00  0.00     0.053 A 
HETATM   14  C   UNL     1     -44.508  55.869 -60.629  1.00  0.00     0.036 A 
HETATM   15  C   UNL     1     -43.517  55.511 -59.685  1.00  0.00     0.045 A 
BRANCH  13  16
HETATM   16  C   UNL     1     -46.532  57.532 -60.437  1.00  0.00     0.060 C 
HETATM   17  C   UNL     1     -47.051  58.433 -59.327  1.00  0.00     0.012 C 
ENDBRANCH  13  16
ENDBRANCH   8  11
ENDBRANCH   1   7
BRANCH   3  18
HETATM   18  C   UNL     1     -40.715  52.679 -53.230  1.00  0.00     0.010 A 
HETATM   19  C   UNL     1     -40.009  52.379 -52.040  1.00  0.00     0.152 A 
HETATM   20  N   UNL     1     -39.186  51.333 -52.172  1.00  0.00    -0.187 NA
HETATM   21  N   UNL     1     -39.359  50.960 -53.450  1.00  0.00    -0.289 N 
HETATM   22  H   UNL     1     -38.829  50.168 -53.797  1.00  0.00     0.188 HD
HETATM   23  C   UNL     1     -40.266  51.727 -54.123  1.00  0.00     0.123 A 
ENDBRANCH   3  18
TORSDOF 4
ENDMDL
MODEL 7
REMARK VINA RESULT:      -7.1      4.029      5.921
REMARK  4 active torsions:
REMARK  status: ('A' for Active; 'I' for Inactive)
REMARK    1  A    between atoms: C_2  and  C_3 
REMARK    2  A    between atoms: C_5  and  C_6 
REMARK       I    between atoms: C_6  and  N_7 
REMARK    3  A    between atoms: N_7  and  C_8 
REMARK    4  A    between atoms: C_10  and  C_11 
ROOT
HETATM    1  C   UNL     1     -41.639  54.807 -53.412  1.00  0.00     0.035 A 
HETATM    2  C   UNL     1     -41.289  53.571 -52.859  1.00  0.00     0.042 A 
HETATM    3  C   UNL     1     -40.421  52.694 -53.534  1.00  0.00    -0.021 A 
HETATM    4  C   UNL     1     -39.922  53.069 -54.787  1.00  0.00     0.012 A 
HETATM    5  C   UNL     1     -40.270  54.298 -55.349  1.00  0.00     0.003 A 
HETATM    6  C   UNL     1     -41.120  55.163 -54.662  1.00  0.00     0.029 A 
ENDROOT
BRANCH   1   7
HETATM    7  N   UNL     1     -42.479  55.743 -52.779  1.00  0.00    -0.321 N 
HETATM    8  C   UNL     1     -42.129  56.900 -52.105  1.00  0.00     0.279 C 
HETATM    9  O   UNL     1     -40.983  57.289 -51.900  1.00  0.00    -0.265 OA
HETATM   10  H   UNL     1     -43.477  55.565 -52.812  1.00  0.00     0.169 HD
BRANCH   8  11
HETATM   11  C   UNL     1     -43.287  57.642 -51.635  1.00  0.00     0.143 A 
HETATM   12  O   UNL     1     -43.209  59.008 -51.519  1.00  0.00    -0.310 OA
HETATM   13  C   UNL     1     -44.409  59.439 -51.035  1.00  0.00     0.053 A 
HETATM   14  C   UNL     1     -45.262  58.372 -50.858  1.00  0.00     0.036 A 
HETATM   15  C   UNL     1     -44.540  57.217 -51.240  1.00  0.00     0.045 A 
BRANCH  13  16
HETATM   16  C   UNL     1     -44.540  60.897 -50.797  1.00  0.00     0.060 C 
HETATM   17  C   UNL     1     -43.305  61.459 -50.109  1.00  0.00     0.012 C 
ENDBRANCH  13  16
ENDBRANCH   8  11
ENDBRANCH   1   7
BRANCH   3  18
HETATM   18  C   UNL     1     -40.036  51.419 -52.949  1.00  0.00     0.010 A 
HETATM   19  C   UNL     1     -39.897  50.135 -53.528  1.00  0.00     0.152 A 
HETATM   20  N   UNL     1     -39.496  49.208 -52.652  1.00  0.00    -0.187 NA
HETATM   21  N   UNL     1     -39.379  49.895 -51.504  1.00  0.00    -0.289 N 
HETATM   22  H   UNL     1     -39.081  49.396 -50.674  1.00  0.00     0.188 HD
HETATM   23  C   UNL     1     -39.684  51.219 -51.630  1.00  0.00     0.123 A 
ENDBRANCH   3  18
TORSDOF 4
ENDMDL
MODEL 8
REMARK VINA RESULT:      -6.9      2.671      3.743
REMARK  4 active torsions:
REMARK  status: ('A' for Active; 'I' for Inactive)
REMARK    1  A    between atoms: C_2  and  C_3 
REMARK    2  A    between atoms: C_5  and  C_6 
REMARK       I    between atoms: C_6  and  N_7 
REMARK    3  A    between atoms: N_7  and  C_8 
REMARK    4  A    between atoms: C_10  and  C_11 
ROOT
HETATM    1  C   UNL     1     -41.498  54.619 -52.291  1.00  0.00     0.035 A 
HETATM    2  C   UNL     1     -41.122  53.327 -52.670  1.00  0.00     0.042 A 
HETATM    3  C   UNL     1     -40.275  52.551 -51.859  1.00  0.00    -0.021 A 
HETATM    4  C   UNL     1     -39.792  53.100 -50.665  1.00  0.00     0.012 A 
HETATM    5  C   UNL     1     -40.157  54.391 -50.282  1.00  0.00     0.003 A 
HETATM    6  C   UNL     1     -41.010  55.144 -51.089  1.00  0.00     0.029 A 
ENDROOT
BRANCH   1   7
HETATM    7  N   UNL     1     -42.364  55.439 -53.040  1.00  0.00    -0.321 N 
HETATM    8  C   UNL     1     -42.160  55.992 -54.292  1.00  0.00     0.279 C 
HETATM    9  O   UNL     1     -41.135  55.892 -54.959  1.00  0.00    -0.265 OA
HETATM   10  H   UNL     1     -43.262  55.666 -52.624  1.00  0.00     0.169 HD
BRANCH   8  11
HETATM   11  C   UNL     1     -43.314  56.737 -54.765  1.00  0.00     0.143 A 
HETATM   12  O   UNL     1     -43.373  57.123 -56.082  1.00  0.00    -0.310 OA
HETATM   13  C   UNL     1     -44.531  57.823 -56.245  1.00  0.00     0.053 A 
HETATM   14  C   UNL     1     -45.227  57.876 -55.057  1.00  0.00     0.036 A 
HETATM   15  C   UNL     1     -44.443  57.181 -54.105  1.00  0.00     0.045 A 
BRANCH  13  16
HETATM   16  C   UNL     1     -44.788  58.371 -57.599  1.00  0.00     0.060 C 
HETATM   17  C   UNL     1     -44.533  57.327 -58.676  1.00  0.00     0.012 C 
ENDBRANCH  13  16
ENDBRANCH   8  11
ENDBRANCH   1   7
BRANCH   3  18
HETATM   18  C   UNL     1     -39.902  51.197 -52.240  1.00  0.00     0.010 A 
HETATM   19  C   UNL     1     -39.764  50.594 -53.513  1.00  0.00     0.152 A 
HETATM   20  N   UNL     1     -39.376  49.316 -53.445  1.00  0.00    -0.187 NA
HETATM   21  N   UNL     1     -39.266  49.093 -52.126  1.00  0.00    -0.289 N 
HETATM   22  H   UNL     1     -38.978  48.172 -51.815  1.00  0.00     0.188 HD
HETATM   23  C   UNL     1     -39.563  50.185 -51.364  1.00  0.00     0.123 A 
ENDBRANCH   3  18
TORSDOF 4
ENDMDL
MODEL 9
REMARK VINA RESULT:      -6.9      3.711      5.411
REMARK  4 active torsions:
REMARK  status: ('A' for Active; 'I' for Inactive)
REMARK    1  A    between atoms: C_2  and  C_3 
REMARK    2  A    between atoms: C_5  and  C_6 
REMARK       I    between atoms: C_6  and  N_7 
REMARK    3  A    between atoms: N_7  and  C_8 
REMARK    4  A    between atoms: C_10  and  C_11 
ROOT
HETATM    1  C   UNL     1     -41.406  54.831 -51.782  1.00  0.00     0.035 A 
HETATM    2  C   UNL     1     -41.143  53.703 -52.566  1.00  0.00     0.042 A 
HETATM    3  C   UNL     1     -40.269  52.695 -52.118  1.00  0.00    -0.021 A 
HETATM    4  C   UNL     1     -39.645  52.847 -50.874  1.00  0.00     0.012 A 
HETATM    5  C   UNL     1     -39.896  53.971 -50.088  1.00  0.00     0.003 A 
HETATM    6  C   UNL     1     -40.776  54.955 -50.539  1.00  0.00     0.029 A 
ENDROOT
BRANCH   1   7
HETATM    7  N   UNL     1     -42.289  55.861 -52.157  1.00  0.00    -0.321 N 
HETATM    8  C   UNL     1     -42.058  56.929 -53.007  1.00  0.00     0.279 C 
HETATM    9  O   UNL     1     -40.992  57.187 -53.557  1.00  0.00    -0.265 OA
HETATM   10  H   UNL     1     -43.224  55.835 -51.764  1.00  0.00     0.169 HD
BRANCH   8  11
HETATM   11  C   UNL     1     -43.238  57.756 -53.194  1.00  0.00     0.143 A 
HETATM   12  O   UNL     1     -43.883  58.266 -52.095  1.00  0.00    -0.310 OA
HETATM   13  C   UNL     1     -44.960  58.969 -52.550  1.00  0.00     0.053 A 
HETATM   14  C   UNL     1     -45.003  58.934 -53.927  1.00  0.00     0.036 A 
HETATM   15  C   UNL     1     -43.899  58.151 -54.340  1.00  0.00     0.045 A 
BRANCH  13  16
HETATM   16  C   UNL     1     -45.830  59.587 -51.521  1.00  0.00     0.060 C 
HETATM   17  C   UNL     1     -46.571  60.794 -52.075  1.00  0.00     0.012 C 
ENDBRANCH  13  16
ENDBRANCH   8  11
ENDBRANCH   1   7
BRANCH   3  18
HETATM   18  C   UNL     1     -40.014  51.509 -52.922  1.00  0.00     0.010 A 
HETATM   19  C   UNL     1     -39.586  50.211 -52.553  1.00  0.00     0.152 A 
HETATM   20  N   UNL     1     -39.489  49.379 -53.595  1.00  0.00    -0.187 NA
HETATM   21  N   UNL     1     -39.852  50.142 -54.638  1.00  0.00    -0.289 N 
HETATM   22  H   UNL     1     -39.859  49.723 -55.561  1.00  0.00     0.188 HD
HETATM   23  C   UNL     1     -40.181  51.419 -54.289  1.00  0.00     0.123 A 
ENDBRANCH   3  18
TORSDOF 4
ENDMDL
MODEL 10
REMARK VINA RESULT:      -6.7      2.618      8.416
REMARK  4 active torsions:
REMARK  status: ('A' for Active; 'I' for Inactive)
REMARK    1  A    between atoms: C_2  and  C_3 
REMARK    2  A    between atoms: C_5  and  C_6 
REMARK       I    between atoms: C_6  and  N_7 
REMARK    3  A    between atoms: N_7  and  C_8 
REMARK    4  A    between atoms: C_10  and  C_11 
ROOT
HETATM    1  C   UNL     1     -42.299  56.266 -55.397  1.00  0.00     0.035 A 
HETATM    2  C   UNL     1     -42.823  55.929 -56.648  1.00  0.00     0.042 A 
HETATM    3  C   UNL     1     -43.211  56.924 -57.564  1.00  0.00    -0.021 A 
HETATM    4  C   UNL     1     -43.083  58.269 -57.195  1.00  0.00     0.012 A 
HETATM    5  C   UNL     1     -42.567  58.614 -55.946  1.00  0.00     0.003 A 
HETATM    6  C   UNL     1     -42.174  57.617 -55.054  1.00  0.00     0.029 A 
ENDROOT
BRANCH   1   7
HETATM    7  N   UNL     1     -41.867  55.323 -54.445  1.00  0.00    -0.321 N 
HETATM    8  C   UNL     1     -40.663  54.641 -54.391  1.00  0.00     0.279 C 
HETATM    9  O   UNL     1     -39.763  54.715 -55.221  1.00  0.00    -0.265 OA
HETATM   10  H   UNL     1     -42.506  55.101 -53.689  1.00  0.00     0.169 HD
BRANCH   8  11
HETATM   11  C   UNL     1     -40.559  53.789 -53.219  1.00  0.00     0.143 A 
HETATM   12  O   UNL     1     -40.917  54.287 -51.991  1.00  0.00    -0.310 OA
HETATM   13  C   UNL     1     -40.695  53.301 -51.076  1.00  0.00     0.053 A 
HETATM   14  C   UNL     1     -40.219  52.169 -51.702  1.00  0.00     0.036 A 
HETATM   15  C   UNL     1     -40.128  52.484 -53.078  1.00  0.00     0.045 A 
BRANCH  13  16
HETATM   16  C   UNL     1     -40.985  53.634 -49.660  1.00  0.00     0.060 C 
HETATM   17  C   UNL     1     -39.758  54.204 -48.963  1.00  0.00     0.012 C 
ENDBRANCH  13  16
ENDBRANCH   8  11
ENDBRANCH   1   7
BRANCH   3  18
HETATM   18  C   UNL     1     -43.733  56.577 -58.877  1.00  0.00     0.010 A 
HETATM   19  C   UNL     1     -43.549  55.422 -59.675  1.00  0.00     0.152 A 
HETATM   20  N   UNL     1     -44.226  55.471 -60.827  1.00  0.00    -0.187 NA
HETATM   21  N   UNL     1     -44.846  56.661 -60.774  1.00  0.00    -0.289 N 
HETATM   22  H   UNL     1     -45.434  56.932 -61.553  1.00  0.00     0.188 HD
HETATM   23  C   UNL     1     -44.589  57.356 -59.628  1.00  0.00     0.123 A 
ENDBRANCH   3  18
TORSDOF 4
ENDMDL
