MODEL 1
REMARK VINA RESULT:      -7.7      0.000      0.000
REMARK  5 active torsions:
REMARK  status: ('A' for Active; 'I' for Inactive)
REMARK    1  A    between atoms: C_3  and  N_4 
REMARK       I    between atoms: N_4  and  C_5 
REMARK       I    between atoms: C_5  and  N_6 
REMARK    2  A    between atoms: N_6  and  C_7 
REMARK    3  A    between atoms: C_7  and  C_8 
REMARK    4  A    between atoms: C_8  and  C_9 
REMARK    5  A    between atoms: N_15  and  C_16 
ROOT
HETATM    1  C   UNL     1     -40.577  54.183 -47.801  1.00  0.00     0.054 C 
HETATM    2  C   UNL     1     -40.485  53.900 -49.253  1.00  0.00     0.003 A 
HETATM    3  C   UNL     1     -40.553  54.800 -50.343  1.00  0.00     0.159 A 
HETATM    4  N   UNL     1     -40.392  54.171 -51.508  1.00  0.00    -0.149 NA
HETATM    5  N   UNL     1     -40.263  52.849 -51.203  1.00  0.00    -0.241 N 
HETATM    6  C   UNL     1     -40.260  52.673 -49.840  1.00  0.00     0.129 A 
ENDROOT
BRANCH   3   7
HETATM    7  N   UNL     1     -40.756  56.157 -50.217  1.00  0.00    -0.291 N 
HETATM    8  C   UNL     1     -41.341  57.024 -51.090  1.00  0.00     0.322 C 
HETATM    9  N   UNL     1     -41.703  56.533 -52.305  1.00  0.00    -0.339 N 
HETATM   10  O   UNL     1     -41.494  58.199 -50.762  1.00  0.00    -0.247 OA
HETATM   11  H   UNL     1     -41.684  55.518 -52.370  1.00  0.00     0.164 HD
HETATM   12  H   UNL     1     -40.463  56.596 -49.358  1.00  0.00     0.172 HD
BRANCH   9  13
HETATM   13  C   UNL     1     -42.472  57.302 -53.270  1.00  0.00     0.082 C 
HETATM   14  C   UNL     1     -41.560  58.270 -54.019  1.00  0.00     0.032 C 
BRANCH  13  15
HETATM   15  C   UNL     1     -43.279  56.390 -54.217  1.00  0.00     0.029 C 
BRANCH  15  16
HETATM   16  C   UNL     1     -42.625  55.061 -54.489  1.00  0.00    -0.013 A 
HETATM   17  C   UNL     1     -43.269  54.107 -55.463  1.00  0.00     0.005 A 
HETATM   18  C   UNL     1     -41.976  54.783 -55.822  1.00  0.00     0.005 A 
ENDBRANCH  15  16
ENDBRANCH  13  15
ENDBRANCH   9  13
ENDBRANCH   3   7
BRANCH   5  19
HETATM   19  C   UNL     1     -40.100  51.894 -52.254  1.00  0.00     0.079 A 
HETATM   20  C   UNL     1     -39.709  50.557 -52.072  1.00  0.00     0.062 A 
HETATM   21 CL   UNL     1     -39.527  49.759 -50.549  1.00  0.00    -0.082 Cl
HETATM   22  C   UNL     1     -39.535  49.722 -53.189  1.00  0.00     0.026 A 
HETATM   23  C   UNL     1     -39.764  50.191 -54.482  1.00  0.00     0.002 A 
HETATM   24  C   UNL     1     -40.182  51.500 -54.672  1.00  0.00     0.002 A 
HETATM   25  C   UNL     1     -40.354  52.342 -53.571  1.00  0.00     0.033 A 
ENDBRANCH   5  19
TORSDOF 5
ENDMDL
MODEL 2
REMARK VINA RESULT:      -7.5      3.068      4.219
REMARK  5 active torsions:
REMARK  status: ('A' for Active; 'I' for Inactive)
REMARK    1  A    between atoms: C_3  and  N_4 
REMARK       I    between atoms: N_4  and  C_5 
REMARK       I    between atoms: C_5  and  N_6 
REMARK    2  A    between atoms: N_6  and  C_7 
REMARK    3  A    between atoms: C_7  and  C_8 
REMARK    4  A    between atoms: C_8  and  C_9 
REMARK    5  A    between atoms: N_15  and  C_16 
ROOT
HETATM    1  C   UNL     1     -44.284  57.318 -52.770  1.00  0.00     0.054 C 
HETATM    2  C   UNL     1     -43.088  56.507 -53.100  1.00  0.00     0.003 A 
HETATM    3  C   UNL     1     -41.936  56.875 -53.834  1.00  0.00     0.159 A 
HETATM    4  N   UNL     1     -41.051  55.878 -53.890  1.00  0.00    -0.149 NA
HETATM    5  N   UNL     1     -41.628  54.831 -53.234  1.00  0.00    -0.241 N 
HETATM    6  C   UNL     1     -42.836  55.211 -52.701  1.00  0.00     0.129 A 
ENDROOT
BRANCH   3   7
HETATM    7  N   UNL     1     -41.748  58.110 -54.416  1.00  0.00    -0.291 N 
HETATM    8  C   UNL     1     -42.037  58.517 -55.684  1.00  0.00     0.322 C 
HETATM    9  N   UNL     1     -42.489  57.573 -56.552  1.00  0.00    -0.339 N 
HETATM   10  O   UNL     1     -41.859  59.693 -55.995  1.00  0.00    -0.247 OA
HETATM   11  H   UNL     1     -42.757  56.694 -56.114  1.00  0.00     0.164 HD
HETATM   12  H   UNL     1     -41.367  58.845 -53.841  1.00  0.00     0.172 HD
BRANCH   9  13
HETATM   13  C   UNL     1     -42.979  57.893 -57.883  1.00  0.00     0.082 C 
HETATM   14  C   UNL     1     -41.815  57.980 -58.866  1.00  0.00     0.032 C 
BRANCH  13  15
HETATM   15  C   UNL     1     -44.076  56.911 -58.341  1.00  0.00     0.029 C 
BRANCH  15  16
HETATM   16  C   UNL     1     -43.658  56.013 -59.475  1.00  0.00    -0.013 A 
HETATM   17  C   UNL     1     -44.289  54.652 -59.611  1.00  0.00     0.005 A 
HETATM   18  C   UNL     1     -44.602  55.725 -60.615  1.00  0.00     0.005 A 
ENDBRANCH  15  16
ENDBRANCH  13  15
ENDBRANCH   9  13
ENDBRANCH   3   7
BRANCH   5  19
HETATM   19  C   UNL     1     -40.933  53.586 -53.141  1.00  0.00     0.079 A 
HETATM   20  C   UNL     1     -40.239  53.136 -52.007  1.00  0.00     0.062 A 
HETATM   21 CL   UNL     1     -40.239  53.901 -50.455  1.00  0.00    -0.082 Cl
HETATM   22  C   UNL     1     -39.550  51.911 -52.049  1.00  0.00     0.026 A 
HETATM   23  C   UNL     1     -39.558  51.119 -53.197  1.00  0.00     0.002 A 
HETATM   24  C   UNL     1     -40.267  51.538 -54.313  1.00  0.00     0.002 A 
HETATM   25  C   UNL     1     -40.952  52.756 -54.286  1.00  0.00     0.033 A 
ENDBRANCH   5  19
TORSDOF 5
ENDMDL
MODEL 3
REMARK VINA RESULT:      -7.4      2.857      3.785
REMARK  5 active torsions:
REMARK  status: ('A' for Active; 'I' for Inactive)
REMARK    1  A    between atoms: C_3  and  N_4 
REMARK       I    between atoms: N_4  and  C_5 
REMARK       I    between atoms: C_5  and  N_6 
REMARK    2  A    between atoms: N_6  and  C_7 
REMARK    3  A    between atoms: C_7  and  C_8 
REMARK    4  A    between atoms: C_8  and  C_9 
REMARK    5  A    between atoms: N_15  and  C_16 
ROOT
HETATM    1  C   UNL     1     -42.447  57.779 -51.283  1.00  0.00     0.054 C 
HETATM    2  C   UNL     1     -42.311  56.478 -51.982  1.00  0.00     0.003 A 
HETATM    3  C   UNL     1     -43.101  55.940 -53.025  1.00  0.00     0.159 A 
HETATM    4  N   UNL     1     -42.644  54.751 -53.422  1.00  0.00    -0.149 NA
HETATM    5  N   UNL     1     -41.580  54.473 -52.617  1.00  0.00    -0.241 N 
HETATM    6  C   UNL     1     -41.329  55.532 -51.777  1.00  0.00     0.129 A 
ENDROOT
BRANCH   3   7
HETATM    7  N   UNL     1     -44.202  56.566 -53.567  1.00  0.00    -0.291 N 
HETATM    8  C   UNL     1     -44.393  57.027 -54.834  1.00  0.00     0.322 C 
HETATM    9  N   UNL     1     -43.335  56.961 -55.686  1.00  0.00    -0.339 N 
HETATM   10  O   UNL     1     -45.485  57.498 -55.147  1.00  0.00    -0.247 OA
HETATM   11  H   UNL     1     -42.562  56.389 -55.351  1.00  0.00     0.164 HD
HETATM   12  H   UNL     1     -45.007  56.694 -52.973  1.00  0.00     0.172 HD
BRANCH   9  13
HETATM   13  C   UNL     1     -43.440  57.272 -57.102  1.00  0.00     0.082 C 
HETATM   14  C   UNL     1     -42.457  58.379 -57.472  1.00  0.00     0.032 C 
BRANCH  13  15
HETATM   15  C   UNL     1     -43.279  56.013 -57.979  1.00  0.00     0.029 C 
BRANCH  15  16
HETATM   16  C   UNL     1     -44.365  55.843 -59.008  1.00  0.00    -0.013 A 
HETATM   17  C   UNL     1     -44.034  56.027 -60.467  1.00  0.00     0.005 A 
HETATM   18  C   UNL     1     -44.359  54.658 -59.940  1.00  0.00     0.005 A 
ENDBRANCH  15  16
ENDBRANCH  13  15
ENDBRANCH   9  13
ENDBRANCH   3   7
BRANCH   5  19
HETATM   19  C   UNL     1     -40.878  53.239 -52.774  1.00  0.00     0.079 A 
HETATM   20  C   UNL     1     -40.201  52.562 -51.747  1.00  0.00     0.062 A 
HETATM   21 CL   UNL     1     -40.234  52.983 -50.070  1.00  0.00    -0.082 Cl
HETATM   22  C   UNL     1     -39.503  51.376 -52.033  1.00  0.00     0.026 A 
HETATM   23  C   UNL     1     -39.485  50.843 -53.321  1.00  0.00     0.002 A 
HETATM   24  C   UNL     1     -40.177  51.485 -54.337  1.00  0.00     0.002 A 
HETATM   25  C   UNL     1     -40.871  52.668 -54.068  1.00  0.00     0.033 A 
ENDBRANCH   5  19
TORSDOF 5
ENDMDL
MODEL 4
REMARK VINA RESULT:      -7.1      2.378      4.435
REMARK  5 active torsions:
REMARK  status: ('A' for Active; 'I' for Inactive)
REMARK    1  A    between atoms: C_3  and  N_4 
REMARK       I    between atoms: N_4  and  C_5 
REMARK       I    between atoms: C_5  and  N_6 
REMARK    2  A    between atoms: N_6  and  C_7 
REMARK    3  A    between atoms: C_7  and  C_8 
REMARK    4  A    between atoms: C_8  and  C_9 
REMARK    5  A    between atoms: N_15  and  C_16 
ROOT
HETATM    1  C   UNL     1     -44.171  56.400 -54.380  1.00  0.00     0.054 C 
HETATM    2  C   UNL     1     -42.909  55.683 -54.078  1.00  0.00     0.003 A 
HETATM    3  C   UNL     1     -41.600  56.202 -53.948  1.00  0.00     0.159 A 
HETATM    4  N   UNL     1     -40.723  55.246 -53.634  1.00  0.00    -0.149 NA
HETATM    5  N   UNL     1     -41.435  54.085 -53.600  1.00  0.00    -0.241 N 
HETATM    6  C   UNL     1     -42.769  54.338 -53.811  1.00  0.00     0.129 A 
ENDROOT
BRANCH   3   7
HETATM    7  N   UNL     1     -41.270  57.529 -54.118  1.00  0.00    -0.291 N 
HETATM    8  C   UNL     1     -40.986  58.473 -53.178  1.00  0.00     0.322 C 
HETATM    9  N   UNL     1     -41.131  58.115 -51.874  1.00  0.00    -0.339 N 
HETATM   10  O   UNL     1     -40.640  59.597 -53.537  1.00  0.00    -0.247 OA
HETATM   11  H   UNL     1     -41.245  57.115 -51.724  1.00  0.00     0.164 HD
HETATM   12  H   UNL     1     -41.195  57.875 -55.062  1.00  0.00     0.172 HD
BRANCH   9  13
HETATM   13  C   UNL     1     -40.719  58.967 -50.770  1.00  0.00     0.082 C 
HETATM   14  C   UNL     1     -39.220  59.241 -50.848  1.00  0.00     0.032 C 
BRANCH  13  15
HETATM   15  C   UNL     1     -41.559  60.258 -50.697  1.00  0.00     0.029 C 
BRANCH  15  16
HETATM   16  C   UNL     1     -43.046  60.019 -50.684  1.00  0.00    -0.013 A 
HETATM   17  C   UNL     1     -43.945  61.000 -49.975  1.00  0.00     0.005 A 
HETATM   18  C   UNL     1     -43.973  60.909 -51.474  1.00  0.00     0.005 A 
ENDBRANCH  15  16
ENDBRANCH  13  15
ENDBRANCH   9  13
ENDBRANCH   3   7
BRANCH   5  19
HETATM   19  C   UNL     1     -40.767  52.854 -53.314  1.00  0.00     0.079 A 
HETATM   20  C   UNL     1     -40.124  52.551 -52.103  1.00  0.00     0.062 A 
HETATM   21 CL   UNL     1     -40.167  53.517 -50.669  1.00  0.00    -0.082 Cl
HETATM   22  C   UNL     1     -39.457  51.322 -51.955  1.00  0.00     0.026 A 
HETATM   23  C   UNL     1     -39.437  50.384 -52.986  1.00  0.00     0.002 A 
HETATM   24  C   UNL     1     -40.097  50.659 -54.175  1.00  0.00     0.002 A 
HETATM   25  C   UNL     1     -40.760  51.878 -54.337  1.00  0.00     0.033 A 
ENDBRANCH   5  19
TORSDOF 5
ENDMDL
MODEL 5
REMARK VINA RESULT:      -7.0      3.686      6.578
REMARK  5 active torsions:
REMARK  status: ('A' for Active; 'I' for Inactive)
REMARK    1  A    between atoms: C_3  and  N_4 
REMARK       I    between atoms: N_4  and  C_5 
REMARK       I    between atoms: C_5  and  N_6 
REMARK    2  A    between atoms: N_6  and  C_7 
REMARK    3  A    between atoms: C_7  and  C_8 
REMARK    4  A    between atoms: C_8  and  C_9 
REMARK    5  A    between atoms: N_15  and  C_16 
ROOT
HETATM    1  C   UNL     1     -42.671  61.071 -53.328  1.00  0.00     0.054 C 
HETATM    2  C   UNL     1     -42.434  59.831 -54.105  1.00  0.00     0.003 A 
HETATM    3  C   UNL     1     -41.828  58.622 -53.691  1.00  0.00     0.159 A 
HETATM    4  N   UNL     1     -41.826  57.714 -54.669  1.00  0.00    -0.149 NA
HETATM    5  N   UNL     1     -42.386  58.330 -55.748  1.00  0.00    -0.241 N 
HETATM    6  C   UNL     1     -42.811  59.592 -55.409  1.00  0.00     0.129 A 
ENDROOT
BRANCH   3   7
HETATM    7  N   UNL     1     -41.309  58.405 -52.433  1.00  0.00    -0.291 N 
HETATM    8  C   UNL     1     -41.282  57.257 -51.699  1.00  0.00     0.322 C 
HETATM    9  N   UNL     1     -41.933  56.178 -52.209  1.00  0.00    -0.339 N 
HETATM   10  O   UNL     1     -40.703  57.248 -50.615  1.00  0.00    -0.247 OA
HETATM   11  H   UNL     1     -42.208  56.275 -53.184  1.00  0.00     0.164 HD
HETATM   12  H   UNL     1     -40.856  59.179 -51.973  1.00  0.00     0.172 HD
BRANCH   9  13
HETATM   13  C   UNL     1     -41.858  54.855 -51.612  1.00  0.00     0.082 C 
HETATM   14  C   UNL     1     -43.252  54.244 -51.505  1.00  0.00     0.032 C 
BRANCH  13  15
HETATM   15  C   UNL     1     -40.863  53.944 -52.360  1.00  0.00     0.029 C 
BRANCH  15  16
HETATM   16  C   UNL     1     -41.149  53.807 -53.832  1.00  0.00    -0.013 A 
HETATM   17  C   UNL     1     -40.200  54.421 -54.829  1.00  0.00     0.005 A 
HETATM   18  C   UNL     1     -40.288  52.926 -54.702  1.00  0.00     0.005 A 
ENDBRANCH  15  16
ENDBRANCH  13  15
ENDBRANCH   9  13
ENDBRANCH   3   7
BRANCH   5  19
HETATM   19  C   UNL     1     -42.506  57.620 -56.983  1.00  0.00     0.079 A 
HETATM   20  C   UNL     1     -42.258  58.168 -58.252  1.00  0.00     0.062 A 
HETATM   21 CL   UNL     1     -41.591  59.733 -58.562  1.00  0.00    -0.082 Cl
HETATM   22  C   UNL     1     -42.456  57.384 -59.402  1.00  0.00     0.026 A 
HETATM   23  C   UNL     1     -42.878  56.059 -59.307  1.00  0.00     0.002 A 
HETATM   24  C   UNL     1     -43.094  55.497 -58.058  1.00  0.00     0.002 A 
HETATM   25  C   UNL     1     -42.906  56.266 -56.906  1.00  0.00     0.033 A 
ENDBRANCH   5  19
TORSDOF 5
ENDMDL
MODEL 6
REMARK VINA RESULT:      -6.9      3.615      5.310
REMARK  5 active torsions:
REMARK  status: ('A' for Active; 'I' for Inactive)
REMARK    1  A    between atoms: C_3  and  N_4 
REMARK       I    between atoms: N_4  and  C_5 
REMARK       I    between atoms: C_5  and  N_6 
REMARK    2  A    between atoms: N_6  and  C_7 
REMARK    3  A    between atoms: C_7  and  C_8 
REMARK    4  A    between atoms: C_8  and  C_9 
REMARK    5  A    between atoms: N_15  and  C_16 
ROOT
HETATM    1  C   UNL     1     -44.853  58.086 -54.096  1.00  0.00     0.054 C 
HETATM    2  C   UNL     1     -43.583  57.327 -54.007  1.00  0.00     0.003 A 
HETATM    3  C   UNL     1     -42.331  57.611 -54.601  1.00  0.00     0.159 A 
HETATM    4  N   UNL     1     -41.410  56.708 -54.259  1.00  0.00    -0.149 NA
HETATM    5  N   UNL     1     -42.054  55.797 -53.477  1.00  0.00    -0.241 N 
HETATM    6  C   UNL     1     -43.356  56.186 -53.267  1.00  0.00     0.129 A 
ENDROOT
BRANCH   3   7
HETATM    7  N   UNL     1     -42.090  58.688 -55.426  1.00  0.00    -0.291 N 
HETATM    8  C   UNL     1     -42.288  58.806 -56.768  1.00  0.00     0.322 C 
HETATM    9  N   UNL     1     -42.692  57.693 -57.437  1.00  0.00    -0.339 N 
HETATM   10  O   UNL     1     -42.076  59.885 -57.317  1.00  0.00    -0.247 OA
HETATM   11  H   UNL     1     -43.000  56.931 -56.836  1.00  0.00     0.164 HD
HETATM   12  H   UNL     1     -41.739  59.533 -55.002  1.00  0.00     0.172 HD
BRANCH   9  13
HETATM   13  C   UNL     1     -43.088  57.711 -58.835  1.00  0.00     0.082 C 
HETATM   14  C   UNL     1     -41.885  57.423 -59.728  1.00  0.00     0.032 C 
BRANCH  13  15
HETATM   15  C   UNL     1     -44.274  56.763 -59.108  1.00  0.00     0.029 C 
BRANCH  15  16
HETATM   16  C   UNL     1     -43.930  55.593 -59.990  1.00  0.00    -0.013 A 
HETATM   17  C   UNL     1     -44.504  54.235 -59.674  1.00  0.00     0.005 A 
HETATM   18  C   UNL     1     -44.972  54.979 -60.893  1.00  0.00     0.005 A 
ENDBRANCH  15  16
ENDBRANCH  13  15
ENDBRANCH   9  13
ENDBRANCH   3   7
BRANCH   5  19
HETATM   19  C   UNL     1     -41.337  54.672 -52.965  1.00  0.00     0.079 A 
HETATM   20  C   UNL     1     -40.650  53.732 -53.749  1.00  0.00     0.062 A 
HETATM   21 CL   UNL     1     -40.381  53.844 -55.454  1.00  0.00    -0.082 Cl
HETATM   22  C   UNL     1     -40.020  52.636 -53.134  1.00  0.00     0.026 A 
HETATM   23  C   UNL     1     -40.046  52.473 -51.749  1.00  0.00     0.002 A 
HETATM   24  C   UNL     1     -40.694  53.414 -50.962  1.00  0.00     0.002 A 
HETATM   25  C   UNL     1     -41.329  54.505 -51.560  1.00  0.00     0.033 A 
ENDBRANCH   5  19
TORSDOF 5
ENDMDL
MODEL 7
REMARK VINA RESULT:      -6.8      2.706      4.745
REMARK  5 active torsions:
REMARK  status: ('A' for Active; 'I' for Inactive)
REMARK    1  A    between atoms: C_3  and  N_4 
REMARK       I    between atoms: N_4  and  C_5 
REMARK       I    between atoms: C_5  and  N_6 
REMARK    2  A    between atoms: N_6  and  C_7 
REMARK    3  A    between atoms: C_7  and  C_8 
REMARK    4  A    between atoms: C_8  and  C_9 
REMARK    5  A    between atoms: N_15  and  C_16 
ROOT
HETATM    1  C   UNL     1     -42.852  57.299 -55.153  1.00  0.00     0.054 C 
HETATM    2  C   UNL     1     -42.542  56.126 -54.301  1.00  0.00     0.003 A 
HETATM    3  C   UNL     1     -43.081  55.771 -53.042  1.00  0.00     0.159 A 
HETATM    4  N   UNL     1     -42.577  54.617 -52.601  1.00  0.00    -0.149 NA
HETATM    5  N   UNL     1     -41.670  54.224 -53.539  1.00  0.00    -0.241 N 
HETATM    6  C   UNL     1     -41.676  55.096 -54.602  1.00  0.00     0.129 A 
ENDROOT
BRANCH   3   7
HETATM    7  N   UNL     1     -44.014  56.520 -52.358  1.00  0.00    -0.291 N 
HETATM    8  C   UNL     1     -43.835  57.645 -51.611  1.00  0.00     0.322 C 
HETATM    9  N   UNL     1     -42.556  58.063 -51.415  1.00  0.00    -0.339 N 
HETATM   10  O   UNL     1     -44.813  58.214 -51.134  1.00  0.00    -0.247 OA
HETATM   11  H   UNL     1     -41.868  57.608 -52.012  1.00  0.00     0.164 HD
HETATM   12  H   UNL     1     -44.979  56.235 -52.419  1.00  0.00     0.172 HD
BRANCH   9  13
HETATM   13  C   UNL     1     -42.227  59.325 -50.773  1.00  0.00     0.082 C 
HETATM   14  C   UNL     1     -40.842  59.247 -50.136  1.00  0.00     0.032 C 
BRANCH  13  15
HETATM   15  C   UNL     1     -42.372  60.517 -51.741  1.00  0.00     0.029 C 
BRANCH  15  16
HETATM   16  C   UNL     1     -43.394  61.534 -51.309  1.00  0.00    -0.013 A 
HETATM   17  C   UNL     1     -43.767  61.634 -49.852  1.00  0.00     0.005 A 
HETATM   18  C   UNL     1     -42.982  62.739 -50.500  1.00  0.00     0.005 A 
ENDBRANCH  15  16
ENDBRANCH  13  15
ENDBRANCH   9  13
ENDBRANCH   3   7
BRANCH   5  19
HETATM   19  C   UNL     1     -40.927  53.019 -53.343  1.00  0.00     0.079 A 
HETATM   20  C   UNL     1     -40.148  52.731 -52.211  1.00  0.00     0.062 A 
HETATM   21 CL   UNL     1     -40.078  53.679 -50.766  1.00  0.00    -0.082 Cl
HETATM   22  C   UNL     1     -39.420  51.529 -52.151  1.00  0.00     0.026 A 
HETATM   23  C   UNL     1     -39.472  50.603 -53.193  1.00  0.00     0.002 A 
HETATM   24  C   UNL     1     -40.264  50.863 -54.301  1.00  0.00     0.002 A 
HETATM   25  C   UNL     1     -40.988  52.055 -54.376  1.00  0.00     0.033 A 
ENDBRANCH   5  19
TORSDOF 5
ENDMDL
MODEL 8
REMARK VINA RESULT:      -6.7      2.440      5.082
REMARK  5 active torsions:
REMARK  status: ('A' for Active; 'I' for Inactive)
REMARK    1  A    between atoms: C_3  and  N_4 
REMARK       I    between atoms: N_4  and  C_5 
REMARK       I    between atoms: C_5  and  N_6 
REMARK    2  A    between atoms: N_6  and  C_7 
REMARK    3  A    between atoms: C_7  and  C_8 
REMARK    4  A    between atoms: C_8  and  C_9 
REMARK    5  A    between atoms: N_15  and  C_16 
ROOT
HETATM    1  C   UNL     1     -43.107  55.453 -56.973  1.00  0.00     0.054 C 
HETATM    2  C   UNL     1     -42.403  55.473 -55.669  1.00  0.00     0.003 A 
HETATM    3  C   UNL     1     -41.781  56.558 -55.008  1.00  0.00     0.159 A 
HETATM    4  N   UNL     1     -41.281  56.191 -53.826  1.00  0.00    -0.149 NA
HETATM    5  N   UNL     1     -41.528  54.855 -53.716  1.00  0.00    -0.241 N 
HETATM    6  C   UNL     1     -42.256  54.415 -54.796  1.00  0.00     0.129 A 
ENDROOT
BRANCH   3   7
HETATM    7  N   UNL     1     -41.702  57.836 -55.518  1.00  0.00    -0.291 N 
HETATM    8  C   UNL     1     -42.021  59.020 -54.925  1.00  0.00     0.322 C 
HETATM    9  N   UNL     1     -42.587  58.965 -53.690  1.00  0.00    -0.339 N 
HETATM   10  O   UNL     1     -41.811  60.071 -55.527  1.00  0.00    -0.247 OA
HETATM   11  H   UNL     1     -42.534  58.051 -53.245  1.00  0.00     0.164 HD
HETATM   12  H   UNL     1     -41.338  57.945 -56.452  1.00  0.00     0.172 HD
BRANCH   9  13
HETATM   13  C   UNL     1     -42.835  60.146 -52.881  1.00  0.00     0.082 C 
HETATM   14  C   UNL     1     -44.336  60.368 -52.718  1.00  0.00     0.032 C 
BRANCH  13  15
HETATM   15  C   UNL     1     -42.091  60.083 -51.531  1.00  0.00     0.029 C 
BRANCH  15  16
HETATM   16  C   UNL     1     -40.773  59.358 -51.593  1.00  0.00    -0.013 A 
HETATM   17  C   UNL     1     -39.790  59.514 -50.461  1.00  0.00     0.005 A 
HETATM   18  C   UNL     1     -40.490  58.200 -50.668  1.00  0.00     0.005 A 
ENDBRANCH  15  16
ENDBRANCH  13  15
ENDBRANCH   9  13
ENDBRANCH   3   7
BRANCH   5  19
HETATM   19  C   UNL     1     -41.086  54.148 -52.556  1.00  0.00     0.079 A 
HETATM   20  C   UNL     1     -40.397  52.924 -52.575  1.00  0.00     0.062 A 
HETATM   21 CL   UNL     1     -39.792  52.129 -53.987  1.00  0.00    -0.082 Cl
HETATM   22  C   UNL     1     -40.055  52.297 -51.364  1.00  0.00     0.026 A 
HETATM   23  C   UNL     1     -40.370  52.878 -50.137  1.00  0.00     0.002 A 
HETATM   24  C   UNL     1     -41.021  54.102 -50.106  1.00  0.00     0.002 A 
HETATM   25  C   UNL     1     -41.372  54.735 -51.302  1.00  0.00     0.033 A 
ENDBRANCH   5  19
TORSDOF 5
ENDMDL
MODEL 9
REMARK VINA RESULT:      -6.7      3.769      6.772
REMARK  5 active torsions:
REMARK  status: ('A' for Active; 'I' for Inactive)
REMARK    1  A    between atoms: C_3  and  N_4 
REMARK       I    between atoms: N_4  and  C_5 
REMARK       I    between atoms: C_5  and  N_6 
REMARK    2  A    between atoms: N_6  and  C_7 
REMARK    3  A    between atoms: C_7  and  C_8 
REMARK    4  A    between atoms: C_8  and  C_9 
REMARK    5  A    between atoms: N_15  and  C_16 
ROOT
HETATM    1  C   UNL     1     -43.332  58.242 -52.515  1.00  0.00     0.054 C 
HETATM    2  C   UNL     1     -43.235  57.526 -53.809  1.00  0.00     0.003 A 
HETATM    3  C   UNL     1     -43.399  56.147 -54.079  1.00  0.00     0.159 A 
HETATM    4  N   UNL     1     -43.270  55.883 -55.381  1.00  0.00    -0.149 NA
HETATM    5  N   UNL     1     -42.974  57.074 -55.974  1.00  0.00    -0.241 N 
HETATM    6  C   UNL     1     -43.005  58.088 -55.047  1.00  0.00     0.129 A 
ENDROOT
BRANCH   3   7
HETATM    7  N   UNL     1     -43.663  55.194 -53.120  1.00  0.00    -0.291 N 
HETATM    8  C   UNL     1     -42.793  54.459 -52.372  1.00  0.00     0.322 C 
HETATM    9  N   UNL     1     -41.469  54.592 -52.652  1.00  0.00    -0.339 N 
HETATM   10  O   UNL     1     -43.229  53.703 -51.508  1.00  0.00    -0.247 OA
HETATM   11  H   UNL     1     -41.244  55.378 -53.259  1.00  0.00     0.164 HD
HETATM   12  H   UNL     1     -44.630  55.008 -52.899  1.00  0.00     0.172 HD
BRANCH   9  13
HETATM   13  C   UNL     1     -40.425  53.991 -51.838  1.00  0.00     0.082 C 
HETATM   14  C   UNL     1     -40.605  54.385 -50.375  1.00  0.00     0.032 C 
BRANCH  13  15
HETATM   15  C   UNL     1     -40.350  52.463 -52.039  1.00  0.00     0.029 C 
BRANCH  15  16
HETATM   16  C   UNL     1     -39.826  52.050 -53.389  1.00  0.00    -0.013 A 
HETATM   17  C   UNL     1     -39.495  50.601 -53.641  1.00  0.00     0.005 A 
HETATM   18  C   UNL     1     -40.678  51.227 -54.324  1.00  0.00     0.005 A 
ENDBRANCH  15  16
ENDBRANCH  13  15
ENDBRANCH   9  13
ENDBRANCH   3   7
BRANCH   5  19
HETATM   19  C   UNL     1     -42.746  57.125 -57.384  1.00  0.00     0.079 A 
HETATM   20  C   UNL     1     -42.308  58.258 -58.088  1.00  0.00     0.062 A 
HETATM   21 CL   UNL     1     -41.785  59.746 -57.377  1.00  0.00    -0.082 Cl
HETATM   22  C   UNL     1     -42.165  58.200 -59.485  1.00  0.00     0.026 A 
HETATM   23  C   UNL     1     -42.434  57.028 -60.190  1.00  0.00     0.002 A 
HETATM   24  C   UNL     1     -42.836  55.893 -59.502  1.00  0.00     0.002 A 
HETATM   25  C   UNL     1     -42.987  55.937 -58.113  1.00  0.00     0.033 A 
ENDBRANCH   5  19
TORSDOF 5
ENDMDL
MODEL 10
REMARK VINA RESULT:      -6.7      3.484      6.409
REMARK  5 active torsions:
REMARK  status: ('A' for Active; 'I' for Inactive)
REMARK    1  A    between atoms: C_3  and  N_4 
REMARK       I    between atoms: N_4  and  C_5 
REMARK       I    between atoms: C_5  and  N_6 
REMARK    2  A    between atoms: N_6  and  C_7 
REMARK    3  A    between atoms: C_7  and  C_8 
REMARK    4  A    between atoms: C_8  and  C_9 
REMARK    5  A    between atoms: N_15  and  C_16 
ROOT
HETATM    1  C   UNL     1     -41.227  52.816 -53.805  1.00  0.00     0.054 C 
HETATM    2  C   UNL     1     -41.995  53.913 -54.440  1.00  0.00     0.003 A 
HETATM    3  C   UNL     1     -43.108  54.628 -53.938  1.00  0.00     0.159 A 
HETATM    4  N   UNL     1     -43.508  55.574 -54.790  1.00  0.00    -0.149 NA
HETATM    5  N   UNL     1     -42.695  55.462 -55.878  1.00  0.00    -0.241 N 
HETATM    6  C   UNL     1     -41.738  54.500 -55.660  1.00  0.00     0.129 A 
ENDROOT
BRANCH   3   7
HETATM    7  N   UNL     1     -43.704  54.382 -52.720  1.00  0.00    -0.291 N 
HETATM    8  C   UNL     1     -43.334  54.807 -51.479  1.00  0.00     0.322 C 
HETATM    9  N   UNL     1     -42.165  55.494 -51.381  1.00  0.00    -0.339 N 
HETATM   10  O   UNL     1     -44.044  54.538 -50.513  1.00  0.00    -0.247 OA
HETATM   11  H   UNL     1     -41.780  55.798 -52.273  1.00  0.00     0.164 HD
HETATM   12  H   UNL     1     -44.549  53.833 -52.715  1.00  0.00     0.172 HD
BRANCH   9  13
HETATM   13  C   UNL     1     -41.727  56.137 -50.153  1.00  0.00     0.082 C 
HETATM   14  C   UNL     1     -40.908  55.162 -49.311  1.00  0.00     0.032 C 
BRANCH  13  15
HETATM   15  C   UNL     1     -40.980  57.457 -50.431  1.00  0.00     0.029 C 
BRANCH  15  16
HETATM   16  C   UNL     1     -41.196  58.001 -51.819  1.00  0.00    -0.013 A 
HETATM   17  C   UNL     1     -41.422  59.479 -52.006  1.00  0.00     0.005 A 
HETATM   18  C   UNL     1     -40.143  58.852 -52.482  1.00  0.00     0.005 A 
ENDBRANCH  15  16
ENDBRANCH  13  15
ENDBRANCH   9  13
ENDBRANCH   3   7
BRANCH   5  19
HETATM   19  C   UNL     1     -42.887  56.331 -56.996  1.00  0.00     0.079 A 
HETATM   20  C   UNL     1     -42.762  57.729 -56.959  1.00  0.00     0.062 A 
HETATM   21 CL   UNL     1     -42.179  58.654 -55.619  1.00  0.00    -0.082 Cl
HETATM   22  C   UNL     1     -43.023  58.485 -58.115  1.00  0.00     0.026 A 
HETATM   23  C   UNL     1     -43.389  57.869 -59.312  1.00  0.00     0.002 A 
HETATM   24  C   UNL     1     -43.483  56.487 -59.369  1.00  0.00     0.002 A 
HETATM   25  C   UNL     1     -43.231  55.723 -58.226  1.00  0.00     0.033 A 
ENDBRANCH   5  19
TORSDOF 5
ENDMDL
