MODEL 1
REMARK VINA RESULT:      -8.5      0.000      0.000
REMARK  8 active torsions:
REMARK  status: ('A' for Active; 'I' for Inactive)
REMARK    1  A    between atoms: C_2  and  C_3 
REMARK    2  A    between atoms: C_4  and  O_5 
REMARK    3  A    between atoms: O_5  and  C_6 
REMARK    4  A    between atoms: C_6  and  C_7 
REMARK    5  A    between atoms: C_15  and  O_16 
REMARK    6  A    between atoms: C_17  and  C_18 
REMARK    7  A    between atoms: C_22  and  N_23 
REMARK    8  A    between atoms: C_24  and  C_25 
ROOT
HETATM    1  C   UNL     1     -41.670  58.388 -51.621  1.00  0.00    -0.024 A 
HETATM    2  C   UNL     1     -41.988  57.093 -51.189  1.00  0.00     0.078 A 
HETATM    3  C   UNL     1     -43.312  56.729 -50.929  1.00  0.00     0.074 A 
HETATM    4  C   UNL     1     -44.342  57.642 -51.168  1.00  0.00     0.081 A 
HETATM    5  C   UNL     1     -44.059  58.922 -51.661  1.00  0.00     0.029 A 
HETATM    6  C   UNL     1     -42.720  59.288 -51.871  1.00  0.00     0.026 A 
ENDROOT
BRANCH   5   7
HETATM    7  C   UNL     1     -45.121  59.864 -52.008  1.00  0.00     0.107 A 
HETATM    8  N   UNL     1     -45.556  59.931 -53.280  1.00  0.00    -0.172 NA
HETATM    9  N   UNL     1     -46.505  60.873 -53.251  1.00  0.00    -0.262 N 
HETATM   10  H   UNL     1     -46.992  61.085 -54.112  1.00  0.00     0.191 HD
HETATM   11  C   UNL     1     -46.682  61.461 -52.030  1.00  0.00     0.131 A 
HETATM   12  C   UNL     1     -45.779  60.835 -51.189  1.00  0.00     0.076 A 
BRANCH  11  13
HETATM   13  N   UNL     1     -47.593  62.446 -51.867  1.00  0.00    -0.384 N 
HETATM   14  H   UNL     1     -48.343  62.624 -52.530  1.00  0.00     0.157 HD
HETATM   15  H   UNL     1     -47.779  62.821 -50.938  1.00  0.00     0.157 HD
ENDBRANCH  11  13
BRANCH  12  16
HETATM   16  C   UNL     1     -45.547  61.122 -49.735  1.00  0.00     0.114 A 
HETATM   17  S   UNL     1     -44.623  62.457 -49.151  1.00  0.00    -0.079 SA
HETATM   18  C   UNL     1     -44.891  61.946 -47.542  1.00  0.00     0.078 A 
HETATM   19  C   UNL     1     -45.666  60.805 -47.532  1.00  0.00     0.038 A 
HETATM   20  C   UNL     1     -46.122  60.047 -46.340  1.00  0.00     0.071 C 
HETATM   21  N   UNL     1     -46.032  60.346 -48.785  1.00  0.00    -0.245 NA
ENDBRANCH  12  16
ENDBRANCH   5   7
BRANCH   4  22
HETATM   22  O   UNL     1     -45.635  57.279 -50.896  1.00  0.00    -0.360 OA
HETATM   23  H   UNL     1     -46.238  57.845 -51.403  1.00  0.00     0.217 HD
ENDBRANCH   4  22
BRANCH   1  24
HETATM   24  C   UNL     1     -40.244  58.837 -51.819  1.00  0.00     0.037 C 
HETATM   25  C   UNL     1     -39.675  59.513 -50.579  1.00  0.00     0.010 C 
ENDBRANCH   1  24
BRANCH   2  26
HETATM   26  O   UNL     1     -40.967  56.202 -50.966  1.00  0.00    -0.346 OA
BRANCH  26  27
HETATM   27  C   UNL     1     -41.410  54.848 -51.143  1.00  0.00     0.214 C 
BRANCH  27  28
HETATM   28  C   UNL     1     -41.006  54.337 -52.508  1.00  0.00    -0.034 A 
HETATM   29  C   UNL     1     -40.706  52.982 -52.714  1.00  0.00     0.016 A 
HETATM   30  C   UNL     1     -40.280  52.515 -53.964  1.00  0.00    -0.061 A 
HETATM   31  C   UNL     1     -39.943  51.068 -54.170  1.00  0.00     0.048 C 
HETATM   32  C   UNL     1     -40.133  53.425 -55.017  1.00  0.00     0.007 A 
HETATM   33  C   UNL     1     -40.418  54.777 -54.824  1.00  0.00     0.001 A 
HETATM   34  C   UNL     1     -40.847  55.230 -53.576  1.00  0.00     0.009 A 
ENDBRANCH  27  28
ENDBRANCH  26  27
ENDBRANCH   2  26
TORSDOF 8
ENDMDL
MODEL 2
REMARK VINA RESULT:      -8.5      2.594      4.657
REMARK  8 active torsions:
REMARK  status: ('A' for Active; 'I' for Inactive)
REMARK    1  A    between atoms: C_2  and  C_3 
REMARK    2  A    between atoms: C_4  and  O_5 
REMARK    3  A    between atoms: O_5  and  C_6 
REMARK    4  A    between atoms: C_6  and  C_7 
REMARK    5  A    between atoms: C_15  and  O_16 
REMARK    6  A    between atoms: C_17  and  C_18 
REMARK    7  A    between atoms: C_22  and  N_23 
REMARK    8  A    between atoms: C_24  and  C_25 
ROOT
HETATM    1  C   UNL     1     -42.634  55.317 -53.333  1.00  0.00    -0.024 A 
HETATM    2  C   UNL     1     -41.497  55.293 -52.513  1.00  0.00     0.078 A 
HETATM    3  C   UNL     1     -41.290  56.281 -51.546  1.00  0.00     0.074 A 
HETATM    4  C   UNL     1     -42.260  57.266 -51.342  1.00  0.00     0.081 A 
HETATM    5  C   UNL     1     -43.436  57.276 -52.103  1.00  0.00     0.029 A 
HETATM    6  C   UNL     1     -43.606  56.306 -53.104  1.00  0.00     0.026 A 
ENDROOT
BRANCH   5   7
HETATM    7  C   UNL     1     -44.507  58.236 -51.849  1.00  0.00     0.107 A 
HETATM    8  N   UNL     1     -45.338  58.042 -50.808  1.00  0.00    -0.172 NA
HETATM    9  N   UNL     1     -46.181  59.078 -50.864  1.00  0.00    -0.262 N 
HETATM   10  H   UNL     1     -46.898  59.148 -50.155  1.00  0.00     0.191 HD
HETATM   11  C   UNL     1     -45.974  59.920 -51.921  1.00  0.00     0.131 A 
HETATM   12  C   UNL     1     -44.892  59.392 -52.602  1.00  0.00     0.076 A 
BRANCH  11  13
HETATM   13  N   UNL     1     -46.772  60.994 -52.112  1.00  0.00    -0.384 N 
HETATM   14  H   UNL     1     -46.628  61.883 -51.640  1.00  0.00     0.157 HD
HETATM   15  H   UNL     1     -47.326  61.075 -52.963  1.00  0.00     0.157 HD
ENDBRANCH  11  13
BRANCH  12  16
HETATM   16  C   UNL     1     -44.264  59.923 -53.857  1.00  0.00     0.114 A 
HETATM   17  S   UNL     1     -42.601  60.361 -53.992  1.00  0.00    -0.079 SA
HETATM   18  C   UNL     1     -42.851  60.832 -55.617  1.00  0.00     0.078 A 
HETATM   19  C   UNL     1     -44.169  60.627 -55.969  1.00  0.00     0.038 A 
HETATM   20  C   UNL     1     -44.793  60.907 -57.287  1.00  0.00     0.071 C 
HETATM   21  N   UNL     1     -44.962  60.112 -54.960  1.00  0.00    -0.245 NA
ENDBRANCH  12  16
ENDBRANCH   5   7
BRANCH   4  22
HETATM   22  O   UNL     1     -42.041  58.237 -50.401  1.00  0.00    -0.360 OA
HETATM   23  H   UNL     1     -42.612  58.998 -50.588  1.00  0.00     0.217 HD
ENDBRANCH   4  22
BRANCH   1  24
HETATM   24  C   UNL     1     -42.837  54.321 -54.447  1.00  0.00     0.037 C 
HETATM   25  C   UNL     1     -42.463  54.893 -55.807  1.00  0.00     0.010 C 
ENDBRANCH   1  24
BRANCH   2  26
HETATM   26  O   UNL     1     -40.556  54.315 -52.717  1.00  0.00    -0.346 OA
BRANCH  26  27
HETATM   27  C   UNL     1     -40.273  53.604 -51.503  1.00  0.00     0.214 C 
BRANCH  27  28
HETATM   28  C   UNL     1     -39.996  52.146 -51.801  1.00  0.00    -0.034 A 
HETATM   29  C   UNL     1     -39.932  51.677 -53.122  1.00  0.00     0.016 A 
HETATM   30  C   UNL     1     -39.729  50.319 -53.400  1.00  0.00    -0.061 A 
HETATM   31  C   UNL     1     -39.682  49.823 -54.815  1.00  0.00     0.048 C 
HETATM   32  C   UNL     1     -39.608  49.417 -52.337  1.00  0.00     0.007 A 
HETATM   33  C   UNL     1     -39.678  49.868 -51.019  1.00  0.00     0.001 A 
HETATM   34  C   UNL     1     -39.876  51.224 -50.753  1.00  0.00     0.009 A 
ENDBRANCH  27  28
ENDBRANCH  26  27
ENDBRANCH   2  26
TORSDOF 8
ENDMDL
MODEL 3
REMARK VINA RESULT:      -8.5      2.395      3.904
REMARK  8 active torsions:
REMARK  status: ('A' for Active; 'I' for Inactive)
REMARK    1  A    between atoms: C_2  and  C_3 
REMARK    2  A    between atoms: C_4  and  O_5 
REMARK    3  A    between atoms: O_5  and  C_6 
REMARK    4  A    between atoms: C_6  and  C_7 
REMARK    5  A    between atoms: C_15  and  O_16 
REMARK    6  A    between atoms: C_17  and  C_18 
REMARK    7  A    between atoms: C_22  and  N_23 
REMARK    8  A    between atoms: C_24  and  C_25 
ROOT
HETATM    1  C   UNL     1     -42.102  55.162 -52.630  1.00  0.00    -0.024 A 
HETATM    2  C   UNL     1     -41.514  55.081 -51.360  1.00  0.00     0.078 A 
HETATM    3  C   UNL     1     -41.007  56.221 -50.731  1.00  0.00     0.074 A 
HETATM    4  C   UNL     1     -41.147  57.470 -51.342  1.00  0.00     0.081 A 
HETATM    5  C   UNL     1     -41.787  57.590 -52.582  1.00  0.00     0.029 A 
HETATM    6  C   UNL     1     -42.248  56.428 -53.222  1.00  0.00     0.026 A 
ENDROOT
BRANCH   5   7
HETATM    7  C   UNL     1     -42.031  58.891 -53.199  1.00  0.00     0.107 A 
HETATM    8  N   UNL     1     -41.301  59.264 -54.267  1.00  0.00    -0.172 NA
HETATM    9  N   UNL     1     -41.767  60.479 -54.573  1.00  0.00    -0.262 N 
HETATM   10  H   UNL     1     -41.366  60.956 -55.369  1.00  0.00     0.191 HD
HETATM   11  C   UNL     1     -42.737  60.943 -53.728  1.00  0.00     0.131 A 
HETATM   12  C   UNL     1     -42.927  59.934 -52.802  1.00  0.00     0.076 A 
BRANCH  11  13
HETATM   13  N   UNL     1     -43.277  62.169 -53.908  1.00  0.00    -0.384 N 
HETATM   14  H   UNL     1     -43.498  62.796 -53.140  1.00  0.00     0.157 HD
HETATM   15  H   UNL     1     -43.173  62.647 -54.802  1.00  0.00     0.157 HD
ENDBRANCH  11  13
BRANCH  12  16
HETATM   16  C   UNL     1     -43.871  59.941 -51.635  1.00  0.00     0.114 A 
HETATM   17  S   UNL     1     -45.099  58.757 -51.382  1.00  0.00    -0.079 SA
HETATM   18  C   UNL     1     -45.603  59.572 -49.967  1.00  0.00     0.078 A 
HETATM   19  C   UNL     1     -44.815  60.686 -49.759  1.00  0.00     0.038 A 
HETATM   20  C   UNL     1     -44.924  61.660 -48.644  1.00  0.00     0.071 C 
HETATM   21  N   UNL     1     -43.835  60.885 -50.715  1.00  0.00    -0.245 NA
ENDBRANCH  12  16
ENDBRANCH   5   7
BRANCH   4  22
HETATM   22  O   UNL     1     -40.633  58.580 -50.723  1.00  0.00    -0.360 OA
HETATM   23  H   UNL     1     -40.899  59.371 -51.215  1.00  0.00     0.217 HD
ENDBRANCH   4  22
BRANCH   1  24
HETATM   24  C   UNL     1     -42.573  53.936 -53.373  1.00  0.00     0.037 C 
HETATM   25  C   UNL     1     -42.084  53.912 -54.814  1.00  0.00     0.010 C 
ENDBRANCH   1  24
BRANCH   2  26
HETATM   26  O   UNL     1     -41.391  53.849 -50.766  1.00  0.00    -0.346 OA
BRANCH  26  27
HETATM   27  C   UNL     1     -40.019  53.431 -50.717  1.00  0.00     0.214 C 
BRANCH  27  28
HETATM   28  C   UNL     1     -39.878  52.025 -51.259  1.00  0.00    -0.034 A 
HETATM   29  C   UNL     1     -39.757  51.790 -52.638  1.00  0.00     0.016 A 
HETATM   30  C   UNL     1     -39.681  50.487 -53.147  1.00  0.00    -0.061 A 
HETATM   31  C   UNL     1     -39.571  50.244 -54.623  1.00  0.00     0.048 C 
HETATM   32  C   UNL     1     -39.748  49.405 -52.261  1.00  0.00     0.007 A 
HETATM   33  C   UNL     1     -39.877  49.624 -50.890  1.00  0.00     0.001 A 
HETATM   34  C   UNL     1     -39.947  50.926 -50.393  1.00  0.00     0.009 A 
ENDBRANCH  27  28
ENDBRANCH  26  27
ENDBRANCH   2  26
TORSDOF 8
ENDMDL
MODEL 4
REMARK VINA RESULT:      -8.3      5.089      7.325
REMARK  8 active torsions:
REMARK  status: ('A' for Active; 'I' for Inactive)
REMARK    1  A    between atoms: C_2  and  C_3 
REMARK    2  A    between atoms: C_4  and  O_5 
REMARK    3  A    between atoms: O_5  and  C_6 
REMARK    4  A    between atoms: C_6  and  C_7 
REMARK    5  A    between atoms: C_15  and  O_16 
REMARK    6  A    between atoms: C_17  and  C_18 
REMARK    7  A    between atoms: C_22  and  N_23 
REMARK    8  A    between atoms: C_24  and  C_25 
ROOT
HETATM    1  C   UNL     1     -42.327  55.316 -54.937  1.00  0.00    -0.024 A 
HETATM    2  C   UNL     1     -43.254  55.605 -53.926  1.00  0.00     0.078 A 
HETATM    3  C   UNL     1     -43.833  56.873 -53.826  1.00  0.00     0.074 A 
HETATM    4  C   UNL     1     -43.541  57.847 -54.785  1.00  0.00     0.081 A 
HETATM    5  C   UNL     1     -42.669  57.565 -55.844  1.00  0.00     0.029 A 
HETATM    6  C   UNL     1     -42.057  56.302 -55.901  1.00  0.00     0.026 A 
ENDROOT
BRANCH   5   7
HETATM    7  C   UNL     1     -42.418  58.530 -56.911  1.00  0.00     0.107 A 
HETATM    8  N   UNL     1     -41.771  59.676 -56.628  1.00  0.00    -0.172 NA
HETATM    9  N   UNL     1     -41.713  60.317 -57.801  1.00  0.00    -0.262 N 
HETATM   10  H   UNL     1     -41.247  61.213 -57.831  1.00  0.00     0.191 HD
HETATM   11  C   UNL     1     -42.332  59.667 -58.832  1.00  0.00     0.131 A 
HETATM   12  C   UNL     1     -42.822  58.495 -58.284  1.00  0.00     0.076 A 
BRANCH  11  13
HETATM   13  N   UNL     1     -42.369  60.215 -60.067  1.00  0.00    -0.384 N 
HETATM   14  H   UNL     1     -41.533  60.415 -60.610  1.00  0.00     0.157 HD
HETATM   15  H   UNL     1     -43.210  60.138 -60.635  1.00  0.00     0.157 HD
ENDBRANCH  11  13
BRANCH  12  16
HETATM   16  C   UNL     1     -43.606  57.426 -58.985  1.00  0.00     0.114 A 
HETATM   17  S   UNL     1     -42.907  55.992 -59.643  1.00  0.00    -0.079 SA
HETATM   18  C   UNL     1     -44.444  55.491 -60.200  1.00  0.00     0.078 A 
HETATM   19  C   UNL     1     -45.398  56.426 -59.854  1.00  0.00     0.038 A 
HETATM   20  C   UNL     1     -46.852  56.367 -60.151  1.00  0.00     0.071 C 
HETATM   21  N   UNL     1     -44.909  57.521 -59.166  1.00  0.00    -0.245 NA
ENDBRANCH  12  16
ENDBRANCH   5   7
BRANCH   4  22
HETATM   22  O   UNL     1     -44.105  59.091 -54.670  1.00  0.00    -0.360 OA
HETATM   23  H   UNL     1     -44.822  59.056 -54.019  1.00  0.00     0.217 HD
ENDBRANCH   4  22
BRANCH   1  24
HETATM   24  C   UNL     1     -41.615  53.988 -55.014  1.00  0.00     0.037 C 
HETATM   25  C   UNL     1     -40.101  54.145 -55.014  1.00  0.00     0.010 C 
ENDBRANCH   1  24
BRANCH   2  26
HETATM   26  O   UNL     1     -43.539  54.637 -52.995  1.00  0.00    -0.346 OA
BRANCH  26  27
HETATM   27  C   UNL     1     -43.425  55.150 -51.660  1.00  0.00     0.214 C 
BRANCH  27  28
HETATM   28  C   UNL     1     -42.153  54.647 -51.011  1.00  0.00    -0.034 A 
HETATM   29  C   UNL     1     -41.434  53.576 -51.565  1.00  0.00     0.016 A 
HETATM   30  C   UNL     1     -40.286  53.073 -50.938  1.00  0.00    -0.061 A 
HETATM   31  C   UNL     1     -39.534  51.916 -51.526  1.00  0.00     0.048 C 
HETATM   32  C   UNL     1     -39.868  53.639 -49.728  1.00  0.00     0.007 A 
HETATM   33  C   UNL     1     -40.578  54.697 -49.162  1.00  0.00     0.001 A 
HETATM   34  C   UNL     1     -41.717  55.194 -49.797  1.00  0.00     0.009 A 
ENDBRANCH  27  28
ENDBRANCH  26  27
ENDBRANCH   2  26
TORSDOF 8
ENDMDL
MODEL 5
REMARK VINA RESULT:      -8.3      3.380      5.357
REMARK  8 active torsions:
REMARK  status: ('A' for Active; 'I' for Inactive)
REMARK    1  A    between atoms: C_2  and  C_3 
REMARK    2  A    between atoms: C_4  and  O_5 
REMARK    3  A    between atoms: O_5  and  C_6 
REMARK    4  A    between atoms: C_6  and  C_7 
REMARK    5  A    between atoms: C_15  and  O_16 
REMARK    6  A    between atoms: C_17  and  C_18 
REMARK    7  A    between atoms: C_22  and  N_23 
REMARK    8  A    between atoms: C_24  and  C_25 
ROOT
HETATM    1  C   UNL     1     -41.845  56.780 -52.114  1.00  0.00    -0.024 A 
HETATM    2  C   UNL     1     -42.126  55.486 -52.576  1.00  0.00     0.078 A 
HETATM    3  C   UNL     1     -43.222  55.245 -53.409  1.00  0.00     0.074 A 
HETATM    4  C   UNL     1     -44.009  56.313 -53.846  1.00  0.00     0.081 A 
HETATM    5  C   UNL     1     -43.713  57.625 -53.452  1.00  0.00     0.029 A 
HETATM    6  C   UNL     1     -42.639  57.844 -52.575  1.00  0.00     0.026 A 
ENDROOT
BRANCH   5   7
HETATM    7  C   UNL     1     -44.461  58.769 -53.967  1.00  0.00     0.107 A 
HETATM    8  N   UNL     1     -45.376  59.369 -53.184  1.00  0.00    -0.172 NA
HETATM    9  N   UNL     1     -45.865  60.353 -53.946  1.00  0.00    -0.262 N 
HETATM   10  H   UNL     1     -46.571  60.957 -53.549  1.00  0.00     0.191 HD
HETATM   11  C   UNL     1     -45.348  60.400 -55.211  1.00  0.00     0.131 A 
HETATM   12  C   UNL     1     -44.432  59.364 -55.269  1.00  0.00     0.076 A 
BRANCH  11  13
HETATM   13  N   UNL     1     -45.772  61.330 -56.094  1.00  0.00    -0.384 N 
HETATM   14  H   UNL     1     -46.137  61.098 -57.013  1.00  0.00     0.157 HD
HETATM   15  H   UNL     1     -46.063  62.250 -55.766  1.00  0.00     0.157 HD
ENDBRANCH  11  13
BRANCH  12  16
HETATM   16  C   UNL     1     -43.596  58.960 -56.447  1.00  0.00     0.114 A 
HETATM   17  S   UNL     1     -42.325  59.925 -57.103  1.00  0.00    -0.079 SA
HETATM   18  C   UNL     1     -42.042  58.745 -58.307  1.00  0.00     0.078 A 
HETATM   19  C   UNL     1     -42.913  57.688 -58.145  1.00  0.00     0.038 A 
HETATM   20  C   UNL     1     -42.995  56.464 -58.981  1.00  0.00     0.071 C 
HETATM   21  N   UNL     1     -43.792  57.823 -57.086  1.00  0.00    -0.245 NA
ENDBRANCH  12  16
ENDBRANCH   5   7
BRANCH   4  22
HETATM   22  O   UNL     1     -45.089  56.064 -54.652  1.00  0.00    -0.360 OA
HETATM   23  H   UNL     1     -45.855  55.845 -54.099  1.00  0.00     0.217 HD
ENDBRANCH   4  22
BRANCH   1  24
HETATM   24  C   UNL     1     -40.728  57.056 -51.139  1.00  0.00     0.037 C 
HETATM   25  C   UNL     1     -40.936  58.357 -50.377  1.00  0.00     0.010 C 
ENDBRANCH   1  24
BRANCH   2  26
HETATM   26  O   UNL     1     -41.339  54.446 -52.146  1.00  0.00    -0.346 OA
BRANCH  26  27
HETATM   27  C   UNL     1     -40.394  54.059 -53.153  1.00  0.00     0.214 C 
BRANCH  27  28
HETATM   28  C   UNL     1     -40.216  52.556 -53.156  1.00  0.00    -0.034 A 
HETATM   29  C   UNL     1     -39.914  51.861 -51.975  1.00  0.00     0.016 A 
HETATM   30  C   UNL     1     -39.697  50.477 -51.984  1.00  0.00    -0.061 A 
HETATM   31  C   UNL     1     -39.356  49.744 -50.721  1.00  0.00     0.048 C 
HETATM   32  C   UNL     1     -39.763  49.785 -53.199  1.00  0.00     0.007 A 
HETATM   33  C   UNL     1     -40.053  50.465 -54.382  1.00  0.00     0.001 A 
HETATM   34  C   UNL     1     -40.273  51.842 -54.361  1.00  0.00     0.009 A 
ENDBRANCH  27  28
ENDBRANCH  26  27
ENDBRANCH   2  26
TORSDOF 8
ENDMDL
MODEL 6
REMARK VINA RESULT:      -8.3      2.430      3.558
REMARK  8 active torsions:
REMARK  status: ('A' for Active; 'I' for Inactive)
REMARK    1  A    between atoms: C_2  and  C_3 
REMARK    2  A    between atoms: C_4  and  O_5 
REMARK    3  A    between atoms: O_5  and  C_6 
REMARK    4  A    between atoms: C_6  and  C_7 
REMARK    5  A    between atoms: C_15  and  O_16 
REMARK    6  A    between atoms: C_17  and  C_18 
REMARK    7  A    between atoms: C_22  and  N_23 
REMARK    8  A    between atoms: C_24  and  C_25 
ROOT
HETATM    1  C   UNL     1     -41.910  56.076 -51.457  1.00  0.00    -0.024 A 
HETATM    2  C   UNL     1     -42.054  54.701 -51.690  1.00  0.00     0.078 A 
HETATM    3  C   UNL     1     -42.945  54.226 -52.656  1.00  0.00     0.074 A 
HETATM    4  C   UNL     1     -43.652  55.132 -53.452  1.00  0.00     0.081 A 
HETATM    5  C   UNL     1     -43.480  56.512 -53.285  1.00  0.00     0.029 A 
HETATM    6  C   UNL     1     -42.619  56.972 -52.277  1.00  0.00     0.026 A 
ENDROOT
BRANCH   5   7
HETATM    7  C   UNL     1     -44.135  57.479 -54.163  1.00  0.00     0.107 A 
HETATM    8  N   UNL     1     -44.150  57.263 -55.491  1.00  0.00    -0.172 NA
HETATM    9  N   UNL     1     -44.810  58.315 -55.986  1.00  0.00    -0.262 N 
HETATM   10  H   UNL     1     -44.958  58.358 -56.985  1.00  0.00     0.191 HD
HETATM   11  C   UNL     1     -45.189  59.237 -55.050  1.00  0.00     0.131 A 
HETATM   12  C   UNL     1     -44.749  58.731 -53.840  1.00  0.00     0.076 A 
BRANCH  11  13
HETATM   13  N   UNL     1     -45.842  60.362 -55.418  1.00  0.00    -0.384 N 
HETATM   14  H   UNL     1     -45.725  61.252 -54.942  1.00  0.00     0.157 HD
HETATM   15  H   UNL     1     -46.205  60.456 -56.365  1.00  0.00     0.157 HD
ENDBRANCH  11  13
BRANCH  12  16
HETATM   16  C   UNL     1     -44.890  59.366 -52.488  1.00  0.00     0.114 A 
HETATM   17  S   UNL     1     -45.647  58.602 -51.139  1.00  0.00    -0.079 SA
HETATM   18  C   UNL     1     -45.369  59.994 -50.187  1.00  0.00     0.078 A 
HETATM   19  C   UNL     1     -44.715  60.953 -50.933  1.00  0.00     0.038 A 
HETATM   20  C   UNL     1     -44.292  62.301 -50.479  1.00  0.00     0.071 C 
HETATM   21  N   UNL     1     -44.450  60.584 -52.240  1.00  0.00    -0.245 NA
ENDBRANCH  12  16
ENDBRANCH   5   7
BRANCH   4  22
HETATM   22  O   UNL     1     -44.533  54.655 -54.387  1.00  0.00    -0.360 OA
HETATM   23  H   UNL     1     -44.099  54.639 -55.254  1.00  0.00     0.217 HD
ENDBRANCH   4  22
BRANCH   1  24
HETATM   24  C   UNL     1     -41.029  56.613 -50.358  1.00  0.00     0.037 C 
HETATM   25  C   UNL     1     -40.767  58.106 -50.506  1.00  0.00     0.010 C 
ENDBRANCH   1  24
BRANCH   2  26
HETATM   26  O   UNL     1     -41.346  53.821 -50.907  1.00  0.00    -0.346 OA
BRANCH  26  27
HETATM   27  C   UNL     1     -40.042  53.575 -51.452  1.00  0.00     0.214 C 
BRANCH  27  28
HETATM   28  C   UNL     1     -39.873  52.105 -51.766  1.00  0.00    -0.034 A 
HETATM   29  C   UNL     1     -39.786  51.654 -53.093  1.00  0.00     0.016 A 
HETATM   30  C   UNL     1     -39.683  50.288 -53.389  1.00  0.00    -0.061 A 
HETATM   31  C   UNL     1     -39.610  49.814 -54.810  1.00  0.00     0.048 C 
HETATM   32  C   UNL     1     -39.689  49.362 -52.340  1.00  0.00     0.007 A 
HETATM   33  C   UNL     1     -39.784  49.795 -51.018  1.00  0.00     0.001 A 
HETATM   34  C   UNL     1     -39.881  51.158 -50.733  1.00  0.00     0.009 A 
ENDBRANCH  27  28
ENDBRANCH  26  27
ENDBRANCH   2  26
TORSDOF 8
ENDMDL
MODEL 7
REMARK VINA RESULT:      -8.1      4.605      6.440
REMARK  8 active torsions:
REMARK  status: ('A' for Active; 'I' for Inactive)
REMARK    1  A    between atoms: C_2  and  C_3 
REMARK    2  A    between atoms: C_4  and  O_5 
REMARK    3  A    between atoms: O_5  and  C_6 
REMARK    4  A    between atoms: C_6  and  C_7 
REMARK    5  A    between atoms: C_15  and  O_16 
REMARK    6  A    between atoms: C_17  and  C_18 
REMARK    7  A    between atoms: C_22  and  N_23 
REMARK    8  A    between atoms: C_24  and  C_25 
ROOT
HETATM    1  C   UNL     1     -42.934  55.988 -54.031  1.00  0.00    -0.024 A 
HETATM    2  C   UNL     1     -41.929  55.915 -53.058  1.00  0.00     0.078 A 
HETATM    3  C   UNL     1     -41.056  56.987 -52.847  1.00  0.00     0.074 A 
HETATM    4  C   UNL     1     -41.228  58.173 -53.565  1.00  0.00     0.081 A 
HETATM    5  C   UNL     1     -42.265  58.297 -54.499  1.00  0.00     0.029 A 
HETATM    6  C   UNL     1     -43.102  57.194 -54.733  1.00  0.00     0.026 A 
ENDROOT
BRANCH   5   7
HETATM    7  C   UNL     1     -42.526  59.554 -55.195  1.00  0.00     0.107 A 
HETATM    8  N   UNL     1     -42.355  60.720 -54.544  1.00  0.00    -0.172 NA
HETATM    9  N   UNL     1     -42.676  61.650 -55.449  1.00  0.00    -0.262 N 
HETATM   10  H   UNL     1     -42.605  62.622 -55.179  1.00  0.00     0.191 HD
HETATM   11  C   UNL     1     -43.094  61.151 -56.651  1.00  0.00     0.131 A 
HETATM   12  C   UNL     1     -43.025  59.775 -56.518  1.00  0.00     0.076 A 
BRANCH  11  13
HETATM   13  N   UNL     1     -43.472  61.982 -57.647  1.00  0.00    -0.384 N 
HETATM   14  H   UNL     1     -43.053  62.896 -57.796  1.00  0.00     0.157 HD
HETATM   15  H   UNL     1     -43.931  61.610 -58.477  1.00  0.00     0.157 HD
ENDBRANCH  11  13
BRANCH  12  16
HETATM   16  C   UNL     1     -43.395  58.747 -57.546  1.00  0.00     0.114 A 
HETATM   17  S   UNL     1     -45.020  58.336 -57.956  1.00  0.00    -0.079 SA
HETATM   18  C   UNL     1     -44.450  57.172 -59.072  1.00  0.00     0.078 A 
HETATM   19  C   UNL     1     -43.071  57.163 -59.080  1.00  0.00     0.038 A 
HETATM   20  C   UNL     1     -42.190  56.300 -59.907  1.00  0.00     0.071 C 
HETATM   21  N   UNL     1     -42.483  58.061 -58.207  1.00  0.00    -0.245 NA
ENDBRANCH  12  16
ENDBRANCH   5   7
BRANCH   4  22
HETATM   22  O   UNL     1     -40.358  59.212 -53.361  1.00  0.00    -0.360 OA
HETATM   23  H   UNL     1     -39.589  58.891 -52.866  1.00  0.00     0.217 HD
ENDBRANCH   4  22
BRANCH   1  24
HETATM   24  C   UNL     1     -43.829  54.816 -54.346  1.00  0.00     0.037 C 
HETATM   25  C   UNL     1     -43.328  54.011 -55.537  1.00  0.00     0.010 C 
ENDBRANCH   1  24
BRANCH   2  26
HETATM   26  O   UNL     1     -41.776  54.747 -52.352  1.00  0.00    -0.346 OA
BRANCH  26  27
HETATM   27  C   UNL     1     -40.394  54.371 -52.263  1.00  0.00     0.214 C 
BRANCH  27  28
HETATM   28  C   UNL     1     -40.224  52.908 -52.610  1.00  0.00    -0.034 A 
HETATM   29  C   UNL     1     -39.888  51.966 -51.625  1.00  0.00     0.016 A 
HETATM   30  C   UNL     1     -39.678  50.619 -51.952  1.00  0.00    -0.061 A 
HETATM   31  C   UNL     1     -39.299  49.623 -50.897  1.00  0.00     0.048 C 
HETATM   32  C   UNL     1     -39.786  50.219 -53.289  1.00  0.00     0.007 A 
HETATM   33  C   UNL     1     -40.111  51.146 -54.278  1.00  0.00     0.001 A 
HETATM   34  C   UNL     1     -40.323  52.484 -53.941  1.00  0.00     0.009 A 
ENDBRANCH  27  28
ENDBRANCH  26  27
ENDBRANCH   2  26
TORSDOF 8
ENDMDL
MODEL 8
REMARK VINA RESULT:      -8.1      4.080      6.093
REMARK  8 active torsions:
REMARK  status: ('A' for Active; 'I' for Inactive)
REMARK    1  A    between atoms: C_2  and  C_3 
REMARK    2  A    between atoms: C_4  and  O_5 
REMARK    3  A    between atoms: O_5  and  C_6 
REMARK    4  A    between atoms: C_6  and  C_7 
REMARK    5  A    between atoms: C_15  and  O_16 
REMARK    6  A    between atoms: C_17  and  C_18 
REMARK    7  A    between atoms: C_22  and  N_23 
REMARK    8  A    between atoms: C_24  and  C_25 
ROOT
HETATM    1  C   UNL     1     -41.579  57.842 -53.584  1.00  0.00    -0.024 A 
HETATM    2  C   UNL     1     -41.879  56.512 -53.258  1.00  0.00     0.078 A 
HETATM    3  C   UNL     1     -43.122  55.959 -53.577  1.00  0.00     0.074 A 
HETATM    4  C   UNL     1     -44.055  56.716 -54.291  1.00  0.00     0.081 A 
HETATM    5  C   UNL     1     -43.757  58.026 -54.686  1.00  0.00     0.029 A 
HETATM    6  C   UNL     1     -42.523  58.583 -54.315  1.00  0.00     0.026 A 
ENDROOT
BRANCH   5   7
HETATM    7  C   UNL     1     -44.675  58.807 -55.513  1.00  0.00     0.107 A 
HETATM    8  N   UNL     1     -45.471  59.724 -54.933  1.00  0.00    -0.172 NA
HETATM    9  N   UNL     1     -46.168  60.241 -55.950  1.00  0.00    -0.262 N 
HETATM   10  H   UNL     1     -46.833  60.976 -55.747  1.00  0.00     0.191 HD
HETATM   11  C   UNL     1     -45.902  59.675 -57.165  1.00  0.00     0.131 A 
HETATM   12  C   UNL     1     -44.936  58.716 -56.917  1.00  0.00     0.076 A 
BRANCH  11  13
HETATM   13  N   UNL     1     -46.555  60.087 -58.274  1.00  0.00    -0.384 N 
HETATM   14  H   UNL     1     -46.295  59.796 -59.212  1.00  0.00     0.157 HD
HETATM   15  H   UNL     1     -47.516  60.418 -58.208  1.00  0.00     0.157 HD
ENDBRANCH  11  13
BRANCH  12  16
HETATM   16  C   UNL     1     -44.306  57.787 -57.913  1.00  0.00     0.114 A 
HETATM   17  S   UNL     1     -42.610  57.490 -58.015  1.00  0.00    -0.079 SA
HETATM   18  C   UNL     1     -42.867  56.437 -59.337  1.00  0.00     0.078 A 
HETATM   19  C   UNL     1     -44.215  56.360 -59.623  1.00  0.00     0.038 A 
HETATM   20  C   UNL     1     -44.855  55.557 -60.695  1.00  0.00     0.071 C 
HETATM   21  N   UNL     1     -45.022  57.133 -58.807  1.00  0.00    -0.245 NA
ENDBRANCH  12  16
ENDBRANCH   5   7
BRANCH   4  22
HETATM   22  O   UNL     1     -45.276  56.168 -54.587  1.00  0.00    -0.360 OA
HETATM   23  H   UNL     1     -45.968  56.664 -54.123  1.00  0.00     0.217 HD
ENDBRANCH   4  22
BRANCH   1  24
HETATM   24  C   UNL     1     -40.283  58.495 -53.169  1.00  0.00     0.037 C 
HETATM   25  C   UNL     1     -40.364  59.102 -51.776  1.00  0.00     0.010 C 
ENDBRANCH   1  24
BRANCH   2  26
HETATM   26  O   UNL     1     -40.950  55.777 -52.564  1.00  0.00    -0.346 OA
BRANCH  26  27
HETATM   27  C   UNL     1     -41.551  54.630 -51.945  1.00  0.00     0.214 C 
BRANCH  27  28
HETATM   28  C   UNL     1     -40.909  53.360 -52.457  1.00  0.00    -0.034 A 
HETATM   29  C   UNL     1     -40.447  52.375 -51.570  1.00  0.00     0.016 A 
HETATM   30  C   UNL     1     -39.803  51.221 -52.039  1.00  0.00    -0.061 A 
HETATM   31  C   UNL     1     -39.295  50.183 -51.083  1.00  0.00     0.048 C 
HETATM   32  C   UNL     1     -39.603  51.065 -53.415  1.00  0.00     0.007 A 
HETATM   33  C   UNL     1     -40.049  52.040 -54.307  1.00  0.00     0.001 A 
HETATM   34  C   UNL     1     -40.694  53.183 -53.830  1.00  0.00     0.009 A 
ENDBRANCH  27  28
ENDBRANCH  26  27
ENDBRANCH   2  26
TORSDOF 8
ENDMDL
MODEL 9
REMARK VINA RESULT:      -8.0      5.209      7.224
REMARK  8 active torsions:
REMARK  status: ('A' for Active; 'I' for Inactive)
REMARK    1  A    between atoms: C_2  and  C_3 
REMARK    2  A    between atoms: C_4  and  O_5 
REMARK    3  A    between atoms: O_5  and  C_6 
REMARK    4  A    between atoms: C_6  and  C_7 
REMARK    5  A    between atoms: C_15  and  O_16 
REMARK    6  A    between atoms: C_17  and  C_18 
REMARK    7  A    between atoms: C_22  and  N_23 
REMARK    8  A    between atoms: C_24  and  C_25 
ROOT
HETATM    1  C   UNL     1     -43.642  57.283 -54.336  1.00  0.00    -0.024 A 
HETATM    2  C   UNL     1     -42.708  56.290 -54.663  1.00  0.00     0.078 A 
HETATM    3  C   UNL     1     -42.161  56.215 -55.947  1.00  0.00     0.074 A 
HETATM    4  C   UNL     1     -42.492  57.182 -56.899  1.00  0.00     0.081 A 
HETATM    5  C   UNL     1     -43.373  58.224 -56.581  1.00  0.00     0.029 A 
HETATM    6  C   UNL     1     -43.952  58.256 -55.302  1.00  0.00     0.026 A 
ENDROOT
BRANCH   5   7
HETATM    7  C   UNL     1     -43.664  59.300 -57.525  1.00  0.00     0.107 A 
HETATM    8  N   UNL     1     -43.194  60.538 -57.284  1.00  0.00    -0.172 NA
HETATM    9  N   UNL     1     -43.636  61.262 -58.318  1.00  0.00    -0.262 N 
HETATM   10  H   UNL     1     -43.385  62.241 -58.355  1.00  0.00     0.191 HD
HETATM   11  C   UNL     1     -44.413  60.569 -59.204  1.00  0.00     0.131 A 
HETATM   12  C   UNL     1     -44.468  59.278 -58.709  1.00  0.00     0.076 A 
BRANCH  11  13
HETATM   13  N   UNL     1     -44.944  61.187 -60.282  1.00  0.00    -0.384 N 
HETATM   14  H   UNL     1     -44.433  61.328 -61.149  1.00  0.00     0.157 HD
HETATM   15  H   UNL     1     -45.955  61.231 -60.399  1.00  0.00     0.157 HD
ENDBRANCH  11  13
BRANCH  12  16
HETATM   16  C   UNL     1     -45.214  58.115 -59.295  1.00  0.00     0.114 A 
HETATM   17  S   UNL     1     -46.923  57.911 -59.182  1.00  0.00    -0.079 SA
HETATM   18  C   UNL     1     -46.808  56.432 -60.033  1.00  0.00     0.078 A 
HETATM   19  C   UNL     1     -45.492  56.178 -60.361  1.00  0.00     0.038 A 
HETATM   20  C   UNL     1     -44.969  55.001 -61.098  1.00  0.00     0.071 C 
HETATM   21  N   UNL     1     -44.596  57.142 -59.935  1.00  0.00    -0.245 NA
ENDBRANCH  12  16
ENDBRANCH   5   7
BRANCH   4  22
HETATM   22  O   UNL     1     -41.960  57.092 -58.159  1.00  0.00    -0.360 OA
HETATM   23  H   UNL     1     -41.127  57.587 -58.189  1.00  0.00     0.217 HD
ENDBRANCH   4  22
BRANCH   1  24
HETATM   24  C   UNL     1     -44.320  57.331 -52.990  1.00  0.00     0.037 C 
HETATM   25  C   UNL     1     -43.550  58.179 -51.986  1.00  0.00     0.010 C 
ENDBRANCH   1  24
BRANCH   2  26
HETATM   26  O   UNL     1     -42.384  55.350 -53.715  1.00  0.00    -0.346 OA
BRANCH  26  27
HETATM   27  C   UNL     1     -42.408  54.026 -54.266  1.00  0.00     0.214 C 
BRANCH  27  28
HETATM   28  C   UNL     1     -41.331  53.173 -53.632  1.00  0.00    -0.034 A 
HETATM   29  C   UNL     1     -40.867  52.008 -54.262  1.00  0.00     0.016 A 
HETATM   30  C   UNL     1     -39.908  51.188 -53.653  1.00  0.00    -0.061 A 
HETATM   31  C   UNL     1     -39.432  49.934 -54.324  1.00  0.00     0.048 C 
HETATM   32  C   UNL     1     -39.424  51.532 -52.385  1.00  0.00     0.007 A 
HETATM   33  C   UNL     1     -39.883  52.682 -51.744  1.00  0.00     0.001 A 
HETATM   34  C   UNL     1     -40.835  53.495 -52.362  1.00  0.00     0.009 A 
ENDBRANCH  27  28
ENDBRANCH  26  27
ENDBRANCH   2  26
TORSDOF 8
ENDMDL
MODEL 10
REMARK VINA RESULT:      -7.9      3.388      5.068
REMARK  8 active torsions:
REMARK  status: ('A' for Active; 'I' for Inactive)
REMARK    1  A    between atoms: C_2  and  C_3 
REMARK    2  A    between atoms: C_4  and  O_5 
REMARK    3  A    between atoms: O_5  and  C_6 
REMARK    4  A    between atoms: C_6  and  C_7 
REMARK    5  A    between atoms: C_15  and  O_16 
REMARK    6  A    between atoms: C_17  and  C_18 
REMARK    7  A    between atoms: C_22  and  N_23 
REMARK    8  A    between atoms: C_24  and  C_25 
ROOT
HETATM    1  C   UNL     1     -41.820  56.000 -52.717  1.00  0.00    -0.024 A 
HETATM    2  C   UNL     1     -41.995  54.612 -52.641  1.00  0.00     0.078 A 
HETATM    3  C   UNL     1     -42.620  53.910 -53.676  1.00  0.00     0.074 A 
HETATM    4  C   UNL     1     -43.015  54.587 -54.833  1.00  0.00     0.081 A 
HETATM    5  C   UNL     1     -42.794  55.964 -54.963  1.00  0.00     0.029 A 
HETATM    6  C   UNL     1     -42.210  56.662 -53.895  1.00  0.00     0.026 A 
ENDROOT
BRANCH   5   7
HETATM    7  C   UNL     1     -43.111  56.679 -56.197  1.00  0.00     0.107 A 
HETATM    8  N   UNL     1     -42.958  56.058 -57.381  1.00  0.00    -0.172 NA
HETATM    9  N   UNL     1     -43.324  56.976 -58.282  1.00  0.00    -0.262 N 
HETATM   10  H   UNL     1     -43.303  56.719 -59.260  1.00  0.00     0.191 HD
HETATM   11  C   UNL     1     -43.667  58.187 -57.749  1.00  0.00     0.131 A 
HETATM   12  C   UNL     1     -43.524  58.038 -56.381  1.00  0.00     0.076 A 
BRANCH  11  13
HETATM   13  N   UNL     1     -44.033  59.212 -58.550  1.00  0.00    -0.384 N 
HETATM   14  H   UNL     1     -43.396  59.953 -58.829  1.00  0.00     0.157 HD
HETATM   15  H   UNL     1     -44.834  59.113 -59.172  1.00  0.00     0.157 HD
ENDBRANCH  11  13
BRANCH  12  16
HETATM   16  C   UNL     1     -43.755  59.081 -55.327  1.00  0.00     0.114 A 
HETATM   17  S   UNL     1     -42.680  60.395 -55.020  1.00  0.00    -0.079 SA
HETATM   18  C   UNL     1     -43.693  60.936 -53.754  1.00  0.00     0.078 A 
HETATM   19  C   UNL     1     -44.788  60.103 -53.638  1.00  0.00     0.038 A 
HETATM   20  C   UNL     1     -45.901  60.225 -52.663  1.00  0.00     0.071 C 
HETATM   21  N   UNL     1     -44.810  59.052 -54.537  1.00  0.00    -0.245 NA
ENDBRANCH  12  16
ENDBRANCH   5   7
BRANCH   4  22
HETATM   22  O   UNL     1     -43.639  53.892 -55.835  1.00  0.00    -0.360 OA
HETATM   23  H   UNL     1     -43.500  54.352 -56.677  1.00  0.00     0.217 HD
ENDBRANCH   4  22
BRANCH   1  24
HETATM   24  C   UNL     1     -41.235  56.796 -51.577  1.00  0.00     0.037 C 
HETATM   25  C   UNL     1     -41.832  58.194 -51.484  1.00  0.00     0.010 C 
ENDBRANCH   1  24
BRANCH   2  26
HETATM   26  O   UNL     1     -41.595  53.957 -51.502  1.00  0.00    -0.346 OA
BRANCH  26  27
HETATM   27  C   UNL     1     -40.189  53.671 -51.534  1.00  0.00     0.214 C 
BRANCH  27  28
HETATM   28  C   UNL     1     -39.959  52.198 -51.793  1.00  0.00    -0.034 A 
HETATM   29  C   UNL     1     -39.855  51.701 -53.101  1.00  0.00     0.016 A 
HETATM   30  C   UNL     1     -39.695  50.330 -53.345  1.00  0.00    -0.061 A 
HETATM   31  C   UNL     1     -39.605  49.805 -54.747  1.00  0.00     0.048 C 
HETATM   32  C   UNL     1     -39.660  49.445 -52.262  1.00  0.00     0.007 A 
HETATM   33  C   UNL     1     -39.770  49.925 -50.957  1.00  0.00     0.001 A 
HETATM   34  C   UNL     1     -39.924  51.292 -50.724  1.00  0.00     0.009 A 
ENDBRANCH  27  28
ENDBRANCH  26  27
ENDBRANCH   2  26
TORSDOF 8
ENDMDL
