MODEL 1
REMARK VINA RESULT:      -9.3      0.000      0.000
REMARK  7 active torsions:
REMARK  status: ('A' for Active; 'I' for Inactive)
REMARK    1  A    between atoms: C_2  and  O_3 
REMARK    2  A    between atoms: O_3  and  C_4 
REMARK    3  A    between atoms: C_7  and  N_8 
REMARK       I    between atoms: N_8  and  C_9 
REMARK    4  A    between atoms: C_9  and  C_10 
REMARK    5  A    between atoms: C_13  and  N_14 
REMARK       I    between atoms: N_14  and  C_15 
REMARK    6  A    between atoms: C_15  and  C_16 
REMARK    7  A    between atoms: C_16  and  N_17 
ROOT
HETATM    1  C   UNL     1     -41.455  55.423 -50.314  1.00  0.00     0.032 A 
HETATM    2  C   UNL     1     -42.625  55.190 -51.040  1.00  0.00     0.019 A 
HETATM    3  C   UNL     1     -43.064  56.136 -51.983  1.00  0.00     0.030 A 
HETATM    4  C   UNL     1     -42.350  57.322 -52.185  1.00  0.00     0.034 A 
HETATM    5  C   UNL     1     -41.162  57.528 -51.472  1.00  0.00     0.030 A 
HETATM    6  C   UNL     1     -40.722  56.592 -50.533  1.00  0.00     0.019 A 
ENDROOT
BRANCH   4   7
HETATM    7  N   UNL     1     -42.767  58.380 -53.020  1.00  0.00    -0.326 N 
HETATM    8  C   UNL     1     -41.977  59.227 -53.788  1.00  0.00     0.240 C 
HETATM    9  O   UNL     1     -40.752  59.286 -53.773  1.00  0.00    -0.271 OA
HETATM   10  H   UNL     1     -43.767  58.432 -53.172  1.00  0.00     0.169 HD
BRANCH   8  11
HETATM   11  C   UNL     1     -42.824  60.141 -54.687  1.00  0.00     0.240 C 
BRANCH  11  12
HETATM   12  N   UNL     1     -42.942  59.578 -56.010  1.00  0.00    -0.259 N 
HETATM   13  C   UNL     1     -42.160  59.959 -57.054  1.00  0.00     0.326 A 
HETATM   14  O   UNL     1     -41.259  60.780 -57.032  1.00  0.00    -0.247 OA
HETATM   15  N   UNL     1     -42.525  59.233 -58.162  1.00  0.00    -0.324 N 
HETATM   16  C   UNL     1     -43.514  58.221 -57.859  1.00  0.00     0.116 A 
HETATM   17  H   UNL     1     -42.033  59.346 -59.039  1.00  0.00     0.165 HD
HETATM   18  C   UNL     1     -42.916  56.816 -57.991  1.00  0.00     0.041 C 
HETATM   19  C   UNL     1     -44.790  58.395 -58.680  1.00  0.00     0.041 C 
HETATM   20  C   UNL     1     -43.768  58.554 -56.373  1.00  0.00     0.256 A 
HETATM   21  C   UNL     1     -42.731  56.407 -59.454  1.00  0.00     0.007 C 
HETATM   22  C   UNL     1     -44.011  56.560 -60.288  1.00  0.00    -0.019 C 
HETATM   23  C   UNL     1     -45.037  55.476 -59.947  1.00  0.00     0.010 C 
HETATM   24  C   UNL     1     -44.601  57.969 -60.138  1.00  0.00     0.007 C 
HETATM   25  O   UNL     1     -44.536  57.951 -55.635  1.00  0.00    -0.270 OA
ENDBRANCH  11  12
ENDBRANCH   8  11
ENDBRANCH   4   7
BRANCH   1  26
HETATM   26  C   UNL     1     -41.086  54.610 -49.144  1.00  0.00     0.256 C 
HETATM   27  N   UNL     1     -40.727  53.290 -49.185  1.00  0.00    -0.323 N 
HETATM   28  H   UNL     1     -40.653  52.942 -48.235  1.00  0.00     0.169 HD
HETATM   29  O   UNL     1     -41.135  55.161 -48.041  1.00  0.00    -0.267 OA
BRANCH  27  30
HETATM   30  C   UNL     1     -40.324  52.390 -50.181  1.00  0.00     0.035 A 
HETATM   31  C   UNL     1     -39.761  52.721 -51.410  1.00  0.00     0.032 A 
HETATM   32  C   UNL     1     -39.363  51.712 -52.309  1.00  0.00     0.039 A 
HETATM   33  C   UNL     1     -39.513  50.366 -51.981  1.00  0.00     0.068 A 
HETATM   34  C   UNL     1     -40.054  50.034 -50.742  1.00  0.00     0.039 A 
HETATM   35  C   UNL     1     -40.457  51.032 -49.854  1.00  0.00     0.032 A 
BRANCH  33  36
HETATM   36  O   UNL     1     -39.164  49.287 -52.740  1.00  0.00    -0.352 OA
BRANCH  36  37
HETATM   37  C   UNL     1     -39.329  49.344 -54.154  1.00  0.00     0.171 C 
HETATM   38  C   UNL     1     -40.653  49.993 -54.511  1.00  0.00     0.034 C 
ENDBRANCH  36  37
ENDBRANCH  33  36
ENDBRANCH  27  30
ENDBRANCH   1  26
TORSDOF 7
ENDMDL
MODEL 2
REMARK VINA RESULT:      -8.9      1.818      2.747
REMARK  7 active torsions:
REMARK  status: ('A' for Active; 'I' for Inactive)
REMARK    1  A    between atoms: C_2  and  O_3 
REMARK    2  A    between atoms: O_3  and  C_4 
REMARK    3  A    between atoms: C_7  and  N_8 
REMARK       I    between atoms: N_8  and  C_9 
REMARK    4  A    between atoms: C_9  and  C_10 
REMARK    5  A    between atoms: C_13  and  N_14 
REMARK       I    between atoms: N_14  and  C_15 
REMARK    6  A    between atoms: C_15  and  C_16 
REMARK    7  A    between atoms: C_16  and  N_17 
ROOT
HETATM    1  C   UNL     1     -41.696  55.122 -49.808  1.00  0.00     0.032 A 
HETATM    2  C   UNL     1     -41.091  56.173 -50.501  1.00  0.00     0.019 A 
HETATM    3  C   UNL     1     -41.746  56.754 -51.602  1.00  0.00     0.030 A 
HETATM    4  C   UNL     1     -42.990  56.273 -52.024  1.00  0.00     0.034 A 
HETATM    5  C   UNL     1     -43.598  55.239 -51.300  1.00  0.00     0.030 A 
HETATM    6  C   UNL     1     -42.951  54.657 -50.208  1.00  0.00     0.019 A 
ENDROOT
BRANCH   4   7
HETATM    7  N   UNL     1     -43.672  56.710 -53.179  1.00  0.00    -0.326 N 
HETATM    8  C   UNL     1     -43.348  56.468 -54.509  1.00  0.00     0.240 C 
HETATM    9  O   UNL     1     -42.323  55.931 -54.918  1.00  0.00    -0.271 OA
HETATM   10  H   UNL     1     -44.573  57.137 -53.004  1.00  0.00     0.169 HD
BRANCH   8  11
HETATM   11  C   UNL     1     -44.436  56.978 -55.465  1.00  0.00     0.240 C 
BRANCH  11  12
HETATM   12  N   UNL     1     -44.024  58.215 -56.084  1.00  0.00    -0.259 N 
HETATM   13  C   UNL     1     -44.014  59.407 -55.431  1.00  0.00     0.326 A 
HETATM   14  O   UNL     1     -44.312  59.605 -54.265  1.00  0.00    -0.247 OA
HETATM   15  N   UNL     1     -43.571  60.376 -56.297  1.00  0.00    -0.324 N 
HETATM   16  C   UNL     1     -43.139  59.829 -57.566  1.00  0.00     0.116 A 
HETATM   17  H   UNL     1     -43.457  61.333 -55.988  1.00  0.00     0.165 HD
HETATM   18  C   UNL     1     -41.621  59.966 -57.730  1.00  0.00     0.041 C 
HETATM   19  C   UNL     1     -43.912  60.419 -58.744  1.00  0.00     0.041 C 
HETATM   20  C   UNL     1     -43.519  58.350 -57.345  1.00  0.00     0.256 A 
HETATM   21  C   UNL     1     -41.205  61.405 -58.042  1.00  0.00     0.007 C 
HETATM   22  C   UNL     1     -41.963  62.005 -59.236  1.00  0.00    -0.019 C 
HETATM   23  C   UNL     1     -41.483  61.409 -60.562  1.00  0.00     0.010 C 
HETATM   24  C   UNL     1     -43.480  61.853 -59.058  1.00  0.00     0.007 C 
HETATM   25  O   UNL     1     -43.335  57.445 -58.148  1.00  0.00    -0.270 OA
ENDBRANCH  11  12
ENDBRANCH   8  11
ENDBRANCH   4   7
BRANCH   1  26
HETATM   26  C   UNL     1     -40.961  54.309 -48.826  1.00  0.00     0.256 C 
HETATM   27  N   UNL     1     -40.453  53.060 -49.060  1.00  0.00    -0.323 N 
HETATM   28  H   UNL     1     -40.114  52.676 -48.185  1.00  0.00     0.169 HD
HETATM   29  O   UNL     1     -40.823  54.786 -47.696  1.00  0.00    -0.267 OA
BRANCH  27  30
HETATM   30  C   UNL     1     -40.180  52.285 -50.196  1.00  0.00     0.035 A 
HETATM   31  C   UNL     1     -39.811  52.764 -51.449  1.00  0.00     0.032 A 
HETATM   32  C   UNL     1     -39.528  51.870 -52.501  1.00  0.00     0.039 A 
HETATM   33  C   UNL     1     -39.596  50.492 -52.302  1.00  0.00     0.068 A 
HETATM   34  C   UNL     1     -39.941  50.013 -51.042  1.00  0.00     0.039 A 
HETATM   35  C   UNL     1     -40.233  50.897 -50.003  1.00  0.00     0.032 A 
BRANCH  33  36
HETATM   36  O   UNL     1     -39.338  49.513 -53.216  1.00  0.00    -0.352 OA
BRANCH  36  37
HETATM   37  C   UNL     1     -39.741  49.695 -54.571  1.00  0.00     0.171 C 
HETATM   38  C   UNL     1     -41.208  50.078 -54.643  1.00  0.00     0.034 C 
ENDBRANCH  36  37
ENDBRANCH  33  36
ENDBRANCH  27  30
ENDBRANCH   1  26
TORSDOF 7
ENDMDL
MODEL 3
REMARK VINA RESULT:      -8.9      5.945      9.330
REMARK  7 active torsions:
REMARK  status: ('A' for Active; 'I' for Inactive)
REMARK    1  A    between atoms: C_2  and  O_3 
REMARK    2  A    between atoms: O_3  and  C_4 
REMARK    3  A    between atoms: C_7  and  N_8 
REMARK       I    between atoms: N_8  and  C_9 
REMARK    4  A    between atoms: C_9  and  C_10 
REMARK    5  A    between atoms: C_13  and  N_14 
REMARK       I    between atoms: N_14  and  C_15 
REMARK    6  A    between atoms: C_15  and  C_16 
REMARK    7  A    between atoms: C_16  and  N_17 
ROOT
HETATM    1  C   UNL     1     -45.579  61.891 -49.616  1.00  0.00     0.032 A 
HETATM    2  C   UNL     1     -45.559  60.501 -49.757  1.00  0.00     0.019 A 
HETATM    3  C   UNL     1     -44.656  59.901 -50.652  1.00  0.00     0.030 A 
HETATM    4  C   UNL     1     -43.791  60.685 -51.421  1.00  0.00     0.034 A 
HETATM    5  C   UNL     1     -43.801  62.076 -51.248  1.00  0.00     0.030 A 
HETATM    6  C   UNL     1     -44.697  62.677 -50.362  1.00  0.00     0.019 A 
ENDROOT
BRANCH   4   7
HETATM    7  N   UNL     1     -42.932  60.189 -52.425  1.00  0.00    -0.326 N 
HETATM    8  C   UNL     1     -43.180  60.078 -53.788  1.00  0.00     0.240 C 
HETATM    9  O   UNL     1     -44.255  60.277 -54.346  1.00  0.00    -0.271 OA
HETATM   10  H   UNL     1     -41.980  60.020 -52.123  1.00  0.00     0.169 HD
BRANCH   8  11
HETATM   11  C   UNL     1     -41.928  59.644 -54.565  1.00  0.00     0.240 C 
BRANCH  11  12
HETATM   12  N   UNL     1     -41.909  58.210 -54.728  1.00  0.00    -0.259 N 
HETATM   13  C   UNL     1     -42.304  57.585 -55.869  1.00  0.00     0.326 A 
HETATM   14  O   UNL     1     -42.694  58.114 -56.896  1.00  0.00    -0.247 OA
HETATM   15  N   UNL     1     -42.161  56.230 -55.697  1.00  0.00    -0.324 N 
HETATM   16  C   UNL     1     -41.529  55.896 -54.438  1.00  0.00     0.116 A 
HETATM   17  H   UNL     1     -42.370  55.588 -56.451  1.00  0.00     0.165 HD
HETATM   18  C   UNL     1     -40.128  55.315 -54.667  1.00  0.00     0.041 C 
HETATM   19  C   UNL     1     -42.405  54.990 -53.574  1.00  0.00     0.041 C 
HETATM   20  C   UNL     1     -41.426  57.308 -53.825  1.00  0.00     0.256 A 
HETATM   21  C   UNL     1     -40.182  53.878 -55.191  1.00  0.00     0.007 C 
HETATM   22  C   UNL     1     -41.045  52.953 -54.321  1.00  0.00    -0.019 C 
HETATM   23  C   UNL     1     -40.351  52.616 -52.999  1.00  0.00     0.010 C 
HETATM   24  C   UNL     1     -42.440  53.552 -54.095  1.00  0.00     0.007 C 
HETATM   25  O   UNL     1     -40.932  57.572 -52.736  1.00  0.00    -0.270 OA
ENDBRANCH  11  12
ENDBRANCH   8  11
ENDBRANCH   4   7
BRANCH   1  26
HETATM   26  C   UNL     1     -46.660  62.589 -48.903  1.00  0.00     0.256 C 
HETATM   27  N   UNL     1     -46.800  62.640 -47.543  1.00  0.00    -0.323 N 
HETATM   28  H   UNL     1     -47.693  63.068 -47.322  1.00  0.00     0.169 HD
HETATM   29  O   UNL     1     -47.520  63.143 -49.593  1.00  0.00    -0.267 OA
BRANCH  27  30
HETATM   30  C   UNL     1     -45.977  62.379 -46.439  1.00  0.00     0.035 A 
HETATM   31  C   UNL     1     -45.386  61.159 -46.124  1.00  0.00     0.032 A 
HETATM   32  C   UNL     1     -44.546  61.041 -44.999  1.00  0.00     0.039 A 
HETATM   33  C   UNL     1     -44.280  62.145 -44.190  1.00  0.00     0.068 A 
HETATM   34  C   UNL     1     -44.852  63.370 -44.518  1.00  0.00     0.039 A 
HETATM   35  C   UNL     1     -45.693  63.486 -45.626  1.00  0.00     0.032 A 
BRANCH  33  36
HETATM   36  O   UNL     1     -43.482  62.184 -43.084  1.00  0.00    -0.352 OA
BRANCH  36  37
HETATM   37  C   UNL     1     -42.990  63.438 -42.620  1.00  0.00     0.171 C 
HETATM   38  C   UNL     1     -43.518  63.735 -41.228  1.00  0.00     0.034 C 
ENDBRANCH  36  37
ENDBRANCH  33  36
ENDBRANCH  27  30
ENDBRANCH   1  26
TORSDOF 7
ENDMDL
MODEL 4
REMARK VINA RESULT:      -8.7      2.373      8.783
REMARK  7 active torsions:
REMARK  status: ('A' for Active; 'I' for Inactive)
REMARK    1  A    between atoms: C_2  and  O_3 
REMARK    2  A    between atoms: O_3  and  C_4 
REMARK    3  A    between atoms: C_7  and  N_8 
REMARK       I    between atoms: N_8  and  C_9 
REMARK    4  A    between atoms: C_9  and  C_10 
REMARK    5  A    between atoms: C_13  and  N_14 
REMARK       I    between atoms: N_14  and  C_15 
REMARK    6  A    between atoms: C_15  and  C_16 
REMARK    7  A    between atoms: C_16  and  N_17 
ROOT
HETATM    1  C   UNL     1     -43.354  61.337 -56.581  1.00  0.00     0.032 A 
HETATM    2  C   UNL     1     -44.437  61.320 -55.697  1.00  0.00     0.019 A 
HETATM    3  C   UNL     1     -44.416  60.465 -54.582  1.00  0.00     0.030 A 
HETATM    4  C   UNL     1     -43.328  59.614 -54.359  1.00  0.00     0.034 A 
HETATM    5  C   UNL     1     -42.237  59.664 -55.235  1.00  0.00     0.030 A 
HETATM    6  C   UNL     1     -42.253  60.510 -56.346  1.00  0.00     0.019 A 
ENDROOT
BRANCH   4   7
HETATM    7  N   UNL     1     -43.263  58.643 -53.337  1.00  0.00    -0.326 N 
HETATM    8  C   UNL     1     -43.918  57.419 -53.275  1.00  0.00     0.240 C 
HETATM    9  O   UNL     1     -44.782  57.019 -54.049  1.00  0.00    -0.271 OA
HETATM   10  H   UNL     1     -42.550  58.810 -52.637  1.00  0.00     0.169 HD
BRANCH   8  11
HETATM   11  C   UNL     1     -43.451  56.579 -52.076  1.00  0.00     0.240 C 
BRANCH  11  12
HETATM   12  N   UNL     1     -42.449  55.626 -52.487  1.00  0.00    -0.259 N 
HETATM   13  C   UNL     1     -41.214  55.986 -52.926  1.00  0.00     0.326 A 
HETATM   14  O   UNL     1     -40.769  57.119 -53.013  1.00  0.00    -0.247 OA
HETATM   15  N   UNL     1     -40.510  54.848 -53.234  1.00  0.00    -0.324 N 
HETATM   16  C   UNL     1     -41.229  53.641 -52.885  1.00  0.00     0.116 A 
HETATM   17  H   UNL     1     -39.549  54.903 -53.547  1.00  0.00     0.165 HD
HETATM   18  C   UNL     1     -40.545  52.916 -51.720  1.00  0.00     0.041 C 
HETATM   19  C   UNL     1     -41.453  52.731 -54.092  1.00  0.00     0.041 C 
HETATM   20  C   UNL     1     -42.559  54.268 -52.416  1.00  0.00     0.256 A 
HETATM   21  C   UNL     1     -39.266  52.202 -52.160  1.00  0.00     0.007 C 
HETATM   22  C   UNL     1     -39.480  51.270 -53.362  1.00  0.00    -0.019 C 
HETATM   23  C   UNL     1     -40.241  50.003 -52.962  1.00  0.00     0.010 C 
HETATM   24  C   UNL     1     -40.172  52.009 -54.516  1.00  0.00     0.007 C 
HETATM   25  O   UNL     1     -43.523  53.644 -51.990  1.00  0.00    -0.270 OA
ENDBRANCH  11  12
ENDBRANCH   8  11
ENDBRANCH   4   7
BRANCH   1  26
HETATM   26  C   UNL     1     -43.424  62.006 -57.890  1.00  0.00     0.256 C 
HETATM   27  N   UNL     1     -43.203  61.399 -59.096  1.00  0.00    -0.323 N 
HETATM   28  H   UNL     1     -43.185  62.109 -59.820  1.00  0.00     0.169 HD
HETATM   29  O   UNL     1     -43.674  63.214 -57.888  1.00  0.00    -0.267 OA
BRANCH  27  30
HETATM   30  C   UNL     1     -43.137  60.077 -59.557  1.00  0.00     0.035 A 
HETATM   31  C   UNL     1     -41.991  59.407 -59.974  1.00  0.00     0.032 A 
HETATM   32  C   UNL     1     -42.059  58.060 -60.381  1.00  0.00     0.039 A 
HETATM   33  C   UNL     1     -43.270  57.370 -60.361  1.00  0.00     0.068 A 
HETATM   34  C   UNL     1     -44.412  58.033 -59.921  1.00  0.00     0.039 A 
HETATM   35  C   UNL     1     -44.349  59.370 -59.528  1.00  0.00     0.032 A 
BRANCH  33  36
HETATM   36  O   UNL     1     -43.485  56.069 -60.711  1.00  0.00    -0.352 OA
BRANCH  36  37
HETATM   37  C   UNL     1     -44.814  55.555 -60.714  1.00  0.00     0.171 C 
HETATM   38  C   UNL     1     -44.892  54.277 -59.898  1.00  0.00     0.034 C 
ENDBRANCH  36  37
ENDBRANCH  33  36
ENDBRANCH  27  30
ENDBRANCH   1  26
TORSDOF 7
ENDMDL
MODEL 5
REMARK VINA RESULT:      -8.7      2.692      4.055
REMARK  7 active torsions:
REMARK  status: ('A' for Active; 'I' for Inactive)
REMARK    1  A    between atoms: C_2  and  O_3 
REMARK    2  A    between atoms: O_3  and  C_4 
REMARK    3  A    between atoms: C_7  and  N_8 
REMARK       I    between atoms: N_8  and  C_9 
REMARK    4  A    between atoms: C_9  and  C_10 
REMARK    5  A    between atoms: C_13  and  N_14 
REMARK       I    between atoms: N_14  and  C_15 
REMARK    6  A    between atoms: C_15  and  C_16 
REMARK    7  A    between atoms: C_16  and  N_17 
ROOT
HETATM    1  C   UNL     1     -41.924  58.285 -52.109  1.00  0.00     0.032 A 
HETATM    2  C   UNL     1     -41.000  58.510 -53.132  1.00  0.00     0.019 A 
HETATM    3  C   UNL     1     -41.413  58.451 -54.474  1.00  0.00     0.030 A 
HETATM    4  C   UNL     1     -42.739  58.147 -54.797  1.00  0.00     0.034 A 
HETATM    5  C   UNL     1     -43.663  57.954 -53.761  1.00  0.00     0.030 A 
HETATM    6  C   UNL     1     -43.257  58.010 -52.426  1.00  0.00     0.019 A 
ENDROOT
BRANCH   4   7
HETATM    7  N   UNL     1     -43.225  57.953 -56.107  1.00  0.00    -0.326 N 
HETATM    8  C   UNL     1     -43.085  56.831 -56.916  1.00  0.00     0.240 C 
HETATM    9  O   UNL     1     -42.394  55.847 -56.675  1.00  0.00    -0.271 OA
HETATM   10  H   UNL     1     -43.859  58.671 -56.436  1.00  0.00     0.169 HD
BRANCH   8  11
HETATM   11  C   UNL     1     -43.901  56.954 -58.212  1.00  0.00     0.240 C 
BRANCH  11  12
HETATM   12  N   UNL     1     -43.293  57.913 -59.101  1.00  0.00    -0.259 N 
HETATM   13  C   UNL     1     -42.362  57.579 -60.033  1.00  0.00     0.326 A 
HETATM   14  O   UNL     1     -41.932  56.463 -60.271  1.00  0.00    -0.247 OA
HETATM   15  N   UNL     1     -41.991  58.716 -60.710  1.00  0.00    -0.324 N 
HETATM   16  C   UNL     1     -42.778  59.869 -60.324  1.00  0.00     0.116 A 
HETATM   17  H   UNL     1     -41.329  58.671 -61.473  1.00  0.00     0.165 HD
HETATM   18  C   UNL     1     -43.689  60.316 -61.473  1.00  0.00     0.041 C 
HETATM   19  C   UNL     1     -41.911  61.006 -59.787  1.00  0.00     0.041 C 
HETATM   20  C   UNL     1     -43.616  59.236 -59.194  1.00  0.00     0.256 A 
HETATM   21  C   UNL     1     -42.909  61.032 -62.579  1.00  0.00     0.007 C 
HETATM   22  C   UNL     1     -42.047  62.190 -62.054  1.00  0.00    -0.019 C 
HETATM   23  C   UNL     1     -42.905  63.394 -61.657  1.00  0.00     0.010 C 
HETATM   24  C   UNL     1     -41.147  61.727 -60.900  1.00  0.00     0.007 C 
HETATM   25  O   UNL     1     -44.473  59.816 -58.540  1.00  0.00    -0.270 OA
ENDBRANCH  11  12
ENDBRANCH   8  11
ENDBRANCH   4   7
BRANCH   1  26
HETATM   26  C   UNL     1     -41.510  58.077 -50.712  1.00  0.00     0.256 C 
HETATM   27  N   UNL     1     -41.277  56.858 -50.134  1.00  0.00    -0.323 N 
HETATM   28  H   UNL     1     -41.135  56.992 -49.139  1.00  0.00     0.169 HD
HETATM   29  O   UNL     1     -41.395  59.082 -50.007  1.00  0.00    -0.267 OA
BRANCH  27  30
HETATM   30  C   UNL     1     -41.061  55.553 -50.597  1.00  0.00     0.035 A 
HETATM   31  C   UNL     1     -41.672  54.959 -51.696  1.00  0.00     0.032 A 
HETATM   32  C   UNL     1     -41.336  53.645 -52.077  1.00  0.00     0.039 A 
HETATM   33  C   UNL     1     -40.376  52.922 -51.370  1.00  0.00     0.068 A 
HETATM   34  C   UNL     1     -39.747  53.525 -50.285  1.00  0.00     0.039 A 
HETATM   35  C   UNL     1     -40.087  54.822 -49.900  1.00  0.00     0.032 A 
BRANCH  33  36
HETATM   36  O   UNL     1     -39.942  51.654 -51.629  1.00  0.00    -0.352 OA
BRANCH  36  37
HETATM   37  C   UNL     1     -39.665  51.269 -52.972  1.00  0.00     0.171 C 
HETATM   38  C   UNL     1     -39.642  49.757 -53.099  1.00  0.00     0.034 C 
ENDBRANCH  36  37
ENDBRANCH  33  36
ENDBRANCH  27  30
ENDBRANCH   1  26
TORSDOF 7
ENDMDL
MODEL 6
REMARK VINA RESULT:      -8.6      2.680      4.217
REMARK  7 active torsions:
REMARK  status: ('A' for Active; 'I' for Inactive)
REMARK    1  A    between atoms: C_2  and  O_3 
REMARK    2  A    between atoms: O_3  and  C_4 
REMARK    3  A    between atoms: C_7  and  N_8 
REMARK       I    between atoms: N_8  and  C_9 
REMARK    4  A    between atoms: C_9  and  C_10 
REMARK    5  A    between atoms: C_13  and  N_14 
REMARK       I    between atoms: N_14  and  C_15 
REMARK    6  A    between atoms: C_15  and  C_16 
REMARK    7  A    between atoms: C_16  and  N_17 
ROOT
HETATM    1  C   UNL     1     -43.957  57.613 -52.529  1.00  0.00     0.032 A 
HETATM    2  C   UNL     1     -42.687  58.185 -52.641  1.00  0.00     0.019 A 
HETATM    3  C   UNL     1     -42.210  58.587 -53.900  1.00  0.00     0.030 A 
HETATM    4  C   UNL     1     -42.987  58.401 -55.048  1.00  0.00     0.034 A 
HETATM    5  C   UNL     1     -44.271  57.855 -54.917  1.00  0.00     0.030 A 
HETATM    6  C   UNL     1     -44.749  57.452 -53.669  1.00  0.00     0.019 A 
ENDROOT
BRANCH   4   7
HETATM    7  N   UNL     1     -42.554  58.666 -56.364  1.00  0.00    -0.326 N 
HETATM    8  C   UNL     1     -42.366  57.761 -57.403  1.00  0.00     0.240 C 
HETATM    9  O   UNL     1     -42.421  56.539 -57.317  1.00  0.00    -0.271 OA
HETATM   10  H   UNL     1     -42.505  59.648 -56.606  1.00  0.00     0.169 HD
BRANCH   8  11
HETATM   11  C   UNL     1     -42.048  58.470 -58.729  1.00  0.00     0.240 C 
BRANCH  11  12
HETATM   12  N   UNL     1     -43.258  58.701 -59.479  1.00  0.00    -0.259 N 
HETATM   13  C   UNL     1     -43.771  57.803 -60.361  1.00  0.00     0.326 A 
HETATM   14  O   UNL     1     -43.324  56.699 -60.626  1.00  0.00    -0.247 OA
HETATM   15  N   UNL     1     -44.921  58.326 -60.900  1.00  0.00    -0.324 N 
HETATM   16  C   UNL     1     -45.297  59.583 -60.287  1.00  0.00     0.116 A 
HETATM   17  H   UNL     1     -45.475  57.791 -61.557  1.00  0.00     0.165 HD
HETATM   18  C   UNL     1     -46.579  59.425 -59.462  1.00  0.00     0.041 C 
HETATM   19  C   UNL     1     -45.390  60.718 -61.305  1.00  0.00     0.041 C 
HETATM   20  C   UNL     1     -44.084  59.780 -59.354  1.00  0.00     0.256 A 
HETATM   21  C   UNL     1     -47.822  59.317 -60.348  1.00  0.00     0.007 C 
HETATM   22  C   UNL     1     -47.938  60.462 -61.365  1.00  0.00    -0.019 C 
HETATM   23  C   UNL     1     -48.337  61.776 -60.688  1.00  0.00     0.010 C 
HETATM   24  C   UNL     1     -46.643  60.611 -62.177  1.00  0.00     0.007 C 
HETATM   25  O   UNL     1     -43.929  60.720 -58.584  1.00  0.00    -0.270 OA
ENDBRANCH  11  12
ENDBRANCH   8  11
ENDBRANCH   4   7
BRANCH   1  26
HETATM   26  C   UNL     1     -44.406  56.941 -51.299  1.00  0.00     0.256 C 
HETATM   27  N   UNL     1     -43.967  55.720 -50.865  1.00  0.00    -0.323 N 
HETATM   28  H   UNL     1     -44.529  55.435 -50.070  1.00  0.00     0.169 HD
HETATM   29  O   UNL     1     -45.267  57.517 -50.629  1.00  0.00    -0.267 OA
BRANCH  27  30
HETATM   30  C   UNL     1     -42.886  54.879 -51.162  1.00  0.00     0.035 A 
HETATM   31  C   UNL     1     -41.913  54.443 -50.267  1.00  0.00     0.032 A 
HETATM   32  C   UNL     1     -40.896  53.565 -50.690  1.00  0.00     0.039 A 
HETATM   33  C   UNL     1     -40.853  53.105 -52.005  1.00  0.00     0.068 A 
HETATM   34  C   UNL     1     -41.840  53.521 -52.894  1.00  0.00     0.039 A 
HETATM   35  C   UNL     1     -42.842  54.399 -52.479  1.00  0.00     0.032 A 
BRANCH  33  36
HETATM   36  O   UNL     1     -39.942  52.247 -52.550  1.00  0.00    -0.352 OA
BRANCH  36  37
HETATM   37  C   UNL     1     -40.001  51.957 -53.944  1.00  0.00     0.171 C 
HETATM   38  C   UNL     1     -39.997  50.457 -54.176  1.00  0.00     0.034 C 
ENDBRANCH  36  37
ENDBRANCH  33  36
ENDBRANCH  27  30
ENDBRANCH   1  26
TORSDOF 7
ENDMDL
MODEL 7
REMARK VINA RESULT:      -8.3      2.629      4.242
REMARK  7 active torsions:
REMARK  status: ('A' for Active; 'I' for Inactive)
REMARK    1  A    between atoms: C_2  and  O_3 
REMARK    2  A    between atoms: O_3  and  C_4 
REMARK    3  A    between atoms: C_7  and  N_8 
REMARK       I    between atoms: N_8  and  C_9 
REMARK    4  A    between atoms: C_9  and  C_10 
REMARK    5  A    between atoms: C_13  and  N_14 
REMARK       I    between atoms: N_14  and  C_15 
REMARK    6  A    between atoms: C_15  and  C_16 
REMARK    7  A    between atoms: C_16  and  N_17 
ROOT
HETATM    1  C   UNL     1     -42.978  59.632 -52.104  1.00  0.00     0.032 A 
HETATM    2  C   UNL     1     -42.476  59.983 -53.359  1.00  0.00     0.019 A 
HETATM    3  C   UNL     1     -43.355  60.145 -54.444  1.00  0.00     0.030 A 
HETATM    4  C   UNL     1     -44.728  59.935 -54.284  1.00  0.00     0.034 A 
HETATM    5  C   UNL     1     -45.221  59.613 -53.012  1.00  0.00     0.030 A 
HETATM    6  C   UNL     1     -44.352  59.450 -51.932  1.00  0.00     0.019 A 
ENDROOT
BRANCH   4   7
HETATM    7  N   UNL     1     -45.674  59.961 -55.330  1.00  0.00    -0.326 N 
HETATM    8  C   UNL     1     -45.977  61.013 -56.186  1.00  0.00     0.240 C 
HETATM    9  O   UNL     1     -45.558  62.163 -56.097  1.00  0.00    -0.271 OA
HETATM   10  H   UNL     1     -46.079  59.061 -55.559  1.00  0.00     0.169 HD
BRANCH   8  11
HETATM   11  C   UNL     1     -46.948  60.586 -57.298  1.00  0.00     0.240 C 
BRANCH  11  12
HETATM   12  N   UNL     1     -46.335  59.594 -58.148  1.00  0.00    -0.259 N 
HETATM   13  C   UNL     1     -45.580  59.908 -59.235  1.00  0.00     0.326 A 
HETATM   14  O   UNL     1     -45.294  61.026 -59.629  1.00  0.00    -0.247 OA
HETATM   15  N   UNL     1     -45.148  58.742 -59.819  1.00  0.00    -0.324 N 
HETATM   16  C   UNL     1     -45.509  57.571 -59.048  1.00  0.00     0.116 A 
HETATM   17  H   UNL     1     -44.539  58.764 -60.627  1.00  0.00     0.165 HD
HETATM   18  C   UNL     1     -44.264  56.914 -58.440  1.00  0.00     0.041 C 
HETATM   19  C   UNL     1     -46.357  56.587 -59.853  1.00  0.00     0.041 C 
HETATM   20  C   UNL     1     -46.349  58.245 -57.943  1.00  0.00     0.256 A 
HETATM   21  C   UNL     1     -43.446  56.155 -59.487  1.00  0.00     0.007 C 
HETATM   22  C   UNL     1     -44.283  55.150 -60.291  1.00  0.00    -0.019 C 
HETATM   23  C   UNL     1     -44.646  53.923 -59.451  1.00  0.00     0.010 C 
HETATM   24  C   UNL     1     -45.528  55.822 -60.886  1.00  0.00     0.007 C 
HETATM   25  O   UNL     1     -46.882  57.664 -57.007  1.00  0.00    -0.270 OA
ENDBRANCH  11  12
ENDBRANCH   8  11
ENDBRANCH   4   7
BRANCH   1  26
HETATM   26  C   UNL     1     -42.101  59.198 -51.005  1.00  0.00     0.256 C 
HETATM   27  N   UNL     1     -41.786  57.898 -50.716  1.00  0.00    -0.323 N 
HETATM   28  H   UNL     1     -41.276  57.872 -49.839  1.00  0.00     0.169 HD
HETATM   29  O   UNL     1     -41.641  60.079 -50.274  1.00  0.00    -0.267 OA
BRANCH  27  30
HETATM   30  C   UNL     1     -41.878  56.670 -51.387  1.00  0.00     0.035 A 
HETATM   31  C   UNL     1     -42.572  55.546 -50.953  1.00  0.00     0.032 A 
HETATM   32  C   UNL     1     -42.615  54.382 -51.745  1.00  0.00     0.039 A 
HETATM   33  C   UNL     1     -41.975  54.339 -52.983  1.00  0.00     0.068 A 
HETATM   34  C   UNL     1     -41.300  55.472 -53.428  1.00  0.00     0.039 A 
HETATM   35  C   UNL     1     -41.249  56.622 -52.640  1.00  0.00     0.032 A 
BRANCH  33  36
HETATM   36  O   UNL     1     -41.941  53.294 -53.859  1.00  0.00    -0.352 OA
BRANCH  36  37
HETATM   37  C   UNL     1     -40.684  52.763 -54.268  1.00  0.00     0.171 C 
HETATM   38  C   UNL     1     -40.007  52.046 -53.114  1.00  0.00     0.034 C 
ENDBRANCH  36  37
ENDBRANCH  33  36
ENDBRANCH  27  30
ENDBRANCH   1  26
TORSDOF 7
ENDMDL
MODEL 8
REMARK VINA RESULT:      -8.1      4.952      8.204
REMARK  7 active torsions:
REMARK  status: ('A' for Active; 'I' for Inactive)
REMARK    1  A    between atoms: C_2  and  O_3 
REMARK    2  A    between atoms: O_3  and  C_4 
REMARK    3  A    between atoms: C_7  and  N_8 
REMARK       I    between atoms: N_8  and  C_9 
REMARK    4  A    between atoms: C_9  and  C_10 
REMARK    5  A    between atoms: C_13  and  N_14 
REMARK       I    between atoms: N_14  and  C_15 
REMARK    6  A    between atoms: C_15  and  C_16 
REMARK    7  A    between atoms: C_16  and  N_17 
ROOT
HETATM    1  C   UNL     1     -43.083  57.435 -55.796  1.00  0.00     0.032 A 
HETATM    2  C   UNL     1     -42.138  58.462 -55.714  1.00  0.00     0.019 A 
HETATM    3  C   UNL     1     -42.413  59.606 -54.945  1.00  0.00     0.030 A 
HETATM    4  C   UNL     1     -43.636  59.737 -54.277  1.00  0.00     0.034 A 
HETATM    5  C   UNL     1     -44.561  58.687 -54.344  1.00  0.00     0.030 A 
HETATM    6  C   UNL     1     -44.293  57.549 -55.107  1.00  0.00     0.019 A 
ENDROOT
BRANCH   4   7
HETATM    7  N   UNL     1     -44.051  60.889 -53.577  1.00  0.00    -0.326 N 
HETATM    8  C   UNL     1     -43.434  61.503 -52.493  1.00  0.00     0.240 C 
HETATM    9  O   UNL     1     -42.474  61.067 -51.865  1.00  0.00    -0.271 OA
HETATM   10  H   UNL     1     -44.816  61.395 -54.008  1.00  0.00     0.169 HD
BRANCH   8  11
HETATM   11  C   UNL     1     -44.111  62.831 -52.125  1.00  0.00     0.240 C 
BRANCH  11  12
HETATM   12  N   UNL     1     -44.800  62.713 -50.862  1.00  0.00    -0.259 N 
HETATM   13  C   UNL     1     -45.988  62.070 -50.719  1.00  0.00     0.326 A 
HETATM   14  O   UNL     1     -46.619  61.495 -51.590  1.00  0.00    -0.247 OA
HETATM   15  N   UNL     1     -46.366  62.137 -49.400  1.00  0.00    -0.324 N 
HETATM   16  C   UNL     1     -45.351  62.742 -48.564  1.00  0.00     0.116 A 
HETATM   17  H   UNL     1     -47.213  61.683 -49.081  1.00  0.00     0.165 HD
HETATM   18  C   UNL     1     -44.736  61.706 -47.616  1.00  0.00     0.041 C 
HETATM   19  C   UNL     1     -45.868  63.976 -47.828  1.00  0.00     0.041 C 
HETATM   20  C   UNL     1     -44.332  63.139 -49.653  1.00  0.00     0.256 A 
HETATM   21  C   UNL     1     -45.680  61.349 -46.466  1.00  0.00     0.007 C 
HETATM   22  C   UNL     1     -46.194  62.580 -45.706  1.00  0.00    -0.019 C 
HETATM   23  C   UNL     1     -45.100  63.196 -44.830  1.00  0.00     0.010 C 
HETATM   24  C   UNL     1     -46.799  63.610 -46.669  1.00  0.00     0.007 C 
HETATM   25  O   UNL     1     -43.256  63.686 -49.448  1.00  0.00    -0.270 OA
ENDBRANCH  11  12
ENDBRANCH   8  11
ENDBRANCH   4   7
BRANCH   1  26
HETATM   26  C   UNL     1     -42.969  56.345 -56.777  1.00  0.00     0.256 C 
HETATM   27  N   UNL     1     -42.265  55.187 -56.589  1.00  0.00    -0.323 N 
HETATM   28  H   UNL     1     -42.243  54.673 -57.463  1.00  0.00     0.169 HD
HETATM   29  O   UNL     1     -43.531  56.509 -57.863  1.00  0.00    -0.267 OA
BRANCH  27  30
HETATM   30  C   UNL     1     -41.714  54.515 -55.489  1.00  0.00     0.035 A 
HETATM   31  C   UNL     1     -40.414  54.031 -55.388  1.00  0.00     0.032 A 
HETATM   32  C   UNL     1     -39.975  53.404 -54.205  1.00  0.00     0.039 A 
HETATM   33  C   UNL     1     -40.828  53.269 -53.111  1.00  0.00     0.068 A 
HETATM   34  C   UNL     1     -42.121  53.776 -53.203  1.00  0.00     0.039 A 
HETATM   35  C   UNL     1     -42.561  54.388 -54.378  1.00  0.00     0.032 A 
BRANCH  33  36
HETATM   36  O   UNL     1     -40.540  52.701 -51.904  1.00  0.00    -0.352 OA
BRANCH  36  37
HETATM   37  C   UNL     1     -39.484  51.750 -51.813  1.00  0.00     0.171 C 
HETATM   38  C   UNL     1     -39.863  50.621 -50.872  1.00  0.00     0.034 C 
ENDBRANCH  36  37
ENDBRANCH  33  36
ENDBRANCH  27  30
ENDBRANCH   1  26
TORSDOF 7
ENDMDL
MODEL 9
REMARK VINA RESULT:      -8.1      2.932      4.784
REMARK  7 active torsions:
REMARK  status: ('A' for Active; 'I' for Inactive)
REMARK    1  A    between atoms: C_2  and  O_3 
REMARK    2  A    between atoms: O_3  and  C_4 
REMARK    3  A    between atoms: C_7  and  N_8 
REMARK       I    between atoms: N_8  and  C_9 
REMARK    4  A    between atoms: C_9  and  C_10 
REMARK    5  A    between atoms: C_13  and  N_14 
REMARK       I    between atoms: N_14  and  C_15 
REMARK    6  A    between atoms: C_15  and  C_16 
REMARK    7  A    between atoms: C_16  and  N_17 
ROOT
HETATM    1  C   UNL     1     -43.257  57.784 -53.047  1.00  0.00     0.032 A 
HETATM    2  C   UNL     1     -44.472  57.278 -53.516  1.00  0.00     0.019 A 
HETATM    3  C   UNL     1     -44.751  57.293 -54.894  1.00  0.00     0.030 A 
HETATM    4  C   UNL     1     -43.832  57.832 -55.800  1.00  0.00     0.034 A 
HETATM    5  C   UNL     1     -42.605  58.308 -55.318  1.00  0.00     0.030 A 
HETATM    6  C   UNL     1     -42.323  58.296 -53.951  1.00  0.00     0.019 A 
ENDROOT
BRANCH   4   7
HETATM    7  N   UNL     1     -44.065  57.996 -57.181  1.00  0.00    -0.326 N 
HETATM    8  C   UNL     1     -43.632  57.189 -58.226  1.00  0.00     0.240 C 
HETATM    9  O   UNL     1     -42.849  56.248 -58.137  1.00  0.00    -0.271 OA
HETATM   10  H   UNL     1     -44.739  58.716 -57.415  1.00  0.00     0.169 HD
BRANCH   8  11
HETATM   11  C   UNL     1     -44.237  57.618 -59.571  1.00  0.00     0.240 C 
BRANCH  11  12
HETATM   12  N   UNL     1     -43.783  58.940 -59.929  1.00  0.00    -0.259 N 
HETATM   13  C   UNL     1     -44.500  60.067 -59.679  1.00  0.00     0.326 A 
HETATM   14  O   UNL     1     -45.580  60.138 -59.115  1.00  0.00    -0.247 OA
HETATM   15  N   UNL     1     -43.790  61.149 -60.140  1.00  0.00    -0.324 N 
HETATM   16  C   UNL     1     -42.475  60.783 -60.621  1.00  0.00     0.116 A 
HETATM   17  H   UNL     1     -44.142  62.090 -60.015  1.00  0.00     0.165 HD
HETATM   18  C   UNL     1     -41.383  61.336 -59.697  1.00  0.00     0.041 C 
HETATM   19  C   UNL     1     -42.262  61.176 -62.082  1.00  0.00     0.041 C 
HETATM   20  C   UNL     1     -42.571  59.250 -60.473  1.00  0.00     0.256 A 
HETATM   21  C   UNL     1     -41.191  62.844 -59.876  1.00  0.00     0.007 C 
HETATM   22  C   UNL     1     -40.958  63.251 -61.338  1.00  0.00    -0.019 C 
HETATM   23  C   UNL     1     -39.560  62.853 -61.817  1.00  0.00     0.010 C 
HETATM   24  C   UNL     1     -42.055  62.683 -62.249  1.00  0.00     0.007 C 
HETATM   25  O   UNL     1     -41.677  58.457 -60.742  1.00  0.00    -0.270 OA
ENDBRANCH  11  12
ENDBRANCH   8  11
ENDBRANCH   4   7
BRANCH   1  26
HETATM   26  C   UNL     1     -43.014  58.033 -51.617  1.00  0.00     0.256 C 
HETATM   27  N   UNL     1     -42.551  57.106 -50.724  1.00  0.00    -0.323 N 
HETATM   28  H   UNL     1     -42.599  57.499 -49.791  1.00  0.00     0.169 HD
HETATM   29  O   UNL     1     -43.280  59.161 -51.193  1.00  0.00    -0.267 OA
BRANCH  27  30
HETATM   30  C   UNL     1     -41.926  55.854 -50.811  1.00  0.00     0.035 A 
HETATM   31  C   UNL     1     -42.191  54.866 -51.754  1.00  0.00     0.032 A 
HETATM   32  C   UNL     1     -41.460  53.662 -51.752  1.00  0.00     0.039 A 
HETATM   33  C   UNL     1     -40.450  53.443 -50.817  1.00  0.00     0.068 A 
HETATM   34  C   UNL     1     -40.168  54.441 -49.889  1.00  0.00     0.039 A 
HETATM   35  C   UNL     1     -40.898  55.630 -49.883  1.00  0.00     0.032 A 
BRANCH  33  36
HETATM   36  O   UNL     1     -39.656  52.339 -50.702  1.00  0.00    -0.352 OA
BRANCH  36  37
HETATM   37  C   UNL     1     -39.667  51.359 -51.736  1.00  0.00     0.171 C 
HETATM   38  C   UNL     1     -39.541  49.965 -51.149  1.00  0.00     0.034 C 
ENDBRANCH  36  37
ENDBRANCH  33  36
ENDBRANCH  27  30
ENDBRANCH   1  26
TORSDOF 7
ENDMDL
MODEL 10
REMARK VINA RESULT:      -8.0     15.560     17.906
REMARK  7 active torsions:
REMARK  status: ('A' for Active; 'I' for Inactive)
REMARK    1  A    between atoms: C_2  and  O_3 
REMARK    2  A    between atoms: O_3  and  C_4 
REMARK    3  A    between atoms: C_7  and  N_8 
REMARK       I    between atoms: N_8  and  C_9 
REMARK    4  A    between atoms: C_9  and  C_10 
REMARK    5  A    between atoms: C_13  and  N_14 
REMARK       I    between atoms: N_14  and  C_15 
REMARK    6  A    between atoms: C_15  and  C_16 
REMARK    7  A    between atoms: C_16  and  N_17 
ROOT
HETATM    1  C   UNL     1     -42.042  38.059 -50.190  1.00  0.00     0.032 A 
HETATM    2  C   UNL     1     -41.782  39.195 -50.960  1.00  0.00     0.019 A 
HETATM    3  C   UNL     1     -40.466  39.484 -51.361  1.00  0.00     0.030 A 
HETATM    4  C   UNL     1     -39.407  38.654 -50.976  1.00  0.00     0.034 A 
HETATM    5  C   UNL     1     -39.686  37.502 -50.229  1.00  0.00     0.030 A 
HETATM    6  C   UNL     1     -40.992  37.211 -49.827  1.00  0.00     0.019 A 
ENDROOT
BRANCH   4   7
HETATM    7  N   UNL     1     -38.045  38.918 -51.229  1.00  0.00    -0.326 N 
HETATM    8  C   UNL     1     -37.066  39.313 -50.325  1.00  0.00     0.240 C 
HETATM    9  O   UNL     1     -37.248  39.632 -49.154  1.00  0.00    -0.271 OA
HETATM   10  H   UNL     1     -37.727  38.657 -52.155  1.00  0.00     0.169 HD
BRANCH   8  11
HETATM   11  C   UNL     1     -35.670  39.334 -50.966  1.00  0.00     0.240 C 
BRANCH  11  12
HETATM   12  N   UNL     1     -35.672  40.154 -52.153  1.00  0.00    -0.259 N 
HETATM   13  C   UNL     1     -35.251  41.446 -52.167  1.00  0.00     0.326 A 
HETATM   14  O   UNL     1     -34.802  42.080 -51.227  1.00  0.00    -0.247 OA
HETATM   15  N   UNL     1     -35.381  41.935 -53.444  1.00  0.00    -0.324 N 
HETATM   16  C   UNL     1     -35.793  40.916 -54.387  1.00  0.00     0.116 A 
HETATM   17  H   UNL     1     -35.085  42.876 -53.671  1.00  0.00     0.165 HD
HETATM   18  C   UNL     1     -34.660  40.592 -55.368  1.00  0.00     0.041 C 
HETATM   19  C   UNL     1     -37.097  41.276 -55.096  1.00  0.00     0.041 C 
HETATM   20  C   UNL     1     -36.004  39.740 -53.411  1.00  0.00     0.256 A 
HETATM   21  C   UNL     1     -34.474  41.694 -56.414  1.00  0.00     0.007 C 
HETATM   22  C   UNL     1     -35.775  42.053 -57.147  1.00  0.00    -0.019 C 
HETATM   23  C   UNL     1     -36.183  40.959 -58.137  1.00  0.00     0.010 C 
HETATM   24  C   UNL     1     -36.900  42.367 -56.150  1.00  0.00     0.007 C 
HETATM   25  O   UNL     1     -36.349  38.610 -53.730  1.00  0.00    -0.270 OA
ENDBRANCH  11  12
ENDBRANCH   8  11
ENDBRANCH   4   7
BRANCH   1  26
HETATM   26  C   UNL     1     -43.338  37.843 -49.528  1.00  0.00     0.256 C 
HETATM   27  N   UNL     1     -43.521  37.727 -48.176  1.00  0.00    -0.323 N 
HETATM   28  H   UNL     1     -44.482  37.454 -48.000  1.00  0.00     0.169 HD
HETATM   29  O   UNL     1     -44.327  37.730 -50.257  1.00  0.00    -0.267 OA
BRANCH  27  30
HETATM   30  C   UNL     1     -42.765  38.019 -47.032  1.00  0.00     0.035 A 
HETATM   31  C   UNL     1     -42.576  37.183 -45.936  1.00  0.00     0.032 A 
HETATM   32  C   UNL     1     -41.758  37.586 -44.863  1.00  0.00     0.039 A 
HETATM   33  C   UNL     1     -41.112  38.821 -44.884  1.00  0.00     0.068 A 
HETATM   34  C   UNL     1     -41.281  39.647 -45.992  1.00  0.00     0.039 A 
HETATM   35  C   UNL     1     -42.100  39.253 -47.051  1.00  0.00     0.032 A 
BRANCH  33  36
HETATM   36  O   UNL     1     -40.284  39.337 -43.930  1.00  0.00    -0.352 OA
BRANCH  36  37
HETATM   37  C   UNL     1     -40.845  39.926 -42.760  1.00  0.00     0.171 C 
HETATM   38  C   UNL     1     -40.929  41.434 -42.910  1.00  0.00     0.034 C 
ENDBRANCH  36  37
ENDBRANCH  33  36
ENDBRANCH  27  30
ENDBRANCH   1  26
TORSDOF 7
ENDMDL
