MODEL 1
REMARK VINA RESULT:      -7.5      0.000      0.000
REMARK  6 active torsions:
REMARK  status: ('A' for Active; 'I' for Inactive)
REMARK    1  A    between atoms: C_4  and  C_5 
REMARK    2  A    between atoms: C_5  and  N_6 
REMARK       I    between atoms: N_6  and  C_7 
REMARK       I    between atoms: C_7  and  N_8 
REMARK    3  A    between atoms: N_8  and  C_9 
REMARK    4  A    between atoms: C_9  and  C_10 
REMARK    5  A    between atoms: C_12  and  O_13 
REMARK    6  A    between atoms: O_13  and  C_14 
ROOT
HETATM    1  N   UNL     1     -40.693  54.132 -50.679  1.00  0.00    -0.333 N 
HETATM    2  C   UNL     1     -40.677  54.787 -49.493  1.00  0.00     0.317 C 
HETATM    3  N   UNL     1     -41.398  55.932 -49.429  1.00  0.00    -0.339 N 
HETATM    4  O   UNL     1     -40.069  54.393 -48.503  1.00  0.00    -0.247 OA
HETATM    5  H   UNL     1     -40.889  54.665 -51.514  1.00  0.00     0.165 HD
HETATM    6  H   UNL     1     -41.343  56.384 -48.526  1.00  0.00     0.164 HD
ENDROOT
BRANCH   3   7
HETATM    7  C   UNL     1     -42.322  56.472 -50.401  1.00  0.00     0.163 C 
BRANCH   7   8
HETATM    8  C   UNL     1     -41.691  57.369 -51.435  1.00  0.00    -0.035 A 
HETATM    9  C   UNL     1     -42.067  57.377 -52.783  1.00  0.00     0.066 A 
HETATM   10  C   UNL     1     -41.398  58.218 -53.659  1.00  0.00     0.164 A 
HETATM   11  N   UNL     1     -40.404  59.053 -53.297  1.00  0.00    -0.237 NA
HETATM   12  C   UNL     1     -40.061  59.045 -51.994  1.00  0.00     0.120 A 
HETATM   13  C   UNL     1     -40.664  58.236 -51.041  1.00  0.00     0.028 A 
BRANCH  10  14
HETATM   14  O   UNL     1     -41.793  58.173 -54.983  1.00  0.00    -0.329 OA
BRANCH  14  15
HETATM   15  C   UNL     1     -42.610  57.043 -55.359  1.00  0.00     0.130 C 
HETATM   16  C   UNL     1     -43.191  57.054 -56.800  1.00  0.00     0.032 C 
HETATM   17  C   UNL     1     -42.886  55.549 -56.870  1.00  0.00     0.005 C 
HETATM   18  C   UNL     1     -41.816  55.782 -55.788  1.00  0.00     0.032 C 
ENDBRANCH  14  15
ENDBRANCH  10  14
ENDBRANCH   7   8
ENDBRANCH   3   7
BRANCH   1  19
HETATM   19  C   UNL     1     -39.963  52.894 -50.882  1.00  0.00     0.139 C 
HETATM   20  C   UNL     1     -40.506  51.784 -49.985  1.00  0.00     0.039 C 
BRANCH  19  21
HETATM   21  C   UNL     1     -40.068  52.506 -52.325  1.00  0.00     0.075 A 
HETATM   22  O   UNL     1     -39.740  51.220 -52.657  1.00  0.00    -0.318 OA
HETATM   23  C   UNL     1     -39.920  51.094 -54.001  1.00  0.00     0.049 A 
HETATM   24  C   UNL     1     -39.630  49.769 -54.586  1.00  0.00     0.076 C 
HETATM   25  C   UNL     1     -40.353  52.286 -54.537  1.00  0.00     0.035 A 
HETATM   26  C   UNL     1     -40.452  53.196 -53.457  1.00  0.00     0.037 A 
ENDBRANCH  19  21
ENDBRANCH   1  19
TORSDOF 6
ENDMDL
MODEL 2
REMARK VINA RESULT:      -7.4      3.556      5.641
REMARK  6 active torsions:
REMARK  status: ('A' for Active; 'I' for Inactive)
REMARK    1  A    between atoms: C_4  and  C_5 
REMARK    2  A    between atoms: C_5  and  N_6 
REMARK       I    between atoms: N_6  and  C_7 
REMARK       I    between atoms: C_7  and  N_8 
REMARK    3  A    between atoms: N_8  and  C_9 
REMARK    4  A    between atoms: C_9  and  C_10 
REMARK    5  A    between atoms: C_12  and  O_13 
REMARK    6  A    between atoms: O_13  and  C_14 
ROOT
HETATM    1  N   UNL     1     -42.065  54.627 -53.989  1.00  0.00    -0.333 N 
HETATM    2  C   UNL     1     -41.345  55.511 -54.721  1.00  0.00     0.317 C 
HETATM    3  N   UNL     1     -41.744  55.694 -56.003  1.00  0.00    -0.339 N 
HETATM    4  O   UNL     1     -40.388  56.142 -54.285  1.00  0.00    -0.247 OA
HETATM    5  H   UNL     1     -42.572  53.905 -54.478  1.00  0.00     0.165 HD
HETATM    6  H   UNL     1     -41.167  56.355 -56.506  1.00  0.00     0.164 HD
ENDROOT
BRANCH   3   7
HETATM    7  C   UNL     1     -42.936  55.202 -56.657  1.00  0.00     0.163 C 
BRANCH   7   8
HETATM    8  C   UNL     1     -43.092  55.642 -58.091  1.00  0.00    -0.035 A 
HETATM    9  C   UNL     1     -42.350  56.680 -58.664  1.00  0.00     0.066 A 
HETATM   10  C   UNL     1     -42.596  57.028 -59.984  1.00  0.00     0.164 A 
HETATM   11  N   UNL     1     -43.504  56.417 -60.771  1.00  0.00    -0.237 NA
HETATM   12  C   UNL     1     -44.201  55.411 -60.210  1.00  0.00     0.120 A 
HETATM   13  C   UNL     1     -44.035  54.993 -58.897  1.00  0.00     0.028 A 
BRANCH  10  14
HETATM   14  O   UNL     1     -41.851  58.073 -60.496  1.00  0.00    -0.329 OA
BRANCH  14  15
HETATM   15  C   UNL     1     -42.468  59.377 -60.436  1.00  0.00     0.130 C 
HETATM   16  C   UNL     1     -41.993  60.320 -59.296  1.00  0.00     0.032 C 
HETATM   17  C   UNL     1     -42.046  61.474 -60.311  1.00  0.00     0.005 C 
HETATM   18  C   UNL     1     -41.878  60.421 -61.420  1.00  0.00     0.032 C 
ENDBRANCH  14  15
ENDBRANCH  10  14
ENDBRANCH   7   8
ENDBRANCH   3   7
BRANCH   1  19
HETATM   19  C   UNL     1     -41.744  54.339 -52.603  1.00  0.00     0.139 C 
HETATM   20  C   UNL     1     -43.009  54.069 -51.792  1.00  0.00     0.039 C 
BRANCH  19  21
HETATM   21  C   UNL     1     -40.827  53.155 -52.560  1.00  0.00     0.075 A 
HETATM   22  O   UNL     1     -40.844  52.305 -53.632  1.00  0.00    -0.318 OA
HETATM   23  C   UNL     1     -39.934  51.323 -53.380  1.00  0.00     0.049 A 
HETATM   24  C   UNL     1     -39.776  50.286 -54.420  1.00  0.00     0.076 C 
HETATM   25  C   UNL     1     -39.338  51.529 -52.157  1.00  0.00     0.035 A 
HETATM   26  C   UNL     1     -39.909  52.711 -51.628  1.00  0.00     0.037 A 
ENDBRANCH  19  21
ENDBRANCH   1  19
TORSDOF 6
ENDMDL
MODEL 3
REMARK VINA RESULT:      -7.3      2.201      7.076
REMARK  6 active torsions:
REMARK  status: ('A' for Active; 'I' for Inactive)
REMARK    1  A    between atoms: C_4  and  C_5 
REMARK    2  A    between atoms: C_5  and  N_6 
REMARK       I    between atoms: N_6  and  C_7 
REMARK       I    between atoms: C_7  and  N_8 
REMARK    3  A    between atoms: N_8  and  C_9 
REMARK    4  A    between atoms: C_9  and  C_10 
REMARK    5  A    between atoms: C_12  and  O_13 
REMARK    6  A    between atoms: O_13  and  C_14 
ROOT
HETATM    1  N   UNL     1     -42.267  55.468 -53.309  1.00  0.00    -0.333 N 
HETATM    2  C   UNL     1     -42.879  54.744 -54.276  1.00  0.00     0.317 C 
HETATM    3  N   UNL     1     -42.071  54.009 -55.078  1.00  0.00    -0.339 N 
HETATM    4  O   UNL     1     -44.094  54.714 -54.444  1.00  0.00    -0.247 OA
HETATM    5  H   UNL     1     -41.303  55.732 -53.450  1.00  0.00     0.165 HD
HETATM    6  H   UNL     1     -42.578  53.497 -55.788  1.00  0.00     0.164 HD
ENDROOT
BRANCH   3   7
HETATM    7  C   UNL     1     -40.654  53.756 -54.944  1.00  0.00     0.163 C 
BRANCH   7   8
HETATM    8  C   UNL     1     -40.304  52.639 -53.993  1.00  0.00    -0.035 A 
HETATM    9  C   UNL     1     -40.217  52.804 -52.607  1.00  0.00     0.066 A 
HETATM   10  C   UNL     1     -39.854  51.718 -51.825  1.00  0.00     0.164 A 
HETATM   11  N   UNL     1     -39.589  50.490 -52.312  1.00  0.00    -0.237 NA
HETATM   12  C   UNL     1     -39.690  50.341 -53.647  1.00  0.00     0.120 A 
HETATM   13  C   UNL     1     -40.038  51.367 -54.515  1.00  0.00     0.028 A 
BRANCH  10  14
HETATM   14  O   UNL     1     -39.762  51.939 -50.464  1.00  0.00    -0.329 OA
BRANCH  14  15
HETATM   15  C   UNL     1     -40.502  53.071 -49.957  1.00  0.00     0.130 C 
HETATM   16  C   UNL     1     -40.847  53.055 -48.442  1.00  0.00     0.032 C 
HETATM   17  C   UNL     1     -40.524  54.559 -48.414  1.00  0.00     0.005 C 
HETATM   18  C   UNL     1     -39.641  54.325 -49.653  1.00  0.00     0.032 C 
ENDBRANCH  14  15
ENDBRANCH  10  14
ENDBRANCH   7   8
ENDBRANCH   3   7
BRANCH   1  19
HETATM   19  C   UNL     1     -43.016  56.298 -52.383  1.00  0.00     0.139 C 
HETATM   20  C   UNL     1     -43.095  55.647 -51.004  1.00  0.00     0.039 C 
BRANCH  19  21
HETATM   21  C   UNL     1     -42.353  57.639 -52.297  1.00  0.00     0.075 A 
HETATM   22  O   UNL     1     -41.298  57.766 -51.435  1.00  0.00    -0.318 OA
HETATM   23  C   UNL     1     -40.853  59.049 -51.532  1.00  0.00     0.049 A 
HETATM   24  C   UNL     1     -39.698  59.415 -50.686  1.00  0.00     0.076 C 
HETATM   25  C   UNL     1     -41.614  59.749 -52.441  1.00  0.00     0.035 A 
HETATM   26  C   UNL     1     -42.579  58.841 -52.937  1.00  0.00     0.037 A 
ENDBRANCH  19  21
ENDBRANCH   1  19
TORSDOF 6
ENDMDL
MODEL 4
REMARK VINA RESULT:      -7.3      1.832      5.849
REMARK  6 active torsions:
REMARK  status: ('A' for Active; 'I' for Inactive)
REMARK    1  A    between atoms: C_4  and  C_5 
REMARK    2  A    between atoms: C_5  and  N_6 
REMARK       I    between atoms: N_6  and  C_7 
REMARK       I    between atoms: C_7  and  N_8 
REMARK    3  A    between atoms: N_8  and  C_9 
REMARK    4  A    between atoms: C_9  and  C_10 
REMARK    5  A    between atoms: C_12  and  O_13 
REMARK    6  A    between atoms: O_13  and  C_14 
ROOT
HETATM    1  N   UNL     1     -43.083  56.445 -52.890  1.00  0.00    -0.333 N 
HETATM    2  C   UNL     1     -43.740  56.844 -51.774  1.00  0.00     0.317 C 
HETATM    3  N   UNL     1     -44.079  55.869 -50.896  1.00  0.00    -0.339 N 
HETATM    4  O   UNL     1     -44.020  58.012 -51.524  1.00  0.00    -0.247 OA
HETATM    5  H   UNL     1     -43.207  55.493 -53.201  1.00  0.00     0.165 HD
HETATM    6  H   UNL     1     -44.575  56.219 -50.087  1.00  0.00     0.164 HD
ENDROOT
BRANCH   3   7
HETATM    7  C   UNL     1     -43.692  54.476 -50.901  1.00  0.00     0.163 C 
BRANCH   7   8
HETATM    8  C   UNL     1     -42.228  54.231 -50.634  1.00  0.00    -0.035 A 
HETATM    9  C   UNL     1     -41.435  53.378 -51.408  1.00  0.00     0.066 A 
HETATM   10  C   UNL     1     -40.105  53.198 -51.056  1.00  0.00     0.164 A 
HETATM   11  N   UNL     1     -39.510  53.806 -50.012  1.00  0.00    -0.237 NA
HETATM   12  C   UNL     1     -40.282  54.635 -49.282  1.00  0.00     0.120 A 
HETATM   13  C   UNL     1     -41.622  54.876 -49.548  1.00  0.00     0.028 A 
BRANCH  10  14
HETATM   14  O   UNL     1     -39.370  52.329 -51.841  1.00  0.00    -0.329 OA
BRANCH  14  15
HETATM   15  C   UNL     1     -40.132  51.479 -52.726  1.00  0.00     0.130 C 
HETATM   16  C   UNL     1     -39.839  51.616 -54.245  1.00  0.00     0.032 C 
HETATM   17  C   UNL     1     -39.956  50.086 -54.344  1.00  0.00     0.005 C 
HETATM   18  C   UNL     1     -39.601  50.027 -52.848  1.00  0.00     0.032 C 
ENDBRANCH  14  15
ENDBRANCH  10  14
ENDBRANCH   7   8
ENDBRANCH   3   7
BRANCH   1  19
HETATM   19  C   UNL     1     -42.664  57.389 -53.910  1.00  0.00     0.139 C 
HETATM   20  C   UNL     1     -41.239  57.875 -53.654  1.00  0.00     0.039 C 
BRANCH  19  21
HETATM   21  C   UNL     1     -42.762  56.723 -55.248  1.00  0.00     0.075 A 
HETATM   22  O   UNL     1     -42.638  57.515 -56.357  1.00  0.00    -0.318 OA
HETATM   23  C   UNL     1     -42.747  56.704 -57.445  1.00  0.00     0.049 A 
HETATM   24  C   UNL     1     -42.634  57.351 -58.767  1.00  0.00     0.076 C 
HETATM   25  C   UNL     1     -42.947  55.400 -57.048  1.00  0.00     0.035 A 
HETATM   26  C   UNL     1     -42.954  55.411 -55.632  1.00  0.00     0.037 A 
ENDBRANCH  19  21
ENDBRANCH   1  19
TORSDOF 6
ENDMDL
MODEL 5
REMARK VINA RESULT:      -7.2      3.039      7.402
REMARK  6 active torsions:
REMARK  status: ('A' for Active; 'I' for Inactive)
REMARK    1  A    between atoms: C_4  and  C_5 
REMARK    2  A    between atoms: C_5  and  N_6 
REMARK       I    between atoms: N_6  and  C_7 
REMARK       I    between atoms: C_7  and  N_8 
REMARK    3  A    between atoms: N_8  and  C_9 
REMARK    4  A    between atoms: C_9  and  C_10 
REMARK    5  A    between atoms: C_12  and  O_13 
REMARK    6  A    between atoms: O_13  and  C_14 
ROOT
HETATM    1  N   UNL     1     -43.816  56.500 -56.500  1.00  0.00    -0.333 N 
HETATM    2  C   UNL     1     -44.383  56.898 -55.335  1.00  0.00     0.317 C 
HETATM    3  N   UNL     1     -44.387  55.990 -54.329  1.00  0.00    -0.339 N 
HETATM    4  O   UNL     1     -44.863  58.011 -55.153  1.00  0.00    -0.247 OA
HETATM    5  H   UNL     1     -43.780  55.511 -56.699  1.00  0.00     0.165 HD
HETATM    6  H   UNL     1     -44.830  56.334 -53.487  1.00  0.00     0.164 HD
ENDROOT
BRANCH   3   7
HETATM    7  C   UNL     1     -43.722  54.707 -54.268  1.00  0.00     0.163 C 
BRANCH   7   8
HETATM    8  C   UNL     1     -42.638  54.613 -53.224  1.00  0.00    -0.035 A 
HETATM    9  C   UNL     1     -41.697  53.579 -53.180  1.00  0.00     0.066 A 
HETATM   10  C   UNL     1     -40.762  53.568 -52.156  1.00  0.00     0.164 A 
HETATM   11  N   UNL     1     -40.685  54.507 -51.192  1.00  0.00    -0.237 NA
HETATM   12  C   UNL     1     -41.588  55.504 -51.254  1.00  0.00     0.120 A 
HETATM   13  C   UNL     1     -42.567  55.600 -52.233  1.00  0.00     0.028 A 
BRANCH  10  14
HETATM   14  O   UNL     1     -39.868  52.514 -52.146  1.00  0.00    -0.329 OA
BRANCH  14  15
HETATM   15  C   UNL     1     -40.248  51.357 -52.922  1.00  0.00     0.130 C 
HETATM   16  C   UNL     1     -39.567  51.197 -54.309  1.00  0.00     0.032 C 
HETATM   17  C   UNL     1     -39.465  49.690 -54.018  1.00  0.00     0.005 C 
HETATM   18  C   UNL     1     -39.531  50.042 -52.521  1.00  0.00     0.032 C 
ENDBRANCH  14  15
ENDBRANCH  10  14
ENDBRANCH   7   8
ENDBRANCH   3   7
BRANCH   1  19
HETATM   19  C   UNL     1     -43.746  57.375 -57.656  1.00  0.00     0.139 C 
HETATM   20  C   UNL     1     -42.313  57.838 -57.908  1.00  0.00     0.039 C 
BRANCH  19  21
HETATM   21  C   UNL     1     -44.280  56.639 -58.847  1.00  0.00     0.075 A 
HETATM   22  O   UNL     1     -45.558  56.926 -59.244  1.00  0.00    -0.318 OA
HETATM   23  C   UNL     1     -45.821  56.158 -60.337  1.00  0.00     0.049 A 
HETATM   24  C   UNL     1     -47.158  56.310 -60.947  1.00  0.00     0.076 C 
HETATM   25  C   UNL     1     -44.729  55.377 -60.643  1.00  0.00     0.035 A 
HETATM   26  C   UNL     1     -43.734  55.688 -59.686  1.00  0.00     0.037 A 
ENDBRANCH  19  21
ENDBRANCH   1  19
TORSDOF 6
ENDMDL
MODEL 6
REMARK VINA RESULT:      -7.2      2.385      6.407
REMARK  6 active torsions:
REMARK  status: ('A' for Active; 'I' for Inactive)
REMARK    1  A    between atoms: C_4  and  C_5 
REMARK    2  A    between atoms: C_5  and  N_6 
REMARK       I    between atoms: N_6  and  C_7 
REMARK       I    between atoms: C_7  and  N_8 
REMARK    3  A    between atoms: N_8  and  C_9 
REMARK    4  A    between atoms: C_9  and  C_10 
REMARK    5  A    between atoms: C_12  and  O_13 
REMARK    6  A    between atoms: O_13  and  C_14 
ROOT
HETATM    1  N   UNL     1     -42.975  57.432 -51.682  1.00  0.00    -0.333 N 
HETATM    2  C   UNL     1     -43.653  56.622 -52.530  1.00  0.00     0.317 C 
HETATM    3  N   UNL     1     -43.892  55.361 -52.093  1.00  0.00    -0.339 N 
HETATM    4  O   UNL     1     -44.059  56.972 -53.633  1.00  0.00    -0.247 OA
HETATM    5  H   UNL     1     -42.376  57.005 -50.991  1.00  0.00     0.165 HD
HETATM    6  H   UNL     1     -44.391  54.797 -52.768  1.00  0.00     0.164 HD
ENDROOT
BRANCH   3   7
HETATM    7  C   UNL     1     -43.670  54.805 -50.777  1.00  0.00     0.163 C 
BRANCH   7   8
HETATM    8  C   UNL     1     -42.241  54.413 -50.495  1.00  0.00    -0.035 A 
HETATM    9  C   UNL     1     -41.460  53.657 -51.376  1.00  0.00     0.066 A 
HETATM   10  C   UNL     1     -40.167  53.322 -51.004  1.00  0.00     0.164 A 
HETATM   11  N   UNL     1     -39.595  53.690 -49.841  1.00  0.00    -0.237 NA
HETATM   12  C   UNL     1     -40.353  54.428 -49.008  1.00  0.00     0.120 A 
HETATM   13  C   UNL     1     -41.659  54.808 -49.284  1.00  0.00     0.028 A 
BRANCH  10  14
HETATM   14  O   UNL     1     -39.445  52.557 -51.901  1.00  0.00    -0.329 OA
BRANCH  14  15
HETATM   15  C   UNL     1     -40.218  51.687 -52.755  1.00  0.00     0.130 C 
HETATM   16  C   UNL     1     -39.986  51.828 -54.284  1.00  0.00     0.032 C 
HETATM   17  C   UNL     1     -40.069  50.295 -54.378  1.00  0.00     0.005 C 
HETATM   18  C   UNL     1     -39.656  50.248 -52.896  1.00  0.00     0.032 C 
ENDBRANCH  14  15
ENDBRANCH  10  14
ENDBRANCH   7   8
ENDBRANCH   3   7
BRANCH   1  19
HETATM   19  C   UNL     1     -42.653  58.805 -52.027  1.00  0.00     0.139 C 
HETATM   20  C   UNL     1     -43.299  59.782 -51.047  1.00  0.00     0.039 C 
BRANCH  19  21
HETATM   21  C   UNL     1     -41.163  58.964 -52.025  1.00  0.00     0.075 A 
HETATM   22  O   UNL     1     -40.572  59.356 -50.855  1.00  0.00    -0.318 OA
HETATM   23  C   UNL     1     -39.232  59.421 -51.085  1.00  0.00     0.049 A 
HETATM   24  C   UNL     1     -38.384  59.821 -49.944  1.00  0.00     0.076 C 
HETATM   25  C   UNL     1     -38.956  59.082 -52.390  1.00  0.00     0.035 A 
HETATM   26  C   UNL     1     -40.199  58.783 -52.997  1.00  0.00     0.037 A 
ENDBRANCH  19  21
ENDBRANCH   1  19
TORSDOF 6
ENDMDL
MODEL 7
REMARK VINA RESULT:      -7.2      1.848      2.423
REMARK  6 active torsions:
REMARK  status: ('A' for Active; 'I' for Inactive)
REMARK    1  A    between atoms: C_4  and  C_5 
REMARK    2  A    between atoms: C_5  and  N_6 
REMARK       I    between atoms: N_6  and  C_7 
REMARK       I    between atoms: C_7  and  N_8 
REMARK    3  A    between atoms: N_8  and  C_9 
REMARK    4  A    between atoms: C_9  and  C_10 
REMARK    5  A    between atoms: C_12  and  O_13 
REMARK    6  A    between atoms: O_13  and  C_14 
ROOT
HETATM    1  N   UNL     1     -41.646  55.251 -52.044  1.00  0.00    -0.333 N 
HETATM    2  C   UNL     1     -42.299  55.559 -50.897  1.00  0.00     0.317 C 
HETATM    3  N   UNL     1     -41.857  56.652 -50.230  1.00  0.00    -0.339 N 
HETATM    4  O   UNL     1     -43.249  54.920 -50.459  1.00  0.00    -0.247 OA
HETATM    5  H   UNL     1     -40.694  55.570 -52.151  1.00  0.00     0.165 HD
HETATM    6  H   UNL     1     -42.372  56.830 -49.378  1.00  0.00     0.164 HD
ENDROOT
BRANCH   3   7
HETATM    7  C   UNL     1     -40.890  57.640 -50.655  1.00  0.00     0.163 C 
BRANCH   7   8
HETATM    8  C   UNL     1     -41.436  58.691 -51.588  1.00  0.00    -0.035 A 
HETATM    9  C   UNL     1     -41.142  58.738 -52.954  1.00  0.00     0.066 A 
HETATM   10  C   UNL     1     -41.670  59.768 -53.718  1.00  0.00     0.164 A 
HETATM   11  N   UNL     1     -42.472  60.736 -53.231  1.00  0.00    -0.237 NA
HETATM   12  C   UNL     1     -42.758  60.671 -51.917  1.00  0.00     0.120 A 
HETATM   13  C   UNL     1     -42.273  59.686 -51.068  1.00  0.00     0.028 A 
BRANCH  10  14
HETATM   14  O   UNL     1     -41.332  59.780 -55.058  1.00  0.00    -0.329 OA
BRANCH  14  15
HETATM   15  C   UNL     1     -42.382  59.411 -55.977  1.00  0.00     0.130 C 
HETATM   16  C   UNL     1     -42.055  59.530 -57.491  1.00  0.00     0.032 C 
HETATM   17  C   UNL     1     -42.816  58.209 -57.698  1.00  0.00     0.005 C 
HETATM   18  C   UNL     1     -42.523  57.885 -56.222  1.00  0.00     0.032 C 
ENDBRANCH  14  15
ENDBRANCH  10  14
ENDBRANCH   7   8
ENDBRANCH   3   7
BRANCH   1  19
HETATM   19  C   UNL     1     -42.018  54.106 -52.854  1.00  0.00     0.139 C 
HETATM   20  C   UNL     1     -42.176  54.500 -54.321  1.00  0.00     0.039 C 
BRANCH  19  21
HETATM   21  C   UNL     1     -40.967  53.049 -52.702  1.00  0.00     0.075 A 
HETATM   22  O   UNL     1     -40.849  52.128 -53.707  1.00  0.00    -0.318 OA
HETATM   23  C   UNL     1     -39.836  51.285 -53.362  1.00  0.00     0.049 A 
HETATM   24  C   UNL     1     -39.523  50.203 -54.317  1.00  0.00     0.076 C 
HETATM   25  C   UNL     1     -39.307  51.651 -52.145  1.00  0.00     0.035 A 
HETATM   26  C   UNL     1     -40.032  52.789 -51.719  1.00  0.00     0.037 A 
ENDBRANCH  19  21
ENDBRANCH   1  19
TORSDOF 6
ENDMDL
MODEL 8
REMARK VINA RESULT:      -7.1      2.382      3.534
REMARK  6 active torsions:
REMARK  status: ('A' for Active; 'I' for Inactive)
REMARK    1  A    between atoms: C_4  and  C_5 
REMARK    2  A    between atoms: C_5  and  N_6 
REMARK       I    between atoms: N_6  and  C_7 
REMARK       I    between atoms: C_7  and  N_8 
REMARK    3  A    between atoms: N_8  and  C_9 
REMARK    4  A    between atoms: C_9  and  C_10 
REMARK    5  A    between atoms: C_12  and  O_13 
REMARK    6  A    between atoms: O_13  and  C_14 
ROOT
HETATM    1  N   UNL     1     -41.703  55.717 -51.180  1.00  0.00    -0.333 N 
HETATM    2  C   UNL     1     -41.789  57.068 -51.230  1.00  0.00     0.317 C 
HETATM    3  N   UNL     1     -42.780  57.578 -52.002  1.00  0.00    -0.339 N 
HETATM    4  O   UNL     1     -41.044  57.825 -50.617  1.00  0.00    -0.247 OA
HETATM    5  H   UNL     1     -42.079  55.186 -51.952  1.00  0.00     0.165 HD
HETATM    6  H   UNL     1     -42.793  58.589 -52.011  1.00  0.00     0.164 HD
ENDROOT
BRANCH   3   7
HETATM    7  C   UNL     1     -43.867  56.881 -52.651  1.00  0.00     0.163 C 
BRANCH   7   8
HETATM    8  C   UNL     1     -43.494  56.203 -53.945  1.00  0.00    -0.035 A 
HETATM    9  C   UNL     1     -43.137  56.898 -55.105  1.00  0.00     0.066 A 
HETATM   10  C   UNL     1     -42.843  56.178 -56.254  1.00  0.00     0.164 A 
HETATM   11  N   UNL     1     -42.864  54.833 -56.329  1.00  0.00    -0.237 NA
HETATM   12  C   UNL     1     -43.196  54.175 -55.201  1.00  0.00     0.120 A 
HETATM   13  C   UNL     1     -43.514  54.804 -54.005  1.00  0.00     0.028 A 
BRANCH  10  14
HETATM   14  O   UNL     1     -42.517  56.913 -57.378  1.00  0.00    -0.329 OA
BRANCH  14  15
HETATM   15  C   UNL     1     -42.999  56.391 -58.635  1.00  0.00     0.130 C 
HETATM   16  C   UNL     1     -44.446  56.783 -59.041  1.00  0.00     0.032 C 
HETATM   17  C   UNL     1     -43.932  56.947 -60.482  1.00  0.00     0.005 C 
HETATM   18  C   UNL     1     -42.532  57.180 -59.886  1.00  0.00     0.032 C 
ENDBRANCH  14  15
ENDBRANCH  10  14
ENDBRANCH   7   8
ENDBRANCH   3   7
BRANCH   1  19
HETATM   19  C   UNL     1     -40.687  55.043 -50.392  1.00  0.00     0.139 C 
HETATM   20  C   UNL     1     -41.167  54.811 -48.961  1.00  0.00     0.039 C 
BRANCH  19  21
HETATM   21  C   UNL     1     -40.352  53.741 -51.054  1.00  0.00     0.075 A 
HETATM   22  O   UNL     1     -40.493  53.670 -52.413  1.00  0.00    -0.318 OA
HETATM   23  C   UNL     1     -40.125  52.415 -52.790  1.00  0.00     0.049 A 
HETATM   24  C   UNL     1     -40.192  52.111 -54.234  1.00  0.00     0.076 C 
HETATM   25  C   UNL     1     -39.755  51.677 -51.688  1.00  0.00     0.035 A 
HETATM   26  C   UNL     1     -39.897  52.531 -50.568  1.00  0.00     0.037 A 
ENDBRANCH  19  21
ENDBRANCH   1  19
TORSDOF 6
ENDMDL
MODEL 9
REMARK VINA RESULT:      -7.0      2.753      4.358
REMARK  6 active torsions:
REMARK  status: ('A' for Active; 'I' for Inactive)
REMARK    1  A    between atoms: C_4  and  C_5 
REMARK    2  A    between atoms: C_5  and  N_6 
REMARK       I    between atoms: N_6  and  C_7 
REMARK       I    between atoms: C_7  and  N_8 
REMARK    3  A    between atoms: N_8  and  C_9 
REMARK    4  A    between atoms: C_9  and  C_10 
REMARK    5  A    between atoms: C_12  and  O_13 
REMARK    6  A    between atoms: O_13  and  C_14 
ROOT
HETATM    1  N   UNL     1     -42.054  54.813 -53.121  1.00  0.00    -0.333 N 
HETATM    2  C   UNL     1     -43.353  55.170 -53.273  1.00  0.00     0.317 C 
HETATM    3  N   UNL     1     -43.928  55.806 -52.223  1.00  0.00    -0.339 N 
HETATM    4  O   UNL     1     -44.005  54.963 -54.291  1.00  0.00    -0.247 OA
HETATM    5  H   UNL     1     -41.704  54.680 -52.184  1.00  0.00     0.165 HD
HETATM    6  H   UNL     1     -44.898  56.041 -52.386  1.00  0.00     0.164 HD
ENDROOT
BRANCH   3   7
HETATM    7  C   UNL     1     -43.302  56.308 -51.020  1.00  0.00     0.163 C 
BRANCH   7   8
HETATM    8  C   UNL     1     -42.431  57.521 -51.225  1.00  0.00    -0.035 A 
HETATM    9  C   UNL     1     -42.874  58.692 -51.849  1.00  0.00     0.066 A 
HETATM   10  C   UNL     1     -41.980  59.739 -52.019  1.00  0.00     0.164 A 
HETATM   11  N   UNL     1     -40.697  59.713 -51.606  1.00  0.00    -0.237 NA
HETATM   12  C   UNL     1     -40.288  58.585 -50.995  1.00  0.00     0.120 A 
HETATM   13  C   UNL     1     -41.102  57.481 -50.785  1.00  0.00     0.028 A 
BRANCH  10  14
HETATM   14  O   UNL     1     -42.461  60.865 -52.659  1.00  0.00    -0.329 OA
BRANCH  14  15
HETATM   15  C   UNL     1     -43.364  61.690 -51.892  1.00  0.00     0.130 C 
HETATM   16  C   UNL     1     -42.905  62.077 -50.459  1.00  0.00     0.032 C 
HETATM   17  C   UNL     1     -43.479  63.480 -50.718  1.00  0.00     0.005 C 
HETATM   18  C   UNL     1     -43.298  63.205 -52.221  1.00  0.00     0.032 C 
ENDBRANCH  14  15
ENDBRANCH  10  14
ENDBRANCH   7   8
ENDBRANCH   3   7
BRANCH   1  19
HETATM   19  C   UNL     1     -41.321  54.127 -54.168  1.00  0.00     0.139 C 
HETATM   20  C   UNL     1     -40.311  55.060 -54.833  1.00  0.00     0.039 C 
BRANCH  19  21
HETATM   21  C   UNL     1     -40.629  52.940 -53.571  1.00  0.00     0.075 A 
HETATM   22  O   UNL     1     -40.383  51.874 -54.393  1.00  0.00    -0.318 OA
HETATM   23  C   UNL     1     -39.745  50.931 -53.646  1.00  0.00     0.049 A 
HETATM   24  C   UNL     1     -39.369  49.681 -54.340  1.00  0.00     0.076 C 
HETATM   25  C   UNL     1     -39.585  51.375 -52.353  1.00  0.00     0.035 A 
HETATM   26  C   UNL     1     -40.151  52.671 -52.303  1.00  0.00     0.037 A 
ENDBRANCH  19  21
ENDBRANCH   1  19
TORSDOF 6
ENDMDL
MODEL 10
REMARK VINA RESULT:      -7.0      4.557      8.163
REMARK  6 active torsions:
REMARK  status: ('A' for Active; 'I' for Inactive)
REMARK    1  A    between atoms: C_4  and  C_5 
REMARK    2  A    between atoms: C_5  and  N_6 
REMARK       I    between atoms: N_6  and  C_7 
REMARK       I    between atoms: C_7  and  N_8 
REMARK    3  A    between atoms: N_8  and  C_9 
REMARK    4  A    between atoms: C_9  and  C_10 
REMARK    5  A    between atoms: C_12  and  O_13 
REMARK    6  A    between atoms: O_13  and  C_14 
ROOT
HETATM    1  N   UNL     1     -44.512  60.108 -49.933  1.00  0.00    -0.333 N 
HETATM    2  C   UNL     1     -43.315  60.081 -50.566  1.00  0.00     0.317 C 
HETATM    3  N   UNL     1     -42.971  58.907 -51.150  1.00  0.00    -0.339 N 
HETATM    4  O   UNL     1     -42.560  61.044 -50.644  1.00  0.00    -0.247 OA
HETATM    5  H   UNL     1     -44.894  59.235 -49.599  1.00  0.00     0.165 HD
HETATM    6  H   UNL     1     -42.065  58.940 -51.600  1.00  0.00     0.164 HD
ENDROOT
BRANCH   3   7
HETATM    7  C   UNL     1     -43.777  57.722 -51.338  1.00  0.00     0.163 C 
BRANCH   7   8
HETATM    8  C   UNL     1     -43.275  56.784 -52.406  1.00  0.00    -0.035 A 
HETATM    9  C   UNL     1     -42.146  55.973 -52.252  1.00  0.00     0.066 A 
HETATM   10  C   UNL     1     -41.748  55.170 -53.311  1.00  0.00     0.164 A 
HETATM   11  N   UNL     1     -42.392  55.105 -54.493  1.00  0.00    -0.237 NA
HETATM   12  C   UNL     1     -43.485  55.881 -54.624  1.00  0.00     0.120 A 
HETATM   13  C   UNL     1     -43.958  56.723 -53.627  1.00  0.00     0.028 A 
BRANCH  10  14
HETATM   14  O   UNL     1     -40.615  54.404 -53.114  1.00  0.00    -0.329 OA
BRANCH  14  15
HETATM   15  C   UNL     1     -40.807  52.973 -53.149  1.00  0.00     0.130 C 
HETATM   16  C   UNL     1     -40.178  52.216 -54.351  1.00  0.00     0.032 C 
HETATM   17  C   UNL     1     -39.779  51.105 -53.364  1.00  0.00     0.005 C 
HETATM   18  C   UNL     1     -39.835  52.165 -52.250  1.00  0.00     0.032 C 
ENDBRANCH  14  15
ENDBRANCH  10  14
ENDBRANCH   7   8
ENDBRANCH   3   7
BRANCH   1  19
HETATM   19  C   UNL     1     -45.000  61.301 -49.266  1.00  0.00     0.139 C 
HETATM   20  C   UNL     1     -46.260  61.832 -49.945  1.00  0.00     0.039 C 
BRANCH  19  21
HETATM   21  C   UNL     1     -45.273  60.971 -47.831  1.00  0.00     0.075 A 
HETATM   22  O   UNL     1     -46.161  59.962 -47.573  1.00  0.00    -0.318 OA
HETATM   23  C   UNL     1     -46.241  59.833 -46.220  1.00  0.00     0.049 A 
HETATM   24  C   UNL     1     -47.146  58.785 -45.709  1.00  0.00     0.076 C 
HETATM   25  C   UNL     1     -45.420  60.752 -45.606  1.00  0.00     0.035 A 
HETATM   26  C   UNL     1     -44.793  61.484 -46.642  1.00  0.00     0.037 A 
ENDBRANCH  19  21
ENDBRANCH   1  19
TORSDOF 6
ENDMDL
