MODEL 1
REMARK VINA RESULT:      -8.0      0.000      0.000
REMARK  5 active torsions:
REMARK  status: ('A' for Active; 'I' for Inactive)
REMARK    1  A    between atoms: C_3  and  N_4 
REMARK       I    between atoms: N_4  and  C_5 
REMARK       I    between atoms: C_5  and  N_6 
REMARK    2  A    between atoms: N_6  and  C_7 
REMARK    3  A    between atoms: C_7  and  C_8 
REMARK    4  A    between atoms: C_20  and  C_21 
REMARK       I    between atoms: C_21  and  N_22 
REMARK    5  A    between atoms: N_22  and  C_23 
ROOT
HETATM    1  C   UNL     1     -43.414  54.969 -54.701  1.00  0.00     0.052 C 
HETATM    2  C   UNL     1     -42.715  56.253 -54.318  1.00  0.00    -0.020 A 
HETATM    3  C   UNL     1     -42.147  56.418 -53.028  1.00  0.00     0.043 A 
HETATM    4  C   UNL     1     -41.423  57.583 -52.745  1.00  0.00     0.030 A 
HETATM    5  C   UNL     1     -41.243  58.574 -53.714  1.00  0.00     0.003 A 
HETATM    6  C   UNL     1     -41.840  58.445 -54.961  1.00  0.00     0.018 A 
HETATM    7  C   UNL     1     -42.604  57.311 -55.252  1.00  0.00     0.040 A 
ENDROOT
BRANCH   3   8
HETATM    8  N   UNL     1     -42.413  55.429 -52.056  1.00  0.00    -0.309 N 
HETATM    9  C   UNL     1     -41.701  54.412 -51.510  1.00  0.00     0.321 C 
HETATM   10  N   UNL     1     -40.577  53.985 -52.140  1.00  0.00    -0.338 N 
HETATM   11  O   UNL     1     -42.121  53.893 -50.477  1.00  0.00    -0.247 OA
HETATM   12  H   UNL     1     -40.626  54.014 -53.148  1.00  0.00     0.164 HD
HETATM   13  H   UNL     1     -43.282  55.523 -51.547  1.00  0.00     0.170 HD
BRANCH  10  14
HETATM   14  C   UNL     1     -39.855  52.867 -51.575  1.00  0.00     0.167 C 
BRANCH  14  15
HETATM   15  C   UNL     1     -39.855  51.734 -52.537  1.00  0.00     0.009 A 
HETATM   16  C   UNL     1     -39.655  50.354 -52.245  1.00  0.00     0.060 A 
HETATM   17  C   UNL     1     -39.412  49.723 -50.924  1.00  0.00     0.073 C 
HETATM   18  N   UNL     1     -39.692  49.601 -53.349  1.00  0.00    -0.179 NA
HETATM   19  N   UNL     1     -39.885  50.480 -54.340  1.00  0.00    -0.282 N 
HETATM   20  H   UNL     1     -39.925  50.127 -55.291  1.00  0.00     0.189 HD
HETATM   21  C   UNL     1     -39.984  51.774 -53.916  1.00  0.00     0.034 A 
HETATM   22  C   UNL     1     -40.178  52.897 -54.863  1.00  0.00     0.070 C 
ENDBRANCH  14  15
ENDBRANCH  10  14
ENDBRANCH   3   8
BRANCH   7  23
HETATM   23  C   UNL     1     -43.316  57.317 -56.562  1.00  0.00     0.252 C 
HETATM   24  N   UNL     1     -42.524  56.991 -57.643  1.00  0.00    -0.349 N 
HETATM   25  H   UNL     1     -41.609  56.612 -57.433  1.00  0.00     0.163 HD
HETATM   26  O   UNL     1     -44.516  57.541 -56.602  1.00  0.00    -0.268 OA
BRANCH  24  27
HETATM   27  C   UNL     1     -42.997  56.835 -59.027  1.00  0.00     0.022 C 
HETATM   28  C   UNL     1     -43.984  57.948 -59.417  1.00  0.00     0.037 C 
HETATM   29  C   UNL     1     -41.772  56.939 -59.955  1.00  0.00     0.037 C 
HETATM   30  C   UNL     1     -43.648  55.460 -59.218  1.00  0.00     0.037 C 
ENDBRANCH  24  27
ENDBRANCH   7  23
TORSDOF 5
ENDMDL
MODEL 2
REMARK VINA RESULT:      -7.6      3.219      6.362
REMARK  5 active torsions:
REMARK  status: ('A' for Active; 'I' for Inactive)
REMARK    1  A    between atoms: C_3  and  N_4 
REMARK       I    between atoms: N_4  and  C_5 
REMARK       I    between atoms: C_5  and  N_6 
REMARK    2  A    between atoms: N_6  and  C_7 
REMARK    3  A    between atoms: C_7  and  C_8 
REMARK    4  A    between atoms: C_20  and  C_21 
REMARK       I    between atoms: C_21  and  N_22 
REMARK    5  A    between atoms: N_22  and  C_23 
ROOT
HETATM    1  C   UNL     1     -44.685  56.949 -54.604  1.00  0.00     0.052 C 
HETATM    2  C   UNL     1     -43.641  55.889 -54.344  1.00  0.00    -0.020 A 
HETATM    3  C   UNL     1     -43.432  55.376 -53.038  1.00  0.00     0.043 A 
HETATM    4  C   UNL     1     -42.524  54.325 -52.854  1.00  0.00     0.030 A 
HETATM    5  C   UNL     1     -41.833  53.770 -53.935  1.00  0.00     0.003 A 
HETATM    6  C   UNL     1     -41.992  54.301 -55.208  1.00  0.00     0.018 A 
HETATM    7  C   UNL     1     -42.860  55.379 -55.410  1.00  0.00     0.040 A 
ENDROOT
BRANCH   3   8
HETATM    8  N   UNL     1     -44.093  56.010 -51.963  1.00  0.00    -0.309 N 
HETATM    9  C   UNL     1     -44.032  57.242 -51.398  1.00  0.00     0.321 C 
HETATM   10  N   UNL     1     -42.960  58.032 -51.660  1.00  0.00    -0.338 N 
HETATM   11  O   UNL     1     -44.939  57.584 -50.642  1.00  0.00    -0.247 OA
HETATM   12  H   UNL     1     -42.087  57.534 -51.757  1.00  0.00     0.164 HD
HETATM   13  H   UNL     1     -44.870  55.507 -51.555  1.00  0.00     0.170 HD
BRANCH  10  14
HETATM   14  C   UNL     1     -42.883  59.322 -51.013  1.00  0.00     0.167 C 
BRANCH  14  15
HETATM   15  C   UNL     1     -42.862  60.397 -52.039  1.00  0.00     0.009 A 
HETATM   16  C   UNL     1     -43.517  61.660 -51.978  1.00  0.00     0.060 A 
HETATM   17  C   UNL     1     -44.359  62.204 -50.884  1.00  0.00     0.073 C 
HETATM   18  N   UNL     1     -43.311  62.382 -53.085  1.00  0.00    -0.179 NA
HETATM   19  N   UNL     1     -42.559  61.589 -53.859  1.00  0.00    -0.282 N 
HETATM   20  H   UNL     1     -42.293  61.930 -54.777  1.00  0.00     0.189 HD
HETATM   21  C   UNL     1     -42.263  60.384 -53.288  1.00  0.00     0.034 A 
HETATM   22  C   UNL     1     -41.460  59.359 -53.994  1.00  0.00     0.070 C 
ENDBRANCH  14  15
ENDBRANCH  10  14
ENDBRANCH   3   8
BRANCH   7  23
HETATM   23  C   UNL     1     -42.867  55.970 -56.778  1.00  0.00     0.252 C 
HETATM   24  N   UNL     1     -43.620  55.270 -57.698  1.00  0.00    -0.349 N 
HETATM   25  H   UNL     1     -44.224  54.547 -57.328  1.00  0.00     0.163 HD
HETATM   26  O   UNL     1     -42.286  57.023 -56.990  1.00  0.00    -0.268 OA
BRANCH  24  27
HETATM   27  C   UNL     1     -43.867  55.686 -59.086  1.00  0.00     0.022 C 
HETATM   28  C   UNL     1     -42.560  56.040 -59.813  1.00  0.00     0.037 C 
HETATM   29  C   UNL     1     -44.513  54.497 -59.823  1.00  0.00     0.037 C 
HETATM   30  C   UNL     1     -44.834  56.876 -59.124  1.00  0.00     0.037 C 
ENDBRANCH  24  27
ENDBRANCH   7  23
TORSDOF 5
ENDMDL
MODEL 3
REMARK VINA RESULT:      -7.2      0.943      2.071
REMARK  5 active torsions:
REMARK  status: ('A' for Active; 'I' for Inactive)
REMARK    1  A    between atoms: C_3  and  N_4 
REMARK       I    between atoms: N_4  and  C_5 
REMARK       I    between atoms: C_5  and  N_6 
REMARK    2  A    between atoms: N_6  and  C_7 
REMARK    3  A    between atoms: C_7  and  C_8 
REMARK    4  A    between atoms: C_20  and  C_21 
REMARK       I    between atoms: C_21  and  N_22 
REMARK    5  A    between atoms: N_22  and  C_23 
ROOT
HETATM    1  C   UNL     1     -43.467  55.837 -54.072  1.00  0.00     0.052 C 
HETATM    2  C   UNL     1     -42.554  56.963 -53.650  1.00  0.00    -0.020 A 
HETATM    3  C   UNL     1     -41.882  56.928 -52.401  1.00  0.00     0.043 A 
HETATM    4  C   UNL     1     -40.968  57.943 -52.088  1.00  0.00     0.030 A 
HETATM    5  C   UNL     1     -40.702  58.977 -52.989  1.00  0.00     0.003 A 
HETATM    6  C   UNL     1     -41.394  59.048 -54.191  1.00  0.00     0.018 A 
HETATM    7  C   UNL     1     -42.343  58.071 -54.506  1.00  0.00     0.040 A 
ENDROOT
BRANCH   3   8
HETATM    8  N   UNL     1     -42.232  55.908 -51.488  1.00  0.00    -0.309 N 
HETATM    9  C   UNL     1     -41.608  54.806 -51.004  1.00  0.00     0.321 C 
HETATM   10  N   UNL     1     -40.520  54.326 -51.659  1.00  0.00    -0.338 N 
HETATM   11  O   UNL     1     -42.074  54.262 -50.004  1.00  0.00    -0.247 OA
HETATM   12  H   UNL     1     -40.562  54.419 -52.663  1.00  0.00     0.164 HD
HETATM   13  H   UNL     1     -43.093  56.042 -50.975  1.00  0.00     0.170 HD
BRANCH  10  14
HETATM   14  C   UNL     1     -39.895  53.121 -51.162  1.00  0.00     0.167 C 
BRANCH  14  15
HETATM   15  C   UNL     1     -39.868  52.092 -52.234  1.00  0.00     0.009 A 
HETATM   16  C   UNL     1     -40.096  52.291 -53.625  1.00  0.00     0.060 A 
HETATM   17  C   UNL     1     -40.401  53.560 -54.332  1.00  0.00     0.073 C 
HETATM   18  N   UNL     1     -40.023  51.145 -54.311  1.00  0.00    -0.179 NA
HETATM   19  N   UNL     1     -39.779  50.218 -53.376  1.00  0.00    -0.282 N 
HETATM   20  H   UNL     1     -39.703  49.250 -53.671  1.00  0.00     0.189 HD
HETATM   21  C   UNL     1     -39.682  50.724 -52.112  1.00  0.00     0.034 A 
HETATM   22  C   UNL     1     -39.436  49.857 -50.936  1.00  0.00     0.070 C 
ENDBRANCH  14  15
ENDBRANCH  10  14
ENDBRANCH   3   8
BRANCH   7  23
HETATM   23  C   UNL     1     -43.131  58.298 -55.751  1.00  0.00     0.252 C 
HETATM   24  N   UNL     1     -42.446  58.028 -56.917  1.00  0.00    -0.349 N 
HETATM   25  H   UNL     1     -41.563  57.543 -56.819  1.00  0.00     0.163 HD
HETATM   26  O   UNL     1     -44.303  58.637 -55.677  1.00  0.00    -0.268 OA
BRANCH  24  27
HETATM   27  C   UNL     1     -43.019  58.081 -58.271  1.00  0.00     0.022 C 
HETATM   28  C   UNL     1     -41.936  57.926 -59.351  1.00  0.00     0.037 C 
HETATM   29  C   UNL     1     -44.002  56.903 -58.410  1.00  0.00     0.037 C 
HETATM   30  C   UNL     1     -43.786  59.394 -58.475  1.00  0.00     0.037 C 
ENDBRANCH  24  27
ENDBRANCH   7  23
TORSDOF 5
ENDMDL
MODEL 4
REMARK VINA RESULT:      -7.0      5.248      7.895
REMARK  5 active torsions:
REMARK  status: ('A' for Active; 'I' for Inactive)
REMARK    1  A    between atoms: C_3  and  N_4 
REMARK       I    between atoms: N_4  and  C_5 
REMARK       I    between atoms: C_5  and  N_6 
REMARK    2  A    between atoms: N_6  and  C_7 
REMARK    3  A    between atoms: C_7  and  C_8 
REMARK    4  A    between atoms: C_20  and  C_21 
REMARK       I    between atoms: C_21  and  N_22 
REMARK    5  A    between atoms: N_22  and  C_23 
ROOT
HETATM    1  C   UNL     1     -42.529  60.622 -50.037  1.00  0.00     0.052 C 
HETATM    2  C   UNL     1     -43.785  60.645 -50.877  1.00  0.00    -0.020 A 
HETATM    3  C   UNL     1     -43.734  60.389 -52.272  1.00  0.00     0.043 A 
HETATM    4  C   UNL     1     -44.931  60.323 -52.998  1.00  0.00     0.030 A 
HETATM    5  C   UNL     1     -46.167  60.494 -52.368  1.00  0.00     0.003 A 
HETATM    6  C   UNL     1     -46.223  60.798 -51.015  1.00  0.00     0.018 A 
HETATM    7  C   UNL     1     -45.040  60.912 -50.278  1.00  0.00     0.040 A 
ENDROOT
BRANCH   3   8
HETATM    8  N   UNL     1     -42.465  60.295 -52.883  1.00  0.00    -0.309 N 
HETATM    9  C   UNL     1     -41.680  59.270 -53.300  1.00  0.00     0.321 C 
HETATM   10  N   UNL     1     -41.939  58.018 -52.846  1.00  0.00    -0.338 N 
HETATM   11  O   UNL     1     -40.739  59.523 -54.051  1.00  0.00    -0.247 OA
HETATM   12  H   UNL     1     -42.267  57.978 -51.893  1.00  0.00     0.164 HD
HETATM   13  H   UNL     1     -42.052  61.164 -53.194  1.00  0.00     0.170 HD
BRANCH  10  14
HETATM   14  C   UNL     1     -41.064  56.943 -53.258  1.00  0.00     0.167 C 
BRANCH  14  15
HETATM   15  C   UNL     1     -41.570  55.653 -52.720  1.00  0.00     0.009 A 
HETATM   16  C   UNL     1     -41.482  55.185 -51.377  1.00  0.00     0.060 A 
HETATM   17  C   UNL     1     -40.882  55.870 -50.205  1.00  0.00     0.073 C 
HETATM   18  N   UNL     1     -42.016  53.967 -51.238  1.00  0.00    -0.179 NA
HETATM   19  N   UNL     1     -42.417  53.641 -52.474  1.00  0.00    -0.282 N 
HETATM   20  H   UNL     1     -42.842  52.730 -52.613  1.00  0.00     0.189 HD
HETATM   21  C   UNL     1     -42.171  54.609 -53.405  1.00  0.00     0.034 A 
HETATM   22  C   UNL     1     -42.521  54.430 -54.833  1.00  0.00     0.070 C 
ENDBRANCH  14  15
ENDBRANCH  10  14
ENDBRANCH   3   8
BRANCH   7  23
HETATM   23  C   UNL     1     -45.186  61.371 -48.868  1.00  0.00     0.252 C 
HETATM   24  N   UNL     1     -45.746  60.439 -48.019  1.00  0.00    -0.349 N 
HETATM   25  H   UNL     1     -45.834  59.497 -48.381  1.00  0.00     0.163 HD
HETATM   26  O   UNL     1     -44.769  62.471 -48.538  1.00  0.00    -0.268 OA
BRANCH  24  27
HETATM   27  C   UNL     1     -45.916  60.604 -46.568  1.00  0.00     0.022 C 
HETATM   28  C   UNL     1     -44.583  60.930 -45.874  1.00  0.00     0.037 C 
HETATM   29  C   UNL     1     -46.872  61.790 -46.341  1.00  0.00     0.037 C 
HETATM   30  C   UNL     1     -46.537  59.342 -45.955  1.00  0.00     0.037 C 
ENDBRANCH  24  27
ENDBRANCH   7  23
TORSDOF 5
ENDMDL
MODEL 5
REMARK VINA RESULT:      -6.9      2.751      4.961
REMARK  5 active torsions:
REMARK  status: ('A' for Active; 'I' for Inactive)
REMARK    1  A    between atoms: C_3  and  N_4 
REMARK       I    between atoms: N_4  and  C_5 
REMARK       I    between atoms: C_5  and  N_6 
REMARK    2  A    between atoms: N_6  and  C_7 
REMARK    3  A    between atoms: C_7  and  C_8 
REMARK    4  A    between atoms: C_20  and  C_21 
REMARK       I    between atoms: C_21  and  N_22 
REMARK    5  A    between atoms: N_22  and  C_23 
ROOT
HETATM    1  C   UNL     1     -44.404  59.249 -57.301  1.00  0.00     0.052 C 
HETATM    2  C   UNL     1     -43.705  58.149 -58.064  1.00  0.00    -0.020 A 
HETATM    3  C   UNL     1     -43.615  56.836 -57.533  1.00  0.00     0.043 A 
HETATM    4  C   UNL     1     -43.047  55.821 -58.314  1.00  0.00     0.030 A 
HETATM    5  C   UNL     1     -42.579  56.081 -59.605  1.00  0.00     0.003 A 
HETATM    6  C   UNL     1     -42.614  57.373 -60.112  1.00  0.00     0.018 A 
HETATM    7  C   UNL     1     -43.137  58.411 -59.335  1.00  0.00     0.040 A 
ENDROOT
BRANCH   3   8
HETATM    8  N   UNL     1     -44.031  56.631 -56.199  1.00  0.00    -0.309 N 
HETATM    9  C   UNL     1     -43.425  56.705 -54.989  1.00  0.00     0.321 C 
HETATM   10  N   UNL     1     -42.069  56.706 -54.932  1.00  0.00    -0.338 N 
HETATM   11  O   UNL     1     -44.131  56.737 -53.982  1.00  0.00    -0.247 OA
HETATM   12  H   UNL     1     -41.621  56.128 -55.628  1.00  0.00     0.164 HD
HETATM   13  H   UNL     1     -45.023  56.496 -56.055  1.00  0.00     0.170 HD
BRANCH  10  14
HETATM   14  C   UNL     1     -41.435  56.734 -53.633  1.00  0.00     0.167 C 
BRANCH  14  15
HETATM   15  C   UNL     1     -41.292  55.348 -53.116  1.00  0.00     0.009 A 
HETATM   16  C   UNL     1     -40.671  54.244 -53.767  1.00  0.00     0.060 A 
HETATM   17  C   UNL     1     -40.016  54.216 -55.099  1.00  0.00     0.073 C 
HETATM   18  N   UNL     1     -40.738  53.130 -53.032  1.00  0.00    -0.179 NA
HETATM   19  N   UNL     1     -41.414  53.499 -51.937  1.00  0.00    -0.282 N 
HETATM   20  H   UNL     1     -41.605  52.793 -51.232  1.00  0.00     0.189 HD
HETATM   21  C   UNL     1     -41.778  54.815 -51.933  1.00  0.00     0.034 A 
HETATM   22  C   UNL     1     -42.551  55.411 -50.819  1.00  0.00     0.070 C 
ENDBRANCH  14  15
ENDBRANCH  10  14
ENDBRANCH   3   8
BRANCH   7  23
HETATM   23  C   UNL     1     -43.013  59.783 -59.902  1.00  0.00     0.252 C 
HETATM   24  N   UNL     1     -41.936  60.503 -59.427  1.00  0.00    -0.349 N 
HETATM   25  H   UNL     1     -41.250  59.985 -58.893  1.00  0.00     0.163 HD
HETATM   26  O   UNL     1     -43.796  60.161 -60.760  1.00  0.00    -0.268 OA
BRANCH  24  27
HETATM   27  C   UNL     1     -41.536  61.840 -59.890  1.00  0.00     0.022 C 
HETATM   28  C   UNL     1     -42.625  62.888 -59.605  1.00  0.00     0.037 C 
HETATM   29  C   UNL     1     -40.270  62.245 -59.111  1.00  0.00     0.037 C 
HETATM   30  C   UNL     1     -41.208  61.811 -61.388  1.00  0.00     0.037 C 
ENDBRANCH  24  27
ENDBRANCH   7  23
TORSDOF 5
ENDMDL
MODEL 6
REMARK VINA RESULT:      -6.9      5.585      9.118
REMARK  5 active torsions:
REMARK  status: ('A' for Active; 'I' for Inactive)
REMARK    1  A    between atoms: C_3  and  N_4 
REMARK       I    between atoms: N_4  and  C_5 
REMARK       I    between atoms: C_5  and  N_6 
REMARK    2  A    between atoms: N_6  and  C_7 
REMARK    3  A    between atoms: C_7  and  C_8 
REMARK    4  A    between atoms: C_20  and  C_21 
REMARK       I    between atoms: C_21  and  N_22 
REMARK    5  A    between atoms: N_22  and  C_23 
ROOT
HETATM    1  C   UNL     1     -44.212  57.882 -52.403  1.00  0.00     0.052 C 
HETATM    2  C   UNL     1     -42.934  58.261 -51.692  1.00  0.00    -0.020 A 
HETATM    3  C   UNL     1     -42.699  59.597 -51.277  1.00  0.00     0.043 A 
HETATM    4  C   UNL     1     -41.547  59.888 -50.535  1.00  0.00     0.030 A 
HETATM    5  C   UNL     1     -40.637  58.885 -50.190  1.00  0.00     0.003 A 
HETATM    6  C   UNL     1     -40.833  57.585 -50.637  1.00  0.00     0.018 A 
HETATM    7  C   UNL     1     -41.953  57.278 -51.417  1.00  0.00     0.040 A 
ENDROOT
BRANCH   3   8
HETATM    8  N   UNL     1     -43.602  60.593 -51.707  1.00  0.00    -0.309 N 
HETATM    9  C   UNL     1     -44.565  61.334 -51.104  1.00  0.00     0.321 C 
HETATM   10  N   UNL     1     -45.038  60.936 -49.896  1.00  0.00    -0.338 N 
HETATM   11  O   UNL     1     -44.996  62.324 -51.692  1.00  0.00    -0.247 OA
HETATM   12  H   UNL     1     -45.096  59.935 -49.778  1.00  0.00     0.164 HD
HETATM   13  H   UNL     1     -43.470  60.942 -52.648  1.00  0.00     0.170 HD
BRANCH  10  14
HETATM   14  C   UNL     1     -46.100  61.705 -49.286  1.00  0.00     0.167 C 
BRANCH  14  15
HETATM   15  C   UNL     1     -45.637  62.253 -47.984  1.00  0.00     0.009 A 
HETATM   16  C   UNL     1     -45.722  61.629 -46.707  1.00  0.00     0.060 A 
HETATM   17  C   UNL     1     -46.276  60.293 -46.375  1.00  0.00     0.073 C 
HETATM   18  N   UNL     1     -45.233  62.410 -45.738  1.00  0.00    -0.179 NA
HETATM   19  N   UNL     1     -44.865  63.530 -46.372  1.00  0.00    -0.282 N 
HETATM   20  H   UNL     1     -44.478  64.288 -45.819  1.00  0.00     0.189 HD
HETATM   21  C   UNL     1     -45.088  63.498 -47.719  1.00  0.00     0.034 A 
HETATM   22  C   UNL     1     -44.767  64.648 -48.595  1.00  0.00     0.070 C 
ENDBRANCH  14  15
ENDBRANCH  10  14
ENDBRANCH   3   8
BRANCH   7  23
HETATM   23  C   UNL     1     -42.013  55.893 -51.963  1.00  0.00     0.252 C 
HETATM   24  N   UNL     1     -41.305  55.710 -53.133  1.00  0.00    -0.349 N 
HETATM   25  H   UNL     1     -40.682  56.460 -53.404  1.00  0.00     0.163 HD
HETATM   26  O   UNL     1     -42.606  55.020 -51.348  1.00  0.00    -0.268 OA
BRANCH  24  27
HETATM   27  C   UNL     1     -41.126  54.425 -53.826  1.00  0.00     0.022 C 
HETATM   28  C   UNL     1     -42.446  53.919 -54.431  1.00  0.00     0.037 C 
HETATM   29  C   UNL     1     -40.130  54.650 -54.979  1.00  0.00     0.037 C 
HETATM   30  C   UNL     1     -40.547  53.376 -52.868  1.00  0.00     0.037 C 
ENDBRANCH  24  27
ENDBRANCH   7  23
TORSDOF 5
ENDMDL
MODEL 7
REMARK VINA RESULT:      -6.8     14.752     17.402
REMARK  5 active torsions:
REMARK  status: ('A' for Active; 'I' for Inactive)
REMARK    1  A    between atoms: C_3  and  N_4 
REMARK       I    between atoms: N_4  and  C_5 
REMARK       I    between atoms: C_5  and  N_6 
REMARK    2  A    between atoms: N_6  and  C_7 
REMARK    3  A    between atoms: C_7  and  C_8 
REMARK    4  A    between atoms: C_20  and  C_21 
REMARK       I    between atoms: C_21  and  N_22 
REMARK    5  A    between atoms: N_22  and  C_23 
ROOT
HETATM    1  C   UNL     1     -38.588  41.064 -55.344  1.00  0.00     0.052 C 
HETATM    2  C   UNL     1     -37.229  41.338 -55.944  1.00  0.00    -0.020 A 
HETATM    3  C   UNL     1     -37.020  41.258 -57.345  1.00  0.00     0.043 A 
HETATM    4  C   UNL     1     -35.771  41.615 -57.871  1.00  0.00     0.030 A 
HETATM    5  C   UNL     1     -34.738  42.058 -57.040  1.00  0.00     0.003 A 
HETATM    6  C   UNL     1     -34.917  42.089 -55.663  1.00  0.00     0.018 A 
HETATM    7  C   UNL     1     -36.141  41.695 -55.112  1.00  0.00     0.040 A 
ENDROOT
BRANCH   3   8
HETATM    8  N   UNL     1     -38.063  40.737 -58.142  1.00  0.00    -0.309 N 
HETATM    9  C   UNL     1     -38.258  39.580 -58.822  1.00  0.00     0.321 C 
HETATM   10  N   UNL     1     -37.189  38.789 -59.091  1.00  0.00    -0.338 N 
HETATM   11  O   UNL     1     -39.396  39.308 -59.199  1.00  0.00    -0.247 OA
HETATM   12  H   UNL     1     -36.335  39.291 -59.287  1.00  0.00     0.164 HD
HETATM   13  H   UNL     1     -38.924  41.267 -58.155  1.00  0.00     0.170 HD
BRANCH  10  14
HETATM   14  C   UNL     1     -37.401  37.584 -59.861  1.00  0.00     0.167 C 
BRANCH  14  15
HETATM   15  C   UNL     1     -37.073  37.837 -61.288  1.00  0.00     0.009 A 
HETATM   16  C   UNL     1     -37.987  37.970 -62.372  1.00  0.00     0.060 A 
HETATM   17  C   UNL     1     -39.469  37.901 -62.336  1.00  0.00     0.073 C 
HETATM   18  N   UNL     1     -37.355  38.168 -63.535  1.00  0.00    -0.179 NA
HETATM   19  N   UNL     1     -36.056  38.135 -63.212  1.00  0.00    -0.282 N 
HETATM   20  H   UNL     1     -35.376  38.245 -63.958  1.00  0.00     0.189 HD
HETATM   21  C   UNL     1     -35.825  37.934 -61.881  1.00  0.00     0.034 A 
HETATM   22  C   UNL     1     -34.453  37.845 -61.329  1.00  0.00     0.070 C 
ENDBRANCH  14  15
ENDBRANCH  10  14
ENDBRANCH   3   8
BRANCH   7  23
HETATM   23  C   UNL     1     -36.200  41.632 -53.624  1.00  0.00     0.252 C 
HETATM   24  N   UNL     1     -35.638  40.496 -53.078  1.00  0.00    -0.349 N 
HETATM   25  H   UNL     1     -35.093  39.917 -53.705  1.00  0.00     0.163 HD
HETATM   26  O   UNL     1     -36.666  42.568 -52.992  1.00  0.00    -0.268 OA
BRANCH  24  27
HETATM   27  C   UNL     1     -35.485  40.231 -51.640  1.00  0.00     0.022 C 
HETATM   28  C   UNL     1     -36.846  40.157 -50.928  1.00  0.00     0.037 C 
HETATM   29  C   UNL     1     -34.794  38.863 -51.487  1.00  0.00     0.037 C 
HETATM   30  C   UNL     1     -34.605  41.305 -50.988  1.00  0.00     0.037 C 
ENDBRANCH  24  27
ENDBRANCH   7  23
TORSDOF 5
ENDMDL
MODEL 8
REMARK VINA RESULT:      -6.8      3.236      7.600
REMARK  5 active torsions:
REMARK  status: ('A' for Active; 'I' for Inactive)
REMARK    1  A    between atoms: C_3  and  N_4 
REMARK       I    between atoms: N_4  and  C_5 
REMARK       I    between atoms: C_5  and  N_6 
REMARK    2  A    between atoms: N_6  and  C_7 
REMARK    3  A    between atoms: C_7  and  C_8 
REMARK    4  A    between atoms: C_20  and  C_21 
REMARK       I    between atoms: C_21  and  N_22 
REMARK    5  A    between atoms: N_22  and  C_23 
ROOT
HETATM    1  C   UNL     1     -44.594  56.598 -54.379  1.00  0.00     0.052 C 
HETATM    2  C   UNL     1     -44.146  58.032 -54.222  1.00  0.00    -0.020 A 
HETATM    3  C   UNL     1     -44.858  59.091 -54.842  1.00  0.00     0.043 A 
HETATM    4  C   UNL     1     -44.469  60.414 -54.592  1.00  0.00     0.030 A 
HETATM    5  C   UNL     1     -43.402  60.703 -53.737  1.00  0.00     0.003 A 
HETATM    6  C   UNL     1     -42.666  59.672 -53.169  1.00  0.00     0.018 A 
HETATM    7  C   UNL     1     -43.008  58.343 -53.438  1.00  0.00     0.040 A 
ENDROOT
BRANCH   3   8
HETATM    8  N   UNL     1     -45.882  58.756 -55.755  1.00  0.00    -0.309 N 
HETATM    9  C   UNL     1     -45.914  58.387 -57.060  1.00  0.00     0.321 C 
HETATM   10  N   UNL     1     -44.821  58.611 -57.832  1.00  0.00    -0.338 N 
HETATM   11  O   UNL     1     -46.949  57.892 -57.502  1.00  0.00    -0.247 OA
HETATM   12  H   UNL     1     -44.320  59.460 -57.614  1.00  0.00     0.164 HD
HETATM   13  H   UNL     1     -46.811  58.654 -55.369  1.00  0.00     0.170 HD
BRANCH  10  14
HETATM   14  C   UNL     1     -44.885  58.260 -59.233  1.00  0.00     0.167 C 
BRANCH  14  15
HETATM   15  C   UNL     1     -43.583  57.690 -59.667  1.00  0.00     0.009 A 
HETATM   16  C   UNL     1     -43.245  56.313 -59.798  1.00  0.00     0.060 A 
HETATM   17  C   UNL     1     -44.105  55.130 -59.546  1.00  0.00     0.073 C 
HETATM   18  N   UNL     1     -41.976  56.146 -60.187  1.00  0.00    -0.179 NA
HETATM   19  N   UNL     1     -41.494  57.392 -60.280  1.00  0.00    -0.282 N 
HETATM   20  H   UNL     1     -40.522  57.510 -60.546  1.00  0.00     0.189 HD
HETATM   21  C   UNL     1     -42.409  58.359 -59.974  1.00  0.00     0.034 A 
HETATM   22  C   UNL     1     -42.064  59.799 -59.996  1.00  0.00     0.070 C 
ENDBRANCH  14  15
ENDBRANCH  10  14
ENDBRANCH   3   8
BRANCH   7  23
HETATM   23  C   UNL     1     -42.087  57.305 -52.896  1.00  0.00     0.252 C 
HETATM   24  N   UNL     1     -42.621  56.541 -51.879  1.00  0.00    -0.349 N 
HETATM   25  H   UNL     1     -43.618  56.632 -51.725  1.00  0.00     0.163 HD
HETATM   26  O   UNL     1     -40.982  57.150 -53.394  1.00  0.00    -0.268 OA
BRANCH  24  27
HETATM   27  C   UNL     1     -41.958  55.396 -51.237  1.00  0.00     0.022 C 
HETATM   28  C   UNL     1     -40.854  55.850 -50.269  1.00  0.00     0.037 C 
HETATM   29  C   UNL     1     -43.022  54.636 -50.422  1.00  0.00     0.037 C 
HETATM   30  C   UNL     1     -41.378  54.451 -52.297  1.00  0.00     0.037 C 
ENDBRANCH  24  27
ENDBRANCH   7  23
TORSDOF 5
ENDMDL
MODEL 9
REMARK VINA RESULT:      -6.8      2.221      3.016
REMARK  5 active torsions:
REMARK  status: ('A' for Active; 'I' for Inactive)
REMARK    1  A    between atoms: C_3  and  N_4 
REMARK       I    between atoms: N_4  and  C_5 
REMARK       I    between atoms: C_5  and  N_6 
REMARK    2  A    between atoms: N_6  and  C_7 
REMARK    3  A    between atoms: C_7  and  C_8 
REMARK    4  A    between atoms: C_20  and  C_21 
REMARK       I    between atoms: C_21  and  N_22 
REMARK    5  A    between atoms: N_22  and  C_23 
ROOT
HETATM    1  C   UNL     1     -41.604  58.176 -53.537  1.00  0.00     0.052 C 
HETATM    2  C   UNL     1     -42.992  58.664 -53.193  1.00  0.00    -0.020 A 
HETATM    3  C   UNL     1     -43.520  58.499 -51.887  1.00  0.00     0.043 A 
HETATM    4  C   UNL     1     -44.771  59.052 -51.582  1.00  0.00     0.030 A 
HETATM    5  C   UNL     1     -45.495  59.769 -52.538  1.00  0.00     0.003 A 
HETATM    6  C   UNL     1     -45.010  59.890 -53.833  1.00  0.00     0.018 A 
HETATM    7  C   UNL     1     -43.784  59.309 -54.174  1.00  0.00     0.040 A 
ENDROOT
BRANCH   3   8
HETATM    8  N   UNL     1     -42.792  57.707 -50.973  1.00  0.00    -0.309 N 
HETATM    9  C   UNL     1     -42.472  56.391 -50.894  1.00  0.00     0.321 C 
HETATM   10  N   UNL     1     -43.162  55.501 -51.650  1.00  0.00    -0.338 N 
HETATM   11  O   UNL     1     -41.585  56.051 -50.112  1.00  0.00    -0.247 OA
HETATM   12  H   UNL     1     -44.140  55.722 -51.769  1.00  0.00     0.164 HD
HETATM   13  H   UNL     1     -42.290  58.204 -50.250  1.00  0.00     0.170 HD
BRANCH  10  14
HETATM   14  C   UNL     1     -42.845  54.096 -51.519  1.00  0.00     0.167 C 
BRANCH  14  15
HETATM   15  C   UNL     1     -41.939  53.682 -52.622  1.00  0.00     0.009 A 
HETATM   16  C   UNL     1     -40.645  53.099 -52.502  1.00  0.00     0.060 A 
HETATM   17  C   UNL     1     -39.905  52.759 -51.262  1.00  0.00     0.073 C 
HETATM   18  N   UNL     1     -40.089  52.872 -53.697  1.00  0.00    -0.179 NA
HETATM   19  N   UNL     1     -40.995  53.325 -54.572  1.00  0.00    -0.282 N 
HETATM   20  H   UNL     1     -40.772  53.272 -55.561  1.00  0.00     0.189 HD
HETATM   21  C   UNL     1     -42.122  53.828 -53.988  1.00  0.00     0.034 A 
HETATM   22  C   UNL     1     -43.232  54.397 -54.786  1.00  0.00     0.070 C 
ENDBRANCH  14  15
ENDBRANCH  10  14
ENDBRANCH   3   8
BRANCH   7  23
HETATM   23  C   UNL     1     -43.405  59.372 -55.613  1.00  0.00     0.252 C 
HETATM   24  N   UNL     1     -43.600  58.196 -56.308  1.00  0.00    -0.349 N 
HETATM   25  H   UNL     1     -44.135  57.478 -55.835  1.00  0.00     0.163 HD
HETATM   26  O   UNL     1     -43.016  60.425 -56.096  1.00  0.00    -0.268 OA
BRANCH  24  27
HETATM   27  C   UNL     1     -43.394  58.018 -57.752  1.00  0.00     0.022 C 
HETATM   28  C   UNL     1     -41.995  58.485 -58.188  1.00  0.00     0.037 C 
HETATM   29  C   UNL     1     -43.510  56.513 -58.059  1.00  0.00     0.037 C 
HETATM   30  C   UNL     1     -44.472  58.769 -58.543  1.00  0.00     0.037 C 
ENDBRANCH  24  27
ENDBRANCH   7  23
TORSDOF 5
ENDMDL
MODEL 10
REMARK VINA RESULT:      -6.8      2.546      7.852
REMARK  5 active torsions:
REMARK  status: ('A' for Active; 'I' for Inactive)
REMARK    1  A    between atoms: C_3  and  N_4 
REMARK       I    between atoms: N_4  and  C_5 
REMARK       I    between atoms: C_5  and  N_6 
REMARK    2  A    between atoms: N_6  and  C_7 
REMARK    3  A    between atoms: C_7  and  C_8 
REMARK    4  A    between atoms: C_20  and  C_21 
REMARK       I    between atoms: C_21  and  N_22 
REMARK    5  A    between atoms: N_22  and  C_23 
ROOT
HETATM    1  C   UNL     1     -41.308  56.175 -54.276  1.00  0.00     0.052 C 
HETATM    2  C   UNL     1     -42.302  56.925 -53.421  1.00  0.00    -0.020 A 
HETATM    3  C   UNL     1     -42.729  58.231 -53.774  1.00  0.00     0.043 A 
HETATM    4  C   UNL     1     -43.725  58.854 -53.010  1.00  0.00     0.030 A 
HETATM    5  C   UNL     1     -44.309  58.205 -51.918  1.00  0.00     0.003 A 
HETATM    6  C   UNL     1     -43.860  56.948 -51.534  1.00  0.00     0.018 A 
HETATM    7  C   UNL     1     -42.836  56.325 -52.255  1.00  0.00     0.040 A 
ENDROOT
BRANCH   3   8
HETATM    8  N   UNL     1     -42.064  58.881 -54.837  1.00  0.00    -0.309 N 
HETATM    9  C   UNL     1     -42.366  59.145 -56.132  1.00  0.00     0.321 C 
HETATM   10  N   UNL     1     -43.375  58.458 -56.724  1.00  0.00    -0.338 N 
HETATM   11  O   UNL     1     -41.690  59.978 -56.733  1.00  0.00    -0.247 OA
HETATM   12  H   UNL     1     -43.458  57.497 -56.426  1.00  0.00     0.164 HD
HETATM   13  H   UNL     1     -41.209  59.367 -54.600  1.00  0.00     0.170 HD
BRANCH  10  14
HETATM   14  C   UNL     1     -43.655  58.711 -58.120  1.00  0.00     0.167 C 
BRANCH  14  15
HETATM   15  C   UNL     1     -44.535  57.641 -58.657  1.00  0.00     0.009 A 
HETATM   16  C   UNL     1     -44.133  56.452 -59.330  1.00  0.00     0.060 A 
HETATM   17  C   UNL     1     -42.756  55.996 -59.643  1.00  0.00     0.073 C 
HETATM   18  N   UNL     1     -45.183  55.714 -59.706  1.00  0.00    -0.179 NA
HETATM   19  N   UNL     1     -46.245  56.426 -59.308  1.00  0.00    -0.282 N 
HETATM   20  H   UNL     1     -47.170  56.060 -59.511  1.00  0.00     0.189 HD
HETATM   21  C   UNL     1     -45.919  57.593 -58.679  1.00  0.00     0.034 A 
HETATM   22  C   UNL     1     -46.953  58.531 -58.183  1.00  0.00     0.070 C 
ENDBRANCH  14  15
ENDBRANCH  10  14
ENDBRANCH   3   8
BRANCH   7  23
HETATM   23  C   UNL     1     -42.326  55.041 -51.695  1.00  0.00     0.252 C 
HETATM   24  N   UNL     1     -41.117  55.145 -51.039  1.00  0.00    -0.349 N 
HETATM   25  H   UNL     1     -40.788  56.083 -50.847  1.00  0.00     0.163 HD
HETATM   26  O   UNL     1     -42.999  54.026 -51.788  1.00  0.00    -0.268 OA
BRANCH  24  27
HETATM   27  C   UNL     1     -40.443  54.053 -50.321  1.00  0.00     0.022 C 
HETATM   28  C   UNL     1     -39.021  54.449 -49.891  1.00  0.00     0.037 C 
HETATM   29  C   UNL     1     -41.259  53.756 -49.048  1.00  0.00     0.037 C 
HETATM   30  C   UNL     1     -40.401  52.789 -51.188  1.00  0.00     0.037 C 
ENDBRANCH  24  27
ENDBRANCH   7  23
TORSDOF 5
ENDMDL
