MODEL 1
REMARK VINA RESULT:      -8.3      0.000      0.000
REMARK  7 active torsions:
REMARK  status: ('A' for Active; 'I' for Inactive)
REMARK    1  A    between atoms: C_4  and  C_5 
REMARK    2  A    between atoms: C_5  and  N_6 
REMARK       I    between atoms: N_6  and  C_7 
REMARK    3  A    between atoms: N_6  and  C_22 
REMARK    4  A    between atoms: C_7  and  C_8 
REMARK    5  A    between atoms: C_13  and  C_14 
REMARK    6  A    between atoms: C_15  and  O_16 
REMARK    7  A    between atoms: C_22  and  C_23 
ROOT
HETATM    1  N   UNL     1     -43.062  57.289 -55.324  1.00  0.00    -0.343 N 
HETATM    2  C   UNL     1     -43.268  58.350 -54.445  1.00  0.00     0.235 C 
HETATM    3  O   UNL     1     -42.816  59.473 -54.688  1.00  0.00    -0.272 OA
ENDROOT
BRANCH   2   4
HETATM    4  C   UNL     1     -44.098  58.142 -53.191  1.00  0.00     0.195 C 
HETATM    5  C   UNL     1     -44.938  59.348 -52.898  1.00  0.00     0.247 C 
HETATM    6  O   UNL     1     -45.573  60.016 -53.696  1.00  0.00    -0.271 OA
HETATM    7  N   UNL     1     -44.949  59.519 -51.528  1.00  0.00    -0.290 N 
HETATM    8  N   UNL     1     -44.090  58.651 -50.848  1.00  0.00    -0.228 NA
HETATM    9  H   UNL     1     -45.383  60.335 -51.104  1.00  0.00     0.183 HD
HETATM   10  C   UNL     1     -43.226  58.060 -51.917  1.00  0.00     0.134 C 
HETATM   11  H   UNL     1     -44.674  57.896 -50.463  1.00  0.00     0.147 HD
BRANCH  10  12
HETATM   12  C   UNL     1     -42.721  56.677 -51.520  1.00  0.00    -0.004 A 
HETATM   13  C   UNL     1     -43.565  55.726 -50.917  1.00  0.00     0.073 A 
HETATM   14  C   UNL     1     -43.101  54.465 -50.544  1.00  0.00     0.037 A 
HETATM   15  C   UNL     1     -41.769  54.123 -50.750  1.00  0.00     0.003 A 
HETATM   16  C   UNL     1     -40.902  55.051 -51.317  1.00  0.00     0.001 A 
HETATM   17  C   UNL     1     -41.372  56.315 -51.690  1.00  0.00     0.012 A 
BRANCH  13  18
HETATM   18  O   UNL     1     -44.888  55.967 -50.662  1.00  0.00    -0.360 OA
HETATM   19  H   UNL     1     -44.969  56.825 -50.200  1.00  0.00     0.217 HD
ENDBRANCH  13  18
ENDBRANCH  10  12
ENDBRANCH   2   4
BRANCH   1  20
HETATM   20  C   UNL     1     -42.569  57.622 -56.672  1.00  0.00     0.164 C 
BRANCH  20  21
HETATM   21  C   UNL     1     -43.436  57.058 -57.776  1.00  0.00    -0.040 A 
HETATM   22  C   UNL     1     -43.018  55.940 -58.511  1.00  0.00     0.009 A 
HETATM   23  C   UNL     1     -43.812  55.434 -59.542  1.00  0.00     0.001 A 
HETATM   24  C   UNL     1     -45.032  56.036 -59.844  1.00  0.00     0.000 A 
HETATM   25  C   UNL     1     -45.462  57.143 -59.114  1.00  0.00     0.001 A 
HETATM   26  C   UNL     1     -44.671  57.650 -58.083  1.00  0.00     0.009 A 
ENDBRANCH  20  21
ENDBRANCH   1  20
BRANCH   1  27
HETATM   27  C   UNL     1     -43.482  55.898 -55.089  1.00  0.00     0.164 C 
BRANCH  27  28
HETATM   28  C   UNL     1     -42.344  54.918 -54.902  1.00  0.00    -0.040 A 
HETATM   29  C   UNL     1     -41.018  55.276 -55.196  1.00  0.00     0.009 A 
HETATM   30  C   UNL     1     -39.976  54.370 -54.997  1.00  0.00     0.001 A 
HETATM   31  C   UNL     1     -40.244  53.100 -54.489  1.00  0.00     0.000 A 
HETATM   32  C   UNL     1     -41.553  52.737 -54.177  1.00  0.00     0.001 A 
HETATM   33  C   UNL     1     -42.597  53.642 -54.378  1.00  0.00     0.009 A 
ENDBRANCH  27  28
ENDBRANCH   1  27
TORSDOF 7
ENDMDL
MODEL 2
REMARK VINA RESULT:      -7.8     16.073     17.664
REMARK  7 active torsions:
REMARK  status: ('A' for Active; 'I' for Inactive)
REMARK    1  A    between atoms: C_4  and  C_5 
REMARK    2  A    between atoms: C_5  and  N_6 
REMARK       I    between atoms: N_6  and  C_7 
REMARK    3  A    between atoms: N_6  and  C_22 
REMARK    4  A    between atoms: C_7  and  C_8 
REMARK    5  A    between atoms: C_13  and  C_14 
REMARK    6  A    between atoms: C_15  and  O_16 
REMARK    7  A    between atoms: C_22  and  C_23 
ROOT
HETATM    1  N   UNL     1     -35.618  40.622 -55.884  1.00  0.00    -0.343 N 
HETATM    2  C   UNL     1     -36.558  41.455 -55.281  1.00  0.00     0.235 C 
HETATM    3  O   UNL     1     -36.711  42.620 -55.661  1.00  0.00    -0.272 OA
ENDROOT
BRANCH   2   4
HETATM    4  C   UNL     1     -37.443  40.917 -54.171  1.00  0.00     0.195 C 
HETATM    5  C   UNL     1     -38.888  41.204 -54.452  1.00  0.00     0.247 C 
HETATM    6  O   UNL     1     -39.467  41.096 -55.519  1.00  0.00    -0.271 OA
HETATM    7  N   UNL     1     -39.485  41.523 -53.249  1.00  0.00    -0.290 N 
HETATM    8  N   UNL     1     -38.583  41.633 -52.187  1.00  0.00    -0.228 NA
HETATM    9  H   UNL     1     -40.448  41.847 -53.210  1.00  0.00     0.183 HD
HETATM   10  C   UNL     1     -37.236  41.670 -52.838  1.00  0.00     0.134 C 
HETATM   11  H   UNL     1     -38.648  40.757 -51.650  1.00  0.00     0.147 HD
BRANCH  10  12
HETATM   12  C   UNL     1     -36.155  41.130 -51.907  1.00  0.00    -0.004 A 
HETATM   13  C   UNL     1     -34.976  41.853 -51.645  1.00  0.00     0.073 A 
HETATM   14  C   UNL     1     -33.983  41.355 -50.802  1.00  0.00     0.037 A 
HETATM   15  C   UNL     1     -34.134  40.107 -50.207  1.00  0.00     0.003 A 
HETATM   16  C   UNL     1     -35.273  39.356 -50.470  1.00  0.00     0.001 A 
HETATM   17  C   UNL     1     -36.268  39.859 -51.316  1.00  0.00     0.012 A 
BRANCH  13  18
HETATM   18  O   UNL     1     -34.727  43.084 -52.188  1.00  0.00    -0.360 OA
HETATM   19  H   UNL     1     -33.763  43.183 -52.317  1.00  0.00     0.217 HD
ENDBRANCH  13  18
ENDBRANCH  10  12
ENDBRANCH   2   4
BRANCH   1  20
HETATM   20  C   UNL     1     -35.049  41.072 -57.166  1.00  0.00     0.164 C 
BRANCH  20  21
HETATM   21  C   UNL     1     -35.915  40.717 -58.355  1.00  0.00    -0.040 A 
HETATM   22  C   UNL     1     -35.910  39.417 -58.879  1.00  0.00     0.009 A 
HETATM   23  C   UNL     1     -36.695  39.098 -59.988  1.00  0.00     0.001 A 
HETATM   24  C   UNL     1     -37.496  40.073 -60.580  1.00  0.00     0.000 A 
HETATM   25  C   UNL     1     -37.517  41.366 -60.062  1.00  0.00     0.001 A 
HETATM   26  C   UNL     1     -36.733  41.687 -58.953  1.00  0.00     0.009 A 
ENDBRANCH  20  21
ENDBRANCH   1  20
BRANCH   1  27
HETATM   27  C   UNL     1     -35.299  39.251 -55.452  1.00  0.00     0.164 C 
BRANCH  27  28
HETATM   28  C   UNL     1     -34.117  39.145 -54.512  1.00  0.00    -0.040 A 
HETATM   29  C   UNL     1     -33.907  37.994 -53.735  1.00  0.00     0.009 A 
HETATM   30  C   UNL     1     -32.800  37.900 -52.890  1.00  0.00     0.001 A 
HETATM   31  C   UNL     1     -31.884  38.948 -52.821  1.00  0.00     0.000 A 
HETATM   32  C   UNL     1     -32.072  40.089 -53.599  1.00  0.00     0.001 A 
HETATM   33  C   UNL     1     -33.180  40.185 -54.443  1.00  0.00     0.009 A 
ENDBRANCH  27  28
ENDBRANCH   1  27
TORSDOF 7
ENDMDL
MODEL 3
REMARK VINA RESULT:      -7.8      2.257      5.637
REMARK  7 active torsions:
REMARK  status: ('A' for Active; 'I' for Inactive)
REMARK    1  A    between atoms: C_4  and  C_5 
REMARK    2  A    between atoms: C_5  and  N_6 
REMARK       I    between atoms: N_6  and  C_7 
REMARK    3  A    between atoms: N_6  and  C_22 
REMARK    4  A    between atoms: C_7  and  C_8 
REMARK    5  A    between atoms: C_13  and  C_14 
REMARK    6  A    between atoms: C_15  and  O_16 
REMARK    7  A    between atoms: C_22  and  C_23 
ROOT
HETATM    1  N   UNL     1     -43.058  59.325 -54.650  1.00  0.00    -0.343 N 
HETATM    2  C   UNL     1     -43.484  58.450 -55.647  1.00  0.00     0.235 C 
HETATM    3  O   UNL     1     -44.680  58.357 -55.942  1.00  0.00    -0.272 OA
ENDROOT
BRANCH   2   4
HETATM    4  C   UNL     1     -42.466  57.628 -56.416  1.00  0.00     0.195 C 
HETATM    5  C   UNL     1     -42.415  58.049 -57.855  1.00  0.00     0.247 C 
HETATM    6  O   UNL     1     -42.428  59.188 -58.290  1.00  0.00    -0.271 OA
HETATM    7  N   UNL     1     -42.247  56.907 -58.612  1.00  0.00    -0.290 N 
HETATM    8  N   UNL     1     -42.325  55.725 -57.869  1.00  0.00    -0.228 NA
HETATM    9  H   UNL     1     -42.279  56.941 -59.628  1.00  0.00     0.183 HD
HETATM   10  C   UNL     1     -42.886  56.146 -56.548  1.00  0.00     0.134 C 
HETATM   11  H   UNL     1     -41.358  55.409 -57.713  1.00  0.00     0.147 HD
BRANCH  10  12
HETATM   12  C   UNL     1     -42.440  55.207 -55.432  1.00  0.00    -0.004 A 
HETATM   13  C   UNL     1     -43.323  54.793 -54.417  1.00  0.00     0.073 A 
HETATM   14  C   UNL     1     -42.913  53.942 -53.390  1.00  0.00     0.037 A 
HETATM   15  C   UNL     1     -41.598  53.492 -53.340  1.00  0.00     0.003 A 
HETATM   16  C   UNL     1     -40.694  53.907 -54.311  1.00  0.00     0.001 A 
HETATM   17  C   UNL     1     -41.109  54.760 -55.339  1.00  0.00     0.012 A 
BRANCH  13  18
HETATM   18  O   UNL     1     -44.632  55.187 -54.369  1.00  0.00    -0.360 OA
HETATM   19  H   UNL     1     -44.758  55.942 -54.976  1.00  0.00     0.217 HD
ENDBRANCH  13  18
ENDBRANCH  10  12
ENDBRANCH   2   4
BRANCH   1  20
HETATM   20  C   UNL     1     -44.023  60.340 -54.192  1.00  0.00     0.164 C 
BRANCH  20  21
HETATM   21  C   UNL     1     -44.453  60.143 -52.755  1.00  0.00    -0.040 A 
HETATM   22  C   UNL     1     -45.055  58.944 -52.348  1.00  0.00     0.009 A 
HETATM   23  C   UNL     1     -45.468  58.773 -51.026  1.00  0.00     0.001 A 
HETATM   24  C   UNL     1     -45.278  59.794 -50.097  1.00  0.00     0.000 A 
HETATM   25  C   UNL     1     -44.671  60.987 -50.487  1.00  0.00     0.001 A 
HETATM   26  C   UNL     1     -44.257  61.160 -51.809  1.00  0.00     0.009 A 
ENDBRANCH  20  21
ENDBRANCH   1  20
BRANCH   1  27
HETATM   27  C   UNL     1     -41.674  59.448 -54.164  1.00  0.00     0.164 C 
BRANCH  27  28
HETATM   28  C   UNL     1     -41.408  58.771 -52.837  1.00  0.00    -0.040 A 
HETATM   29  C   UNL     1     -40.973  59.503 -51.720  1.00  0.00     0.009 A 
HETATM   30  C   UNL     1     -40.755  58.869 -50.497  1.00  0.00     0.001 A 
HETATM   31  C   UNL     1     -40.980  57.500 -50.370  1.00  0.00     0.000 A 
HETATM   32  C   UNL     1     -41.427  56.764 -51.466  1.00  0.00     0.001 A 
HETATM   33  C   UNL     1     -41.644  57.397 -52.692  1.00  0.00     0.009 A 
ENDBRANCH  27  28
ENDBRANCH   1  27
TORSDOF 7
ENDMDL
MODEL 4
REMARK VINA RESULT:      -7.6     16.447     18.219
REMARK  7 active torsions:
REMARK  status: ('A' for Active; 'I' for Inactive)
REMARK    1  A    between atoms: C_4  and  C_5 
REMARK    2  A    between atoms: C_5  and  N_6 
REMARK       I    between atoms: N_6  and  C_7 
REMARK    3  A    between atoms: N_6  and  C_22 
REMARK    4  A    between atoms: C_7  and  C_8 
REMARK    5  A    between atoms: C_13  and  C_14 
REMARK    6  A    between atoms: C_15  and  O_16 
REMARK    7  A    between atoms: C_22  and  C_23 
ROOT
HETATM    1  N   UNL     1     -35.891  41.024 -54.389  1.00  0.00    -0.343 N 
HETATM    2  C   UNL     1     -36.323  41.285 -53.091  1.00  0.00     0.235 C 
HETATM    3  O   UNL     1     -36.593  42.435 -52.731  1.00  0.00    -0.272 OA
ENDROOT
BRANCH   2   4
HETATM    4  C   UNL     1     -36.509  40.140 -52.112  1.00  0.00     0.195 C 
HETATM    5  C   UNL     1     -37.959  39.952 -51.778  1.00  0.00     0.247 C 
HETATM    6  O   UNL     1     -38.903  39.984 -52.548  1.00  0.00    -0.271 OA
HETATM    7  N   UNL     1     -38.033  39.634 -50.436  1.00  0.00    -0.290 N 
HETATM    8  N   UNL     1     -36.808  39.724 -49.770  1.00  0.00    -0.228 NA
HETATM    9  H   UNL     1     -38.931  39.553 -49.965  1.00  0.00     0.183 HD
HETATM   10  C   UNL     1     -35.914  40.454 -50.721  1.00  0.00     0.134 C 
HETATM   11  H   UNL     1     -36.450  38.763 -49.676  1.00  0.00     0.147 HD
BRANCH  10  12
HETATM   12  C   UNL     1     -34.451  40.081 -50.503  1.00  0.00    -0.004 A 
HETATM   13  C   UNL     1     -33.403  40.843 -51.055  1.00  0.00     0.073 A 
HETATM   14  C   UNL     1     -32.065  40.497 -50.864  1.00  0.00     0.037 A 
HETATM   15  C   UNL     1     -31.737  39.365 -50.126  1.00  0.00     0.003 A 
HETATM   16  C   UNL     1     -32.749  38.575 -49.593  1.00  0.00     0.001 A 
HETATM   17  C   UNL     1     -34.089  38.926 -49.786  1.00  0.00     0.012 A 
BRANCH  13  18
HETATM   18  O   UNL     1     -33.621  41.966 -51.805  1.00  0.00    -0.360 OA
HETATM   19  H   UNL     1     -34.109  41.717 -52.614  1.00  0.00     0.217 HD
ENDBRANCH  13  18
ENDBRANCH  10  12
ENDBRANCH   2   4
BRANCH   1  20
HETATM   20  C   UNL     1     -36.068  42.097 -55.383  1.00  0.00     0.164 C 
BRANCH  20  21
HETATM   21  C   UNL     1     -36.765  41.630 -56.642  1.00  0.00    -0.040 A 
HETATM   22  C   UNL     1     -37.954  40.890 -56.566  1.00  0.00     0.009 A 
HETATM   23  C   UNL     1     -38.584  40.444 -57.729  1.00  0.00     0.001 A 
HETATM   24  C   UNL     1     -38.037  40.736 -58.976  1.00  0.00     0.000 A 
HETATM   25  C   UNL     1     -36.861  41.479 -59.065  1.00  0.00     0.001 A 
HETATM   26  C   UNL     1     -36.229  41.928 -57.904  1.00  0.00     0.009 A 
ENDBRANCH  20  21
ENDBRANCH   1  20
BRANCH   1  27
HETATM   27  C   UNL     1     -35.462  39.708 -54.892  1.00  0.00     0.164 C 
BRANCH  27  28
HETATM   28  C   UNL     1     -34.071  39.292 -54.466  1.00  0.00    -0.040 A 
HETATM   29  C   UNL     1     -33.854  38.103 -53.750  1.00  0.00     0.009 A 
HETATM   30  C   UNL     1     -32.563  37.720 -53.384  1.00  0.00     0.001 A 
HETATM   31  C   UNL     1     -31.473  38.512 -53.741  1.00  0.00     0.000 A 
HETATM   32  C   UNL     1     -31.673  39.685 -54.465  1.00  0.00     0.001 A 
HETATM   33  C   UNL     1     -32.964  40.071 -54.830  1.00  0.00     0.009 A 
ENDBRANCH  27  28
ENDBRANCH   1  27
TORSDOF 7
ENDMDL
MODEL 5
REMARK VINA RESULT:      -7.6      2.166      5.839
REMARK  7 active torsions:
REMARK  status: ('A' for Active; 'I' for Inactive)
REMARK    1  A    between atoms: C_4  and  C_5 
REMARK    2  A    between atoms: C_5  and  N_6 
REMARK       I    between atoms: N_6  and  C_7 
REMARK    3  A    between atoms: N_6  and  C_22 
REMARK    4  A    between atoms: C_7  and  C_8 
REMARK    5  A    between atoms: C_13  and  C_14 
REMARK    6  A    between atoms: C_15  and  O_16 
REMARK    7  A    between atoms: C_22  and  C_23 
ROOT
HETATM    1  N   UNL     1     -42.766  56.024 -53.219  1.00  0.00    -0.343 N 
HETATM    2  C   UNL     1     -42.856  56.652 -51.979  1.00  0.00     0.235 C 
HETATM    3  O   UNL     1     -43.464  56.125 -51.042  1.00  0.00    -0.272 OA
ENDROOT
BRANCH   2   4
HETATM    4  C   UNL     1     -42.161  57.983 -51.754  1.00  0.00     0.195 C 
HETATM    5  C   UNL     1     -41.233  57.910 -50.578  1.00  0.00     0.247 C 
HETATM    6  O   UNL     1     -40.470  57.002 -50.296  1.00  0.00    -0.271 OA
HETATM    7  N   UNL     1     -41.322  59.115 -49.910  1.00  0.00    -0.290 N 
HETATM    8  N   UNL     1     -42.317  59.960 -50.407  1.00  0.00    -0.228 NA
HETATM    9  H   UNL     1     -40.847  59.259 -49.022  1.00  0.00     0.183 HD
HETATM   10  C   UNL     1     -43.141  59.088 -51.301  1.00  0.00     0.134 C 
HETATM   11  H   UNL     1     -41.846  60.659 -50.998  1.00  0.00     0.147 HD
BRANCH  10  12
HETATM   12  C   UNL     1     -43.813  59.901 -52.403  1.00  0.00    -0.004 A 
HETATM   13  C   UNL     1     -43.064  60.590 -53.375  1.00  0.00     0.073 A 
HETATM   14  C   UNL     1     -43.677  61.342 -54.377  1.00  0.00     0.037 A 
HETATM   15  C   UNL     1     -45.064  61.440 -54.425  1.00  0.00     0.003 A 
HETATM   16  C   UNL     1     -45.830  60.797 -53.460  1.00  0.00     0.001 A 
HETATM   17  C   UNL     1     -45.211  60.043 -52.458  1.00  0.00     0.012 A 
BRANCH  13  18
HETATM   18  O   UNL     1     -41.696  60.565 -53.410  1.00  0.00    -0.360 OA
HETATM   19  H   UNL     1     -41.367  60.119 -52.605  1.00  0.00     0.217 HD
ENDBRANCH  13  18
ENDBRANCH  10  12
ENDBRANCH   2   4
BRANCH   1  20
HETATM   20  C   UNL     1     -43.143  54.600 -53.277  1.00  0.00     0.164 C 
BRANCH  20  21
HETATM   21  C   UNL     1     -41.953  53.669 -53.205  1.00  0.00    -0.040 A 
HETATM   22  C   UNL     1     -41.565  52.919 -54.324  1.00  0.00     0.009 A 
HETATM   23  C   UNL     1     -40.478  52.046 -54.247  1.00  0.00     0.001 A 
HETATM   24  C   UNL     1     -39.766  51.919 -53.056  1.00  0.00     0.000 A 
HETATM   25  C   UNL     1     -40.137  52.667 -51.940  1.00  0.00     0.001 A 
HETATM   26  C   UNL     1     -41.223  53.541 -52.014  1.00  0.00     0.009 A 
ENDBRANCH  20  21
ENDBRANCH   1  20
BRANCH   1  27
HETATM   27  C   UNL     1     -42.142  56.602 -54.420  1.00  0.00     0.164 C 
BRANCH  27  28
HETATM   28  C   UNL     1     -43.081  57.403 -55.296  1.00  0.00    -0.040 A 
HETATM   29  C   UNL     1     -42.600  58.164 -56.374  1.00  0.00     0.009 A 
HETATM   30  C   UNL     1     -43.480  58.879 -57.187  1.00  0.00     0.001 A 
HETATM   31  C   UNL     1     -44.851  58.831 -56.943  1.00  0.00     0.000 A 
HETATM   32  C   UNL     1     -45.343  58.066 -55.887  1.00  0.00     0.001 A 
HETATM   33  C   UNL     1     -44.464  57.353 -55.071  1.00  0.00     0.009 A 
ENDBRANCH  27  28
ENDBRANCH   1  27
TORSDOF 7
ENDMDL
MODEL 6
REMARK VINA RESULT:      -7.5      2.513      4.414
REMARK  7 active torsions:
REMARK  status: ('A' for Active; 'I' for Inactive)
REMARK    1  A    between atoms: C_4  and  C_5 
REMARK    2  A    between atoms: C_5  and  N_6 
REMARK       I    between atoms: N_6  and  C_7 
REMARK    3  A    between atoms: N_6  and  C_22 
REMARK    4  A    between atoms: C_7  and  C_8 
REMARK    5  A    between atoms: C_13  and  C_14 
REMARK    6  A    between atoms: C_15  and  O_16 
REMARK    7  A    between atoms: C_22  and  C_23 
ROOT
HETATM    1  N   UNL     1     -43.494  56.703 -54.366  1.00  0.00    -0.343 N 
HETATM    2  C   UNL     1     -43.188  57.870 -55.063  1.00  0.00     0.235 C 
HETATM    3  O   UNL     1     -42.710  57.823 -56.201  1.00  0.00    -0.272 OA
ENDROOT
BRANCH   2   4
HETATM    4  C   UNL     1     -43.485  59.222 -54.441  1.00  0.00     0.195 C 
HETATM    5  C   UNL     1     -44.170  60.125 -55.423  1.00  0.00     0.247 C 
HETATM    6  O   UNL     1     -45.066  59.829 -56.195  1.00  0.00    -0.271 OA
HETATM    7  N   UNL     1     -43.670  61.397 -55.230  1.00  0.00    -0.290 N 
HETATM    8  N   UNL     1     -42.608  61.450 -54.323  1.00  0.00    -0.228 NA
HETATM    9  H   UNL     1     -43.924  62.161 -55.851  1.00  0.00     0.183 HD
HETATM   10  C   UNL     1     -42.200  60.023 -54.135  1.00  0.00     0.134 C 
HETATM   11  H   UNL     1     -42.996  61.786 -53.430  1.00  0.00     0.147 HD
BRANCH  10  12
HETATM   12  C   UNL     1     -41.566  59.804 -52.765  1.00  0.00    -0.004 A 
HETATM   13  C   UNL     1     -42.196  60.229 -51.581  1.00  0.00     0.073 A 
HETATM   14  C   UNL     1     -41.612  60.038 -50.329  1.00  0.00     0.037 A 
HETATM   15  C   UNL     1     -40.367  59.428 -50.227  1.00  0.00     0.003 A 
HETATM   16  C   UNL     1     -39.704  59.024 -51.380  1.00  0.00     0.001 A 
HETATM   17  C   UNL     1     -40.294  59.216 -52.634  1.00  0.00     0.012 A 
BRANCH  13  18
HETATM   18  O   UNL     1     -43.417  60.849 -51.574  1.00  0.00    -0.360 OA
HETATM   19  H   UNL     1     -43.457  61.459 -50.812  1.00  0.00     0.217 HD
ENDBRANCH  13  18
ENDBRANCH  10  12
ENDBRANCH   2   4
BRANCH   1  20
HETATM   20  C   UNL     1     -43.521  55.448 -55.138  1.00  0.00     0.164 C 
BRANCH  20  21
HETATM   21  C   UNL     1     -42.296  54.589 -54.914  1.00  0.00    -0.040 A 
HETATM   22  C   UNL     1     -42.421  53.283 -54.420  1.00  0.00     0.009 A 
HETATM   23  C   UNL     1     -41.287  52.501 -54.196  1.00  0.00     0.001 A 
HETATM   24  C   UNL     1     -40.020  53.011 -54.469  1.00  0.00     0.000 A 
HETATM   25  C   UNL     1     -39.884  54.305 -54.970  1.00  0.00     0.001 A 
HETATM   26  C   UNL     1     -41.016  55.090 -55.195  1.00  0.00     0.009 A 
ENDBRANCH  20  21
ENDBRANCH   1  20
BRANCH   1  27
HETATM   27  C   UNL     1     -43.983  56.647 -52.979  1.00  0.00     0.164 C 
BRANCH  27  28
HETATM   28  C   UNL     1     -43.110  55.853 -52.032  1.00  0.00    -0.040 A 
HETATM   29  C   UNL     1     -43.591  54.699 -51.392  1.00  0.00     0.009 A 
HETATM   30  C   UNL     1     -42.767  53.964 -50.540  1.00  0.00     0.001 A 
HETATM   31  C   UNL     1     -41.448  54.363 -50.328  1.00  0.00     0.000 A 
HETATM   32  C   UNL     1     -40.953  55.496 -50.970  1.00  0.00     0.001 A 
HETATM   33  C   UNL     1     -41.777  56.235 -51.821  1.00  0.00     0.009 A 
ENDBRANCH  27  28
ENDBRANCH   1  27
TORSDOF 7
ENDMDL
MODEL 7
REMARK VINA RESULT:      -7.4      1.926      3.673
REMARK  7 active torsions:
REMARK  status: ('A' for Active; 'I' for Inactive)
REMARK    1  A    between atoms: C_4  and  C_5 
REMARK    2  A    between atoms: C_5  and  N_6 
REMARK       I    between atoms: N_6  and  C_7 
REMARK    3  A    between atoms: N_6  and  C_22 
REMARK    4  A    between atoms: C_7  and  C_8 
REMARK    5  A    between atoms: C_13  and  C_14 
REMARK    6  A    between atoms: C_15  and  O_16 
REMARK    7  A    between atoms: C_22  and  C_23 
ROOT
HETATM    1  N   UNL     1     -42.497  55.542 -54.731  1.00  0.00    -0.343 N 
HETATM    2  C   UNL     1     -43.583  55.956 -53.963  1.00  0.00     0.235 C 
HETATM    3  O   UNL     1     -44.712  56.044 -54.455  1.00  0.00    -0.272 OA
ENDROOT
BRANCH   2   4
HETATM    4  C   UNL     1     -43.393  56.261 -52.488  1.00  0.00     0.195 C 
HETATM    5  C   UNL     1     -43.796  55.091 -51.642  1.00  0.00     0.247 C 
HETATM    6  O   UNL     1     -43.550  53.914 -51.847  1.00  0.00    -0.271 OA
HETATM    7  N   UNL     1     -44.422  55.592 -50.518  1.00  0.00    -0.290 N 
HETATM    8  N   UNL     1     -44.629  56.973 -50.561  1.00  0.00    -0.228 NA
HETATM    9  H   UNL     1     -44.864  54.972 -49.844  1.00  0.00     0.183 HD
HETATM   10  C   UNL     1     -44.366  57.351 -51.984  1.00  0.00     0.134 C 
HETATM   11  H   UNL     1     -43.893  57.402 -49.982  1.00  0.00     0.147 HD
BRANCH  10  12
HETATM   12  C   UNL     1     -43.893  58.797 -52.096  1.00  0.00    -0.004 A 
HETATM   13  C   UNL     1     -42.865  59.304 -51.279  1.00  0.00     0.073 A 
HETATM   14  C   UNL     1     -42.439  60.629 -51.373  1.00  0.00     0.037 A 
HETATM   15  C   UNL     1     -43.043  61.492 -52.281  1.00  0.00     0.003 A 
HETATM   16  C   UNL     1     -44.082  61.030 -53.081  1.00  0.00     0.001 A 
HETATM   17  C   UNL     1     -44.506  59.700 -52.983  1.00  0.00     0.012 A 
BRANCH  13  18
HETATM   18  O   UNL     1     -42.214  58.540 -50.349  1.00  0.00    -0.360 OA
HETATM   19  H   UNL     1     -41.498  58.045 -50.792  1.00  0.00     0.217 HD
ENDBRANCH  13  18
ENDBRANCH  10  12
ENDBRANCH   2   4
BRANCH   1  20
HETATM   20  C   UNL     1     -42.796  54.925 -56.036  1.00  0.00     0.164 C 
BRANCH  20  21
HETATM   21  C   UNL     1     -42.756  55.913 -57.180  1.00  0.00    -0.040 A 
HETATM   22  C   UNL     1     -43.103  55.515 -58.479  1.00  0.00     0.009 A 
HETATM   23  C   UNL     1     -43.046  56.425 -59.536  1.00  0.00     0.001 A 
HETATM   24  C   UNL     1     -42.648  57.740 -59.306  1.00  0.00     0.000 A 
HETATM   25  C   UNL     1     -42.310  58.150 -58.017  1.00  0.00     0.001 A 
HETATM   26  C   UNL     1     -42.366  57.242 -56.958  1.00  0.00     0.009 A 
ENDBRANCH  20  21
ENDBRANCH   1  20
BRANCH   1  27
HETATM   27  C   UNL     1     -41.102  55.486 -54.266  1.00  0.00     0.164 C 
BRANCH  27  28
HETATM   28  C   UNL     1     -40.658  54.129 -53.762  1.00  0.00    -0.040 A 
HETATM   29  C   UNL     1     -40.400  53.071 -54.649  1.00  0.00     0.009 A 
HETATM   30  C   UNL     1     -39.969  51.833 -54.171  1.00  0.00     0.001 A 
HETATM   31  C   UNL     1     -39.776  51.641 -52.804  1.00  0.00     0.000 A 
HETATM   32  C   UNL     1     -40.011  52.688 -51.915  1.00  0.00     0.001 A 
HETATM   33  C   UNL     1     -40.445  53.927 -52.391  1.00  0.00     0.009 A 
ENDBRANCH  27  28
ENDBRANCH   1  27
TORSDOF 7
ENDMDL
MODEL 8
REMARK VINA RESULT:      -7.4      2.380      6.260
REMARK  7 active torsions:
REMARK  status: ('A' for Active; 'I' for Inactive)
REMARK    1  A    between atoms: C_4  and  C_5 
REMARK    2  A    between atoms: C_5  and  N_6 
REMARK       I    between atoms: N_6  and  C_7 
REMARK    3  A    between atoms: N_6  and  C_22 
REMARK    4  A    between atoms: C_7  and  C_8 
REMARK    5  A    between atoms: C_13  and  C_14 
REMARK    6  A    between atoms: C_15  and  O_16 
REMARK    7  A    between atoms: C_22  and  C_23 
ROOT
HETATM    1  N   UNL     1     -42.360  57.274 -53.909  1.00  0.00    -0.343 N 
HETATM    2  C   UNL     1     -43.536  57.191 -54.650  1.00  0.00     0.235 C 
HETATM    3  O   UNL     1     -44.232  56.171 -54.624  1.00  0.00    -0.272 OA
ENDROOT
BRANCH   2   4
HETATM    4  C   UNL     1     -44.000  58.382 -55.469  1.00  0.00     0.195 C 
HETATM    5  C   UNL     1     -45.085  59.133 -54.756  1.00  0.00     0.247 C 
HETATM    6  O   UNL     1     -45.130  59.414 -53.571  1.00  0.00    -0.271 OA
HETATM    7  N   UNL     1     -45.995  59.544 -55.709  1.00  0.00    -0.290 N 
HETATM    8  N   UNL     1     -45.738  59.036 -56.986  1.00  0.00    -0.228 NA
HETATM    9  H   UNL     1     -46.867  59.993 -55.443  1.00  0.00     0.183 HD
HETATM   10  C   UNL     1     -44.724  57.958 -56.766  1.00  0.00     0.134 C 
HETATM   11  H   UNL     1     -45.283  59.790 -57.519  1.00  0.00     0.147 HD
BRANCH  10  12
HETATM   12  C   UNL     1     -43.854  57.755 -58.002  1.00  0.00    -0.004 A 
HETATM   13  C   UNL     1     -43.370  56.484 -58.366  1.00  0.00     0.073 A 
HETATM   14  C   UNL     1     -42.566  56.300 -59.491  1.00  0.00     0.037 A 
HETATM   15  C   UNL     1     -42.207  57.389 -60.277  1.00  0.00     0.003 A 
HETATM   16  C   UNL     1     -42.643  58.662 -59.927  1.00  0.00     0.001 A 
HETATM   17  C   UNL     1     -43.450  58.842 -58.799  1.00  0.00     0.012 A 
BRANCH  13  18
HETATM   18  O   UNL     1     -43.657  55.352 -57.654  1.00  0.00    -0.360 OA
HETATM   19  H   UNL     1     -42.924  55.176 -57.031  1.00  0.00     0.217 HD
ENDBRANCH  13  18
ENDBRANCH  10  12
ENDBRANCH   2   4
BRANCH   1  20
HETATM   20  C   UNL     1     -42.146  56.248 -52.873  1.00  0.00     0.164 C 
BRANCH  20  21
HETATM   21  C   UNL     1     -41.398  55.037 -53.385  1.00  0.00    -0.040 A 
HETATM   22  C   UNL     1     -40.827  55.039 -54.665  1.00  0.00     0.009 A 
HETATM   23  C   UNL     1     -40.154  53.912 -55.141  1.00  0.00     0.001 A 
HETATM   24  C   UNL     1     -40.042  52.776 -54.343  1.00  0.00     0.000 A 
HETATM   25  C   UNL     1     -40.598  52.765 -53.065  1.00  0.00     0.001 A 
HETATM   26  C   UNL     1     -41.270  53.891 -52.586  1.00  0.00     0.009 A 
ENDBRANCH  20  21
ENDBRANCH   1  20
BRANCH   1  27
HETATM   27  C   UNL     1     -41.417  58.405 -53.938  1.00  0.00     0.164 C 
BRANCH  27  28
HETATM   28  C   UNL     1     -40.998  58.912 -52.575  1.00  0.00    -0.040 A 
HETATM   29  C   UNL     1     -39.670  58.797 -52.132  1.00  0.00     0.009 A 
HETATM   30  C   UNL     1     -39.294  59.291 -50.882  1.00  0.00     0.001 A 
HETATM   31  C   UNL     1     -40.234  59.917 -50.066  1.00  0.00     0.000 A 
HETATM   32  C   UNL     1     -41.552  60.052 -50.500  1.00  0.00     0.001 A 
HETATM   33  C   UNL     1     -41.931  59.556 -51.749  1.00  0.00     0.009 A 
ENDBRANCH  27  28
ENDBRANCH   1  27
TORSDOF 7
ENDMDL
MODEL 9
REMARK VINA RESULT:      -7.2      2.131      3.854
REMARK  7 active torsions:
REMARK  status: ('A' for Active; 'I' for Inactive)
REMARK    1  A    between atoms: C_4  and  C_5 
REMARK    2  A    between atoms: C_5  and  N_6 
REMARK       I    between atoms: N_6  and  C_7 
REMARK    3  A    between atoms: N_6  and  C_22 
REMARK    4  A    between atoms: C_7  and  C_8 
REMARK    5  A    between atoms: C_13  and  C_14 
REMARK    6  A    between atoms: C_15  and  O_16 
REMARK    7  A    between atoms: C_22  and  C_23 
ROOT
HETATM    1  N   UNL     1     -44.175  59.233 -54.814  1.00  0.00    -0.343 N 
HETATM    2  C   UNL     1     -43.580  58.937 -53.589  1.00  0.00     0.235 C 
HETATM    3  O   UNL     1     -42.762  59.708 -53.078  1.00  0.00    -0.272 OA
ENDROOT
BRANCH   2   4
HETATM    4  C   UNL     1     -43.972  57.673 -52.845  1.00  0.00     0.195 C 
HETATM    5  C   UNL     1     -44.705  58.003 -51.579  1.00  0.00     0.247 C 
HETATM    6  O   UNL     1     -45.571  58.847 -51.427  1.00  0.00    -0.271 OA
HETATM    7  N   UNL     1     -44.291  57.102 -50.618  1.00  0.00    -0.290 N 
HETATM    8  N   UNL     1     -43.244  56.276 -51.037  1.00  0.00    -0.228 NA
HETATM    9  H   UNL     1     -44.588  57.193 -49.650  1.00  0.00     0.183 HD
HETATM   10  C   UNL     1     -42.745  56.910 -52.297  1.00  0.00     0.134 C 
HETATM   11  H   UNL     1     -43.662  55.369 -51.287  1.00  0.00     0.147 HD
BRANCH  10  12
HETATM   12  C   UNL     1     -42.111  55.877 -53.224  1.00  0.00    -0.004 A 
HETATM   13  C   UNL     1     -42.699  54.617 -53.439  1.00  0.00     0.073 A 
HETATM   14  C   UNL     1     -42.115  53.668 -54.278  1.00  0.00     0.037 A 
HETATM   15  C   UNL     1     -40.912  53.949 -54.916  1.00  0.00     0.003 A 
HETATM   16  C   UNL     1     -40.290  55.173 -54.700  1.00  0.00     0.001 A 
HETATM   17  C   UNL     1     -40.880  56.122 -53.858  1.00  0.00     0.012 A 
BRANCH  13  18
HETATM   18  O   UNL     1     -43.876  54.239 -52.851  1.00  0.00    -0.360 OA
HETATM   19  H   UNL     1     -43.996  54.751 -52.027  1.00  0.00     0.217 HD
ENDBRANCH  13  18
ENDBRANCH  10  12
ENDBRANCH   2   4
BRANCH   1  20
HETATM   20  C   UNL     1     -44.033  60.613 -55.311  1.00  0.00     0.164 C 
BRANCH  20  21
HETATM   21  C   UNL     1     -43.374  60.688 -56.670  1.00  0.00    -0.040 A 
HETATM   22  C   UNL     1     -44.034  61.287 -57.752  1.00  0.00     0.009 A 
HETATM   23  C   UNL     1     -43.430  61.337 -59.009  1.00  0.00     0.001 A 
HETATM   24  C   UNL     1     -42.161  60.793 -59.197  1.00  0.00     0.000 A 
HETATM   25  C   UNL     1     -41.491  60.203 -58.127  1.00  0.00     0.001 A 
HETATM   26  C   UNL     1     -42.092  60.153 -56.868  1.00  0.00     0.009 A 
ENDBRANCH  20  21
ENDBRANCH   1  20
BRANCH   1  27
HETATM   27  C   UNL     1     -45.092  58.346 -55.548  1.00  0.00     0.164 C 
BRANCH  27  28
HETATM   28  C   UNL     1     -44.458  57.592 -56.696  1.00  0.00    -0.040 A 
HETATM   29  C   UNL     1     -43.427  56.665 -56.478  1.00  0.00     0.009 A 
HETATM   30  C   UNL     1     -42.868  55.960 -57.545  1.00  0.00     0.001 A 
HETATM   31  C   UNL     1     -43.342  56.162 -58.840  1.00  0.00     0.000 A 
HETATM   32  C   UNL     1     -44.376  57.068 -59.068  1.00  0.00     0.001 A 
HETATM   33  C   UNL     1     -44.935  57.776 -58.003  1.00  0.00     0.009 A 
ENDBRANCH  27  28
ENDBRANCH   1  27
TORSDOF 7
ENDMDL
MODEL 10
REMARK VINA RESULT:      -7.2      2.038      5.754
REMARK  7 active torsions:
REMARK  status: ('A' for Active; 'I' for Inactive)
REMARK    1  A    between atoms: C_4  and  C_5 
REMARK    2  A    between atoms: C_5  and  N_6 
REMARK       I    between atoms: N_6  and  C_7 
REMARK    3  A    between atoms: N_6  and  C_22 
REMARK    4  A    between atoms: C_7  and  C_8 
REMARK    5  A    between atoms: C_13  and  C_14 
REMARK    6  A    between atoms: C_15  and  O_16 
REMARK    7  A    between atoms: C_22  and  C_23 
ROOT
HETATM    1  N   UNL     1     -43.730  58.569 -53.133  1.00  0.00    -0.343 N 
HETATM    2  C   UNL     1     -43.903  58.401 -54.505  1.00  0.00     0.235 C 
HETATM    3  O   UNL     1     -45.009  58.560 -55.029  1.00  0.00    -0.272 OA
ENDROOT
BRANCH   2   4
HETATM    4  C   UNL     1     -42.710  58.063 -55.381  1.00  0.00     0.195 C 
HETATM    5  C   UNL     1     -42.678  58.934 -56.601  1.00  0.00     0.247 C 
HETATM    6  O   UNL     1     -42.894  60.133 -56.657  1.00  0.00    -0.271 OA
HETATM    7  N   UNL     1     -42.257  58.149 -57.656  1.00  0.00    -0.290 N 
HETATM    8  N   UNL     1     -42.135  56.795 -57.333  1.00  0.00    -0.228 NA
HETATM    9  H   UNL     1     -42.249  58.508 -58.607  1.00  0.00     0.183 HD
HETATM   10  C   UNL     1     -42.826  56.658 -56.013  1.00  0.00     0.134 C 
HETATM   11  H   UNL     1     -41.132  56.615 -57.182  1.00  0.00     0.147 HD
BRANCH  10  12
HETATM   12  C   UNL     1     -42.255  55.495 -55.207  1.00  0.00    -0.004 A 
HETATM   13  C   UNL     1     -43.085  54.624 -54.476  1.00  0.00     0.073 A 
HETATM   14  C   UNL     1     -42.564  53.567 -53.730  1.00  0.00     0.037 A 
HETATM   15  C   UNL     1     -41.189  53.361 -53.681  1.00  0.00     0.003 A 
HETATM   16  C   UNL     1     -40.341  54.222 -54.367  1.00  0.00     0.001 A 
HETATM   17  C   UNL     1     -40.868  55.280 -55.114  1.00  0.00     0.012 A 
BRANCH  13  18
HETATM   18  O   UNL     1     -44.448  54.748 -54.451  1.00  0.00    -0.360 OA
HETATM   19  H   UNL     1     -44.817  54.054 -53.869  1.00  0.00     0.217 HD
ENDBRANCH  13  18
ENDBRANCH  10  12
ENDBRANCH   2   4
BRANCH   1  20
HETATM   20  C   UNL     1     -44.819  59.235 -52.396  1.00  0.00     0.164 C 
BRANCH  20  21
HETATM   21  C   UNL     1     -44.361  60.468 -51.649  1.00  0.00    -0.040 A 
HETATM   22  C   UNL     1     -43.860  61.578 -52.344  1.00  0.00     0.009 A 
HETATM   23  C   UNL     1     -43.421  62.707 -51.650  1.00  0.00     0.001 A 
HETATM   24  C   UNL     1     -43.482  62.739 -50.259  1.00  0.00     0.000 A 
HETATM   25  C   UNL     1     -43.986  61.646 -49.558  1.00  0.00     0.001 A 
HETATM   26  C   UNL     1     -44.427  60.516 -50.249  1.00  0.00     0.009 A 
ENDBRANCH  20  21
ENDBRANCH   1  20
BRANCH   1  27
HETATM   27  C   UNL     1     -42.478  58.321 -52.399  1.00  0.00     0.164 C 
BRANCH  27  28
HETATM   28  C   UNL     1     -42.450  57.025 -51.618  1.00  0.00    -0.040 A 
HETATM   29  C   UNL     1     -43.633  56.331 -51.315  1.00  0.00     0.009 A 
HETATM   30  C   UNL     1     -43.590  55.125 -50.614  1.00  0.00     0.001 A 
HETATM   31  C   UNL     1     -42.364  54.591 -50.220  1.00  0.00     0.000 A 
HETATM   32  C   UNL     1     -41.182  55.261 -50.528  1.00  0.00     0.001 A 
HETATM   33  C   UNL     1     -41.223  56.469 -51.227  1.00  0.00     0.009 A 
ENDBRANCH  27  28
ENDBRANCH   1  27
TORSDOF 7
ENDMDL
