MODEL 1
REMARK VINA RESULT:      -7.9      0.000      0.000
REMARK  8 active torsions:
REMARK  status: ('A' for Active; 'I' for Inactive)
REMARK    1  A    between atoms: C_4  and  C_5 
REMARK    2  A    between atoms: C_5  and  N_6 
REMARK       I    between atoms: N_6  and  C_7 
REMARK    3  A    between atoms: C_7  and  C_8 
REMARK    4  A    between atoms: C_9  and  N_10 
REMARK       I    between atoms: N_10  and  C_11 
REMARK    5  A    between atoms: C_11  and  C_12 
REMARK    6  A    between atoms: C_12  and  C_13 
REMARK    7  A    between atoms: C_13  and  C_14 
REMARK    8  A    between atoms: C_14  and  N_15 
ROOT
HETATM    1  C   UNL     1     -41.546  55.094 -53.138  1.00  0.00     0.073 A 
HETATM    2  C   UNL     1     -41.351  55.250 -54.506  1.00  0.00     0.093 A 
HETATM    3  S   UNL     1     -40.420  53.980 -55.196  1.00  0.00    -0.075 SA
HETATM    4  C   UNL     1     -40.317  53.152 -53.733  1.00  0.00    -0.008 A 
HETATM    5  C   UNL     1     -40.895  53.852 -52.695  1.00  0.00    -0.026 A 
HETATM    6  C   UNL     1     -40.857  53.313 -51.284  1.00  0.00     0.041 C 
HETATM    7  C   UNL     1     -39.844  52.167 -51.122  1.00  0.00     0.005 C 
HETATM    8  C   UNL     1     -39.926  51.167 -52.279  1.00  0.00     0.005 C 
HETATM    9  C   UNL     1     -39.603  51.841 -53.618  1.00  0.00     0.047 C 
ENDROOT
BRANCH   2  10
HETATM   10  N   UNL     1     -41.615  56.145 -55.522  1.00  0.00    -0.320 N 
HETATM   11  C   UNL     1     -42.810  56.724 -55.872  1.00  0.00     0.222 C 
HETATM   12  O   UNL     1     -43.909  56.461 -55.405  1.00  0.00    -0.273 OA
HETATM   13  H   UNL     1     -40.875  56.185 -56.214  1.00  0.00     0.169 HD
BRANCH  11  14
HETATM   14  C   UNL     1     -42.626  57.688 -57.036  1.00  0.00     0.105 C 
BRANCH  14  15
HETATM   15  C   UNL     1     -43.030  59.127 -56.733  1.00  0.00     0.029 C 
BRANCH  15  16
HETATM   16  C   UNL     1     -41.872  59.956 -56.176  1.00  0.00     0.136 C 
BRANCH  16  17
HETATM   17  N   UNL     1     -42.066  60.249 -54.768  1.00  0.00    -0.280 N 
HETATM   18  C   UNL     1     -41.445  59.565 -53.758  1.00  0.00     0.261 A 
HETATM   19  O   UNL     1     -40.675  58.625 -53.824  1.00  0.00    -0.267 OA
HETATM   20  C   UNL     1     -41.858  60.203 -52.510  1.00  0.00     0.048 A 
HETATM   21  C   UNL     1     -42.681  61.266 -52.837  1.00  0.00     0.048 A 
HETATM   22  C   UNL     1     -41.543  59.901 -51.200  1.00  0.00     0.018 A 
HETATM   23  C   UNL     1     -42.794  61.305 -54.294  1.00  0.00     0.261 A 
HETATM   24  C   UNL     1     -43.236  62.086 -51.875  1.00  0.00     0.018 A 
HETATM   25  O   UNL     1     -43.416  62.154 -54.903  1.00  0.00    -0.267 OA
HETATM   26  C   UNL     1     -42.933  61.799 -50.539  1.00  0.00     0.001 A 
HETATM   27  C   UNL     1     -42.093  60.716 -50.205  1.00  0.00     0.001 A 
ENDBRANCH  16  17
ENDBRANCH  15  16
ENDBRANCH  14  15
ENDBRANCH  11  14
ENDBRANCH   2  10
BRANCH   1  28
HETATM   28  C   UNL     1     -42.172  55.988 -52.151  1.00  0.00     0.255 C 
HETATM   29  N   UNL     1     -43.533  56.095 -52.176  1.00  0.00    -0.353 N 
HETATM   30  H   UNL     1     -44.033  55.824 -53.018  1.00  0.00     0.163 HD
HETATM   31  O   UNL     1     -41.503  56.516 -51.264  1.00  0.00    -0.268 OA
BRANCH  29  32
HETATM   32  C   UNL     1     -44.276  56.793 -51.156  1.00  0.00     0.161 C 
BRANCH  32  33
HETATM   33  C   UNL     1     -44.928  58.057 -51.651  1.00  0.00    -0.041 A 
HETATM   34  C   UNL     1     -44.981  58.347 -53.020  1.00  0.00     0.009 A 
HETATM   35  C   UNL     1     -45.607  59.510 -53.475  1.00  0.00     0.001 A 
HETATM   36  C   UNL     1     -46.177  60.399 -52.566  1.00  0.00     0.000 A 
HETATM   37  C   UNL     1     -46.120  60.128 -51.201  1.00  0.00     0.001 A 
HETATM   38  C   UNL     1     -45.498  58.964 -50.747  1.00  0.00     0.009 A 
ENDBRANCH  32  33
ENDBRANCH  29  32
ENDBRANCH   1  28
TORSDOF 8
ENDMDL
MODEL 2
REMARK VINA RESULT:      -7.5      1.888      7.066
REMARK  8 active torsions:
REMARK  status: ('A' for Active; 'I' for Inactive)
REMARK    1  A    between atoms: C_4  and  C_5 
REMARK    2  A    between atoms: C_5  and  N_6 
REMARK       I    between atoms: N_6  and  C_7 
REMARK    3  A    between atoms: C_7  and  C_8 
REMARK    4  A    between atoms: C_9  and  N_10 
REMARK       I    between atoms: N_10  and  C_11 
REMARK    5  A    between atoms: C_11  and  C_12 
REMARK    6  A    between atoms: C_12  and  C_13 
REMARK    7  A    between atoms: C_13  and  C_14 
REMARK    8  A    between atoms: C_14  and  N_15 
ROOT
HETATM    1  C   UNL     1     -42.145  58.231 -54.971  1.00  0.00     0.073 A 
HETATM    2  C   UNL     1     -42.512  56.917 -54.702  1.00  0.00     0.093 A 
HETATM    3  S   UNL     1     -43.003  56.061 -56.109  1.00  0.00    -0.075 SA
HETATM    4  C   UNL     1     -42.671  57.367 -57.119  1.00  0.00    -0.008 A 
HETATM    5  C   UNL     1     -42.276  58.484 -56.414  1.00  0.00    -0.026 A 
HETATM    6  C   UNL     1     -41.988  59.786 -57.126  1.00  0.00     0.041 C 
HETATM    7  C   UNL     1     -42.517  59.793 -58.570  1.00  0.00     0.005 C 
HETATM    8  C   UNL     1     -42.204  58.483 -59.297  1.00  0.00     0.005 C 
HETATM    9  C   UNL     1     -42.869  57.290 -58.601  1.00  0.00     0.047 C 
ENDROOT
BRANCH   2  10
HETATM   10  N   UNL     1     -42.676  56.056 -53.638  1.00  0.00    -0.320 N 
HETATM   11  C   UNL     1     -43.293  56.283 -52.432  1.00  0.00     0.222 C 
HETATM   12  O   UNL     1     -43.726  57.353 -52.028  1.00  0.00    -0.273 OA
HETATM   13  H   UNL     1     -42.062  55.250 -53.685  1.00  0.00     0.169 HD
BRANCH  11  14
HETATM   14  C   UNL     1     -43.276  55.029 -51.569  1.00  0.00     0.105 C 
BRANCH  14  15
HETATM   15  C   UNL     1     -42.291  55.077 -50.405  1.00  0.00     0.029 C 
BRANCH  15  16
HETATM   16  C   UNL     1     -40.834  55.063 -50.871  1.00  0.00     0.136 C 
BRANCH  16  17
HETATM   17  N   UNL     1     -40.465  53.763 -51.401  1.00  0.00    -0.280 N 
HETATM   18  C   UNL     1     -40.287  52.650 -50.623  1.00  0.00     0.261 A 
HETATM   19  O   UNL     1     -40.373  52.532 -49.415  1.00  0.00    -0.267 OA
HETATM   20  C   UNL     1     -39.987  51.549 -51.537  1.00  0.00     0.048 A 
HETATM   21  C   UNL     1     -40.037  52.052 -52.825  1.00  0.00     0.048 A 
HETATM   22  C   UNL     1     -39.706  50.222 -51.282  1.00  0.00     0.018 A 
HETATM   23  C   UNL     1     -40.368  53.472 -52.733  1.00  0.00     0.261 A 
HETATM   24  C   UNL     1     -39.807  51.256 -53.930  1.00  0.00     0.018 A 
HETATM   25  O   UNL     1     -40.529  54.194 -53.698  1.00  0.00    -0.267 OA
HETATM   26  C   UNL     1     -39.518  49.907 -53.697  1.00  0.00     0.001 A 
HETATM   27  C   UNL     1     -39.467  49.394 -52.384  1.00  0.00     0.001 A 
ENDBRANCH  16  17
ENDBRANCH  15  16
ENDBRANCH  14  15
ENDBRANCH  11  14
ENDBRANCH   2  10
BRANCH   1  28
HETATM   28  C   UNL     1     -41.778  59.329 -54.062  1.00  0.00     0.255 C 
HETATM   29  N   UNL     1     -42.794  60.052 -53.508  1.00  0.00    -0.353 N 
HETATM   30  H   UNL     1     -43.710  60.030 -53.948  1.00  0.00     0.163 HD
HETATM   31  O   UNL     1     -40.608  59.501 -53.723  1.00  0.00    -0.268 OA
BRANCH  29  32
HETATM   32  C   UNL     1     -42.577  61.030 -52.471  1.00  0.00     0.161 C 
BRANCH  32  33
HETATM   33  C   UNL     1     -43.628  61.000 -51.393  1.00  0.00    -0.041 A 
HETATM   34  C   UNL     1     -44.915  60.518 -51.660  1.00  0.00     0.009 A 
HETATM   35  C   UNL     1     -45.879  60.472 -50.651  1.00  0.00     0.001 A 
HETATM   36  C   UNL     1     -45.569  60.916 -49.366  1.00  0.00     0.000 A 
HETATM   37  C   UNL     1     -44.296  61.409 -49.091  1.00  0.00     0.001 A 
HETATM   38  C   UNL     1     -43.332  61.452 -50.099  1.00  0.00     0.009 A 
ENDBRANCH  32  33
ENDBRANCH  29  32
ENDBRANCH   1  28
TORSDOF 8
ENDMDL
MODEL 3
REMARK VINA RESULT:      -7.5      2.493      6.969
REMARK  8 active torsions:
REMARK  status: ('A' for Active; 'I' for Inactive)
REMARK    1  A    between atoms: C_4  and  C_5 
REMARK    2  A    between atoms: C_5  and  N_6 
REMARK       I    between atoms: N_6  and  C_7 
REMARK    3  A    between atoms: C_7  and  C_8 
REMARK    4  A    between atoms: C_9  and  N_10 
REMARK       I    between atoms: N_10  and  C_11 
REMARK    5  A    between atoms: C_11  and  C_12 
REMARK    6  A    between atoms: C_12  and  C_13 
REMARK    7  A    between atoms: C_13  and  C_14 
REMARK    8  A    between atoms: C_14  and  N_15 
ROOT
HETATM    1  C   UNL     1     -42.862  58.961 -57.318  1.00  0.00     0.073 A 
HETATM    2  C   UNL     1     -42.762  60.125 -56.564  1.00  0.00     0.093 A 
HETATM    3  S   UNL     1     -42.219  61.470 -57.486  1.00  0.00    -0.075 SA
HETATM    4  C   UNL     1     -42.178  60.579 -58.915  1.00  0.00    -0.008 A 
HETATM    5  C   UNL     1     -42.481  59.250 -58.709  1.00  0.00    -0.026 A 
HETATM    6  C   UNL     1     -42.441  58.263 -59.852  1.00  0.00     0.041 C 
HETATM    7  C   UNL     1     -41.713  58.823 -61.085  1.00  0.00     0.005 C 
HETATM    8  C   UNL     1     -42.130  60.265 -61.386  1.00  0.00     0.005 C 
HETATM    9  C   UNL     1     -41.781  61.197 -60.219  1.00  0.00     0.047 C 
ENDROOT
BRANCH   2  10
HETATM   10  N   UNL     1     -42.901  60.565 -55.265  1.00  0.00    -0.320 N 
HETATM   11  C   UNL     1     -42.104  60.307 -54.177  1.00  0.00     0.222 C 
HETATM   12  O   UNL     1     -41.161  59.530 -54.136  1.00  0.00    -0.273 OA
HETATM   13  H   UNL     1     -43.828  60.926 -55.069  1.00  0.00     0.169 HD
BRANCH  11  14
HETATM   14  C   UNL     1     -42.615  61.039 -52.944  1.00  0.00     0.105 C 
BRANCH  14  15
HETATM   15  C   UNL     1     -43.891  60.454 -52.346  1.00  0.00     0.029 C 
BRANCH  15  16
HETATM   16  C   UNL     1     -43.661  59.840 -50.965  1.00  0.00     0.136 C 
BRANCH  16  17
HETATM   17  N   UNL     1     -43.268  58.447 -51.069  1.00  0.00    -0.280 N 
HETATM   18  C   UNL     1     -41.967  58.022 -51.037  1.00  0.00     0.261 A 
HETATM   19  O   UNL     1     -40.945  58.675 -50.943  1.00  0.00    -0.267 OA
HETATM   20  C   UNL     1     -42.006  56.562 -51.108  1.00  0.00     0.048 A 
HETATM   21  C   UNL     1     -43.335  56.182 -51.143  1.00  0.00     0.048 A 
HETATM   22  C   UNL     1     -40.981  55.637 -51.130  1.00  0.00     0.018 A 
HETATM   23  C   UNL     1     -44.145  57.398 -51.094  1.00  0.00     0.261 A 
HETATM   24  C   UNL     1     -43.716  54.856 -51.202  1.00  0.00     0.018 A 
HETATM   25  O   UNL     1     -45.360  57.403 -51.065  1.00  0.00    -0.267 OA
HETATM   26  C   UNL     1     -42.696  53.899 -51.228  1.00  0.00     0.001 A 
HETATM   27  C   UNL     1     -41.339  54.286 -51.192  1.00  0.00     0.001 A 
ENDBRANCH  16  17
ENDBRANCH  15  16
ENDBRANCH  14  15
ENDBRANCH  11  14
ENDBRANCH   2  10
BRANCH   1  28
HETATM   28  C   UNL     1     -43.171  57.580 -56.912  1.00  0.00     0.255 C 
HETATM   29  N   UNL     1     -42.977  57.252 -55.602  1.00  0.00    -0.353 N 
HETATM   30  H   UNL     1     -42.365  57.833 -55.035  1.00  0.00     0.163 HD
HETATM   31  O   UNL     1     -43.700  56.795 -57.699  1.00  0.00    -0.268 OA
BRANCH  29  32
HETATM   32  C   UNL     1     -43.408  55.995 -55.043  1.00  0.00     0.161 C 
BRANCH  32  33
HETATM   33  C   UNL     1     -42.291  54.994 -54.894  1.00  0.00    -0.041 A 
HETATM   34  C   UNL     1     -40.953  55.401 -54.948  1.00  0.00     0.009 A 
HETATM   35  C   UNL     1     -39.922  54.472 -54.788  1.00  0.00     0.001 A 
HETATM   36  C   UNL     1     -40.219  53.126 -54.581  1.00  0.00     0.000 A 
HETATM   37  C   UNL     1     -41.546  52.707 -54.537  1.00  0.00     0.001 A 
HETATM   38  C   UNL     1     -42.576  53.636 -54.695  1.00  0.00     0.009 A 
ENDBRANCH  32  33
ENDBRANCH  29  32
ENDBRANCH   1  28
TORSDOF 8
ENDMDL
MODEL 4
REMARK VINA RESULT:      -7.4      1.883      5.023
REMARK  8 active torsions:
REMARK  status: ('A' for Active; 'I' for Inactive)
REMARK    1  A    between atoms: C_4  and  C_5 
REMARK    2  A    between atoms: C_5  and  N_6 
REMARK       I    between atoms: N_6  and  C_7 
REMARK    3  A    between atoms: C_7  and  C_8 
REMARK    4  A    between atoms: C_9  and  N_10 
REMARK       I    between atoms: N_10  and  C_11 
REMARK    5  A    between atoms: C_11  and  C_12 
REMARK    6  A    between atoms: C_12  and  C_13 
REMARK    7  A    between atoms: C_13  and  C_14 
REMARK    8  A    between atoms: C_14  and  N_15 
ROOT
HETATM    1  C   UNL     1     -41.770  54.807 -53.581  1.00  0.00     0.073 A 
HETATM    2  C   UNL     1     -41.526  55.460 -52.378  1.00  0.00     0.093 A 
HETATM    3  S   UNL     1     -40.600  54.512 -51.282  1.00  0.00    -0.075 SA
HETATM    4  C   UNL     1     -40.429  53.254 -52.388  1.00  0.00    -0.008 A 
HETATM    5  C   UNL     1     -41.132  53.483 -53.552  1.00  0.00    -0.026 A 
HETATM    6  C   UNL     1     -41.161  52.448 -54.653  1.00  0.00     0.041 C 
HETATM    7  C   UNL     1     -40.659  51.074 -54.180  1.00  0.00     0.005 C 
HETATM    8  C   UNL     1     -39.391  51.193 -53.330  1.00  0.00     0.005 C 
HETATM    9  C   UNL     1     -39.649  52.018 -52.063  1.00  0.00     0.047 C 
ENDROOT
BRANCH   2  10
HETATM   10  N   UNL     1     -41.837  56.632 -51.723  1.00  0.00    -0.320 N 
HETATM   11  C   UNL     1     -41.331  57.893 -51.924  1.00  0.00     0.222 C 
HETATM   12  O   UNL     1     -40.407  58.195 -52.666  1.00  0.00    -0.273 OA
HETATM   13  H   UNL     1     -42.325  56.477 -50.847  1.00  0.00     0.169 HD
BRANCH  11  14
HETATM   14  C   UNL     1     -41.997  58.900 -50.997  1.00  0.00     0.105 C 
BRANCH  14  15
HETATM   15  C   UNL     1     -42.510  60.156 -51.693  1.00  0.00     0.029 C 
BRANCH  15  16
HETATM   16  C   UNL     1     -44.038  60.228 -51.721  1.00  0.00     0.136 C 
BRANCH  16  17
HETATM   17  N   UNL     1     -44.553  59.929 -53.044  1.00  0.00    -0.280 N 
HETATM   18  C   UNL     1     -44.725  60.871 -54.022  1.00  0.00     0.261 A 
HETATM   19  O   UNL     1     -44.516  62.069 -53.983  1.00  0.00    -0.267 OA
HETATM   20  C   UNL     1     -45.199  60.157 -55.206  1.00  0.00     0.048 A 
HETATM   21  C   UNL     1     -45.255  58.813 -54.888  1.00  0.00     0.048 A 
HETATM   22  C   UNL     1     -45.545  60.626 -56.458  1.00  0.00     0.018 A 
HETATM   23  C   UNL     1     -44.816  58.667 -53.502  1.00  0.00     0.261 A 
HETATM   24  C   UNL     1     -45.659  57.860 -55.803  1.00  0.00     0.018 A 
HETATM   25  O   UNL     1     -44.709  57.598 -52.933  1.00  0.00    -0.267 OA
HETATM   26  C   UNL     1     -46.017  58.311 -57.078  1.00  0.00     0.001 A 
HETATM   27  C   UNL     1     -45.960  59.682 -57.403  1.00  0.00     0.001 A 
ENDBRANCH  16  17
ENDBRANCH  15  16
ENDBRANCH  14  15
ENDBRANCH  11  14
ENDBRANCH   2  10
BRANCH   1  28
HETATM   28  C   UNL     1     -42.601  55.198 -54.732  1.00  0.00     0.255 C 
HETATM   29  N   UNL     1     -41.966  55.759 -55.802  1.00  0.00    -0.353 N 
HETATM   30  H   UNL     1     -41.043  56.162 -55.671  1.00  0.00     0.163 HD
HETATM   31  O   UNL     1     -43.797  54.914 -54.771  1.00  0.00    -0.268 OA
BRANCH  29  32
HETATM   32  C   UNL     1     -42.635  56.019 -57.053  1.00  0.00     0.161 C 
BRANCH  32  33
HETATM   33  C   UNL     1     -42.493  57.444 -57.521  1.00  0.00    -0.041 A 
HETATM   34  C   UNL     1     -42.145  58.461 -56.624  1.00  0.00     0.009 A 
HETATM   35  C   UNL     1     -41.993  59.777 -57.068  1.00  0.00     0.001 A 
HETATM   36  C   UNL     1     -42.196  60.090 -58.411  1.00  0.00     0.000 A 
HETATM   37  C   UNL     1     -42.553  59.089 -59.311  1.00  0.00     0.001 A 
HETATM   38  C   UNL     1     -42.702  57.774 -58.868  1.00  0.00     0.009 A 
ENDBRANCH  32  33
ENDBRANCH  29  32
ENDBRANCH   1  28
TORSDOF 8
ENDMDL
MODEL 5
REMARK VINA RESULT:      -7.3      3.885      8.620
REMARK  8 active torsions:
REMARK  status: ('A' for Active; 'I' for Inactive)
REMARK    1  A    between atoms: C_4  and  C_5 
REMARK    2  A    between atoms: C_5  and  N_6 
REMARK       I    between atoms: N_6  and  C_7 
REMARK    3  A    between atoms: C_7  and  C_8 
REMARK    4  A    between atoms: C_9  and  N_10 
REMARK       I    between atoms: N_10  and  C_11 
REMARK    5  A    between atoms: C_11  and  C_12 
REMARK    6  A    between atoms: C_12  and  C_13 
REMARK    7  A    between atoms: C_13  and  C_14 
REMARK    8  A    between atoms: C_14  and  N_15 
ROOT
HETATM    1  C   UNL     1     -43.531  57.641 -57.993  1.00  0.00     0.073 A 
HETATM    2  C   UNL     1     -43.180  57.623 -56.648  1.00  0.00     0.093 A 
HETATM    3  S   UNL     1     -42.130  58.913 -56.216  1.00  0.00    -0.075 SA
HETATM    4  C   UNL     1     -42.172  59.575 -57.764  1.00  0.00    -0.008 A 
HETATM    5  C   UNL     1     -42.895  58.796 -58.644  1.00  0.00    -0.026 A 
HETATM    6  C   UNL     1     -43.006  59.179 -60.101  1.00  0.00     0.041 C 
HETATM    7  C   UNL     1     -41.980  60.251 -60.506  1.00  0.00     0.005 C 
HETATM    8  C   UNL     1     -41.888  61.371 -59.467  1.00  0.00     0.005 C 
HETATM    9  C   UNL     1     -41.432  60.829 -58.107  1.00  0.00     0.047 C 
ENDROOT
BRANCH   2  10
HETATM   10  N   UNL     1     -43.353  56.856 -55.515  1.00  0.00    -0.320 N 
HETATM   11  C   UNL     1     -43.134  55.511 -55.343  1.00  0.00     0.222 C 
HETATM   12  O   UNL     1     -42.844  54.705 -56.216  1.00  0.00    -0.273 OA
HETATM   13  H   UNL     1     -43.924  57.313 -54.813  1.00  0.00     0.169 HD
BRANCH  11  14
HETATM   14  C   UNL     1     -43.417  55.095 -53.906  1.00  0.00     0.105 C 
BRANCH  14  15
HETATM   15  C   UNL     1     -42.448  55.672 -52.879  1.00  0.00     0.029 C 
BRANCH  15  16
HETATM   16  C   UNL     1     -40.988  55.360 -53.212  1.00  0.00     0.136 C 
BRANCH  16  17
HETATM   17  N   UNL     1     -40.669  53.974 -52.921  1.00  0.00    -0.280 N 
HETATM   18  C   UNL     1     -40.370  53.046 -53.883  1.00  0.00     0.261 A 
HETATM   19  O   UNL     1     -40.333  53.175 -55.092  1.00  0.00    -0.267 OA
HETATM   20  C   UNL     1     -40.053  51.806 -53.178  1.00  0.00     0.048 A 
HETATM   21  C   UNL     1     -40.143  52.062 -51.822  1.00  0.00     0.048 A 
HETATM   22  C   UNL     1     -39.706  50.561 -53.664  1.00  0.00     0.018 A 
HETATM   23  C   UNL     1     -40.517  53.466 -51.661  1.00  0.00     0.261 A 
HETATM   24  C   UNL     1     -39.891  51.089 -50.875  1.00  0.00     0.018 A 
HETATM   25  O   UNL     1     -40.635  54.017 -50.584  1.00  0.00    -0.267 OA
HETATM   26  C   UNL     1     -39.539  49.819 -51.342  1.00  0.00     0.001 A 
HETATM   27  C   UNL     1     -39.447  49.557 -52.725  1.00  0.00     0.001 A 
ENDBRANCH  16  17
ENDBRANCH  15  16
ENDBRANCH  14  15
ENDBRANCH  11  14
ENDBRANCH   2  10
BRANCH   1  28
HETATM   28  C   UNL     1     -44.302  56.678 -58.796  1.00  0.00     0.255 C 
HETATM   29  N   UNL     1     -45.599  56.994 -59.081  1.00  0.00    -0.353 N 
HETATM   30  H   UNL     1     -46.074  57.687 -58.508  1.00  0.00     0.163 HD
HETATM   31  O   UNL     1     -43.758  55.692 -59.291  1.00  0.00    -0.268 OA
BRANCH  29  32
HETATM   32  C   UNL     1     -46.402  56.227 -60.001  1.00  0.00     0.161 C 
BRANCH  32  33
HETATM   33  C   UNL     1     -47.302  57.077 -60.859  1.00  0.00    -0.041 A 
HETATM   34  C   UNL     1     -47.343  58.467 -60.698  1.00  0.00     0.009 A 
HETATM   35  C   UNL     1     -48.162  59.252 -61.512  1.00  0.00     0.001 A 
HETATM   36  C   UNL     1     -48.956  58.655 -62.490  1.00  0.00     0.000 A 
HETATM   37  C   UNL     1     -48.933  57.272 -62.652  1.00  0.00     0.001 A 
HETATM   38  C   UNL     1     -48.112  56.488 -61.841  1.00  0.00     0.009 A 
ENDBRANCH  32  33
ENDBRANCH  29  32
ENDBRANCH   1  28
TORSDOF 8
ENDMDL
MODEL 6
REMARK VINA RESULT:      -7.2      2.673      8.226
REMARK  8 active torsions:
REMARK  status: ('A' for Active; 'I' for Inactive)
REMARK    1  A    between atoms: C_4  and  C_5 
REMARK    2  A    between atoms: C_5  and  N_6 
REMARK       I    between atoms: N_6  and  C_7 
REMARK    3  A    between atoms: C_7  and  C_8 
REMARK    4  A    between atoms: C_9  and  N_10 
REMARK       I    between atoms: N_10  and  C_11 
REMARK    5  A    between atoms: C_11  and  C_12 
REMARK    6  A    between atoms: C_12  and  C_13 
REMARK    7  A    between atoms: C_13  and  C_14 
REMARK    8  A    between atoms: C_14  and  N_15 
ROOT
HETATM    1  C   UNL     1     -43.892  57.880 -53.637  1.00  0.00     0.073 A 
HETATM    2  C   UNL     1     -44.151  57.334 -52.385  1.00  0.00     0.093 A 
HETATM    3  S   UNL     1     -45.130  58.352 -51.405  1.00  0.00    -0.075 SA
HETATM    4  C   UNL     1     -45.305  59.497 -52.627  1.00  0.00    -0.008 A 
HETATM    5  C   UNL     1     -44.565  59.182 -53.747  1.00  0.00    -0.026 A 
HETATM    6  C   UNL     1     -44.534  60.111 -54.938  1.00  0.00     0.041 C 
HETATM    7  C   UNL     1     -45.085  61.508 -54.607  1.00  0.00     0.005 C 
HETATM    8  C   UNL     1     -46.371  61.431 -53.781  1.00  0.00     0.005 C 
HETATM    9  C   UNL     1     -46.126  60.735 -52.437  1.00  0.00     0.047 C 
ENDROOT
BRANCH   2  10
HETATM   10  N   UNL     1     -43.826  56.237 -51.616  1.00  0.00    -0.320 N 
HETATM   11  C   UNL     1     -43.559  54.951 -52.018  1.00  0.00     0.222 C 
HETATM   12  O   UNL     1     -43.670  54.507 -53.152  1.00  0.00    -0.273 OA
HETATM   13  H   UNL     1     -44.042  56.366 -50.634  1.00  0.00     0.169 HD
BRANCH  11  14
HETATM   14  C   UNL     1     -43.204  54.072 -50.826  1.00  0.00     0.105 C 
BRANCH  14  15
HETATM   15  C   UNL     1     -42.109  54.639 -49.928  1.00  0.00     0.029 C 
BRANCH  15  16
HETATM   16  C   UNL     1     -40.749  54.694 -50.628  1.00  0.00     0.136 C 
BRANCH  16  17
HETATM   17  N   UNL     1     -40.479  53.463 -51.347  1.00  0.00    -0.280 N 
HETATM   18  C   UNL     1     -40.324  53.395 -52.705  1.00  0.00     0.261 A 
HETATM   19  O   UNL     1     -40.397  54.284 -53.534  1.00  0.00    -0.267 OA
HETATM   20  C   UNL     1     -40.008  52.003 -53.018  1.00  0.00     0.048 A 
HETATM   21  C   UNL     1     -39.953  51.309 -51.823  1.00  0.00     0.048 A 
HETATM   22  C   UNL     1     -39.776  51.386 -54.232  1.00  0.00     0.018 A 
HETATM   23  C   UNL     1     -40.234  52.258 -50.747  1.00  0.00     0.261 A 
HETATM   24  C   UNL     1     -39.663  49.960 -51.772  1.00  0.00     0.018 A 
HETATM   25  O   UNL     1     -40.218  51.969 -49.567  1.00  0.00    -0.267 OA
HETATM   26  C   UNL     1     -39.426  49.312 -52.989  1.00  0.00     0.001 A 
HETATM   27  C   UNL     1     -39.482  50.019 -54.209  1.00  0.00     0.001 A 
ENDBRANCH  16  17
ENDBRANCH  15  16
ENDBRANCH  14  15
ENDBRANCH  11  14
ENDBRANCH   2  10
BRANCH   1  28
HETATM   28  C   UNL     1     -43.020  57.409 -54.726  1.00  0.00     0.255 C 
HETATM   29  N   UNL     1     -43.521  56.454 -55.563  1.00  0.00    -0.353 N 
HETATM   30  H   UNL     1     -44.310  55.893 -55.253  1.00  0.00     0.163 HD
HETATM   31  O   UNL     1     -41.935  57.947 -54.942  1.00  0.00    -0.268 OA
BRANCH  29  32
HETATM   32  C   UNL     1     -42.842  56.040 -56.766  1.00  0.00     0.161 C 
BRANCH  32  33
HETATM   33  C   UNL     1     -43.593  56.388 -58.024  1.00  0.00    -0.041 A 
HETATM   34  C   UNL     1     -44.319  57.581 -58.119  1.00  0.00     0.009 A 
HETATM   35  C   UNL     1     -44.995  57.908 -59.297  1.00  0.00     0.001 A 
HETATM   36  C   UNL     1     -44.959  57.042 -60.388  1.00  0.00     0.000 A 
HETATM   37  C   UNL     1     -44.250  55.847 -60.302  1.00  0.00     0.001 A 
HETATM   38  C   UNL     1     -43.572  55.521 -59.126  1.00  0.00     0.009 A 
ENDBRANCH  32  33
ENDBRANCH  29  32
ENDBRANCH   1  28
TORSDOF 8
ENDMDL
MODEL 7
REMARK VINA RESULT:      -7.1      2.808      7.806
REMARK  8 active torsions:
REMARK  status: ('A' for Active; 'I' for Inactive)
REMARK    1  A    between atoms: C_4  and  C_5 
REMARK    2  A    between atoms: C_5  and  N_6 
REMARK       I    between atoms: N_6  and  C_7 
REMARK    3  A    between atoms: C_7  and  C_8 
REMARK    4  A    between atoms: C_9  and  N_10 
REMARK       I    between atoms: N_10  and  C_11 
REMARK    5  A    between atoms: C_11  and  C_12 
REMARK    6  A    between atoms: C_12  and  C_13 
REMARK    7  A    between atoms: C_13  and  C_14 
REMARK    8  A    between atoms: C_14  and  N_15 
ROOT
HETATM    1  C   UNL     1     -42.838  58.135 -56.960  1.00  0.00     0.073 A 
HETATM    2  C   UNL     1     -42.519  57.181 -55.999  1.00  0.00     0.093 A 
HETATM    3  S   UNL     1     -42.852  55.576 -56.518  1.00  0.00    -0.075 SA
HETATM    4  C   UNL     1     -43.348  56.086 -58.045  1.00  0.00    -0.008 A 
HETATM    5  C   UNL     1     -43.358  57.460 -58.158  1.00  0.00    -0.026 A 
HETATM    6  C   UNL     1     -43.830  58.126 -59.429  1.00  0.00     0.041 C 
HETATM    7  C   UNL     1     -44.588  57.158 -60.353  1.00  0.00     0.005 C 
HETATM    8  C   UNL     1     -43.878  55.805 -60.463  1.00  0.00     0.005 C 
HETATM    9  C   UNL     1     -43.786  55.115 -59.097  1.00  0.00     0.047 C 
ENDROOT
BRANCH   2  10
HETATM   10  N   UNL     1     -42.063  57.091 -54.702  1.00  0.00    -0.320 N 
HETATM   11  C   UNL     1     -41.452  58.052 -53.934  1.00  0.00     0.222 C 
HETATM   12  O   UNL     1     -41.093  59.160 -54.307  1.00  0.00    -0.273 OA
HETATM   13  H   UNL     1     -41.970  56.133 -54.381  1.00  0.00     0.169 HD
BRANCH  11  14
HETATM   14  C   UNL     1     -41.155  57.524 -52.537  1.00  0.00     0.105 C 
BRANCH  14  15
HETATM   15  C   UNL     1     -42.386  57.353 -51.652  1.00  0.00     0.029 C 
BRANCH  15  16
HETATM   16  C   UNL     1     -42.323  56.082 -50.803  1.00  0.00     0.136 C 
BRANCH  16  17
HETATM   17  N   UNL     1     -41.725  54.986 -51.543  1.00  0.00    -0.280 N 
HETATM   18  C   UNL     1     -40.624  54.293 -51.116  1.00  0.00     0.261 A 
HETATM   19  O   UNL     1     -39.955  54.454 -50.113  1.00  0.00    -0.267 OA
HETATM   20  C   UNL     1     -40.384  53.245 -52.106  1.00  0.00     0.048 A 
HETATM   21  C   UNL     1     -41.379  53.338 -53.062  1.00  0.00     0.048 A 
HETATM   22  C   UNL     1     -39.397  52.282 -52.172  1.00  0.00     0.018 A 
HETATM   23  C   UNL     1     -42.254  54.446 -52.683  1.00  0.00     0.261 A 
HETATM   24  C   UNL     1     -41.443  52.475 -54.138  1.00  0.00     0.018 A 
HETATM   25  O   UNL     1     -43.254  54.762 -53.299  1.00  0.00    -0.267 OA
HETATM   26  C   UNL     1     -40.453  51.492 -54.228  1.00  0.00     0.001 A 
HETATM   27  C   UNL     1     -39.438  51.396 -53.253  1.00  0.00     0.001 A 
ENDBRANCH  16  17
ENDBRANCH  15  16
ENDBRANCH  14  15
ENDBRANCH  11  14
ENDBRANCH   2  10
BRANCH   1  28
HETATM   28  C   UNL     1     -42.821  59.605 -56.893  1.00  0.00     0.255 C 
HETATM   29  N   UNL     1     -41.742  60.246 -57.430  1.00  0.00    -0.353 N 
HETATM   30  H   UNL     1     -40.881  59.726 -57.571  1.00  0.00     0.163 HD
HETATM   31  O   UNL     1     -43.799  60.228 -56.481  1.00  0.00    -0.268 OA
BRANCH  29  32
HETATM   32  C   UNL     1     -41.688  61.678 -57.587  1.00  0.00     0.161 C 
BRANCH  32  33
HETATM   33  C   UNL     1     -41.076  62.112 -58.893  1.00  0.00    -0.041 A 
HETATM   34  C   UNL     1     -39.957  62.954 -58.916  1.00  0.00     0.009 A 
HETATM   35  C   UNL     1     -39.381  63.334 -60.130  1.00  0.00     0.001 A 
HETATM   36  C   UNL     1     -39.922  62.886 -61.333  1.00  0.00     0.000 A 
HETATM   37  C   UNL     1     -41.042  62.058 -61.325  1.00  0.00     0.001 A 
HETATM   38  C   UNL     1     -41.616  61.675 -60.112  1.00  0.00     0.009 A 
ENDBRANCH  32  33
ENDBRANCH  29  32
ENDBRANCH   1  28
TORSDOF 8
ENDMDL
MODEL 8
REMARK VINA RESULT:      -7.1      2.828      7.109
REMARK  8 active torsions:
REMARK  status: ('A' for Active; 'I' for Inactive)
REMARK    1  A    between atoms: C_4  and  C_5 
REMARK    2  A    between atoms: C_5  and  N_6 
REMARK       I    between atoms: N_6  and  C_7 
REMARK    3  A    between atoms: C_7  and  C_8 
REMARK    4  A    between atoms: C_9  and  N_10 
REMARK       I    between atoms: N_10  and  C_11 
REMARK    5  A    between atoms: C_11  and  C_12 
REMARK    6  A    between atoms: C_12  and  C_13 
REMARK    7  A    between atoms: C_13  and  C_14 
REMARK    8  A    between atoms: C_14  and  N_15 
ROOT
HETATM    1  C   UNL     1     -42.557  56.127 -53.928  1.00  0.00     0.073 A 
HETATM    2  C   UNL     1     -42.905  57.458 -54.124  1.00  0.00     0.093 A 
HETATM    3  S   UNL     1     -43.938  58.066 -52.892  1.00  0.00    -0.075 SA
HETATM    4  C   UNL     1     -43.891  56.621 -52.028  1.00  0.00    -0.008 A 
HETATM    5  C   UNL     1     -43.180  55.641 -52.688  1.00  0.00    -0.026 A 
HETATM    6  C   UNL     1     -43.067  54.248 -52.113  1.00  0.00     0.041 C 
HETATM    7  C   UNL     1     -44.081  53.997 -50.983  1.00  0.00     0.005 C 
HETATM    8  C   UNL     1     -44.157  55.179 -50.014  1.00  0.00     0.005 C 
HETATM    9  C   UNL     1     -44.617  56.454 -50.729  1.00  0.00     0.047 C 
ENDROOT
BRANCH   2  10
HETATM   10  N   UNL     1     -42.739  58.476 -55.040  1.00  0.00    -0.320 N 
HETATM   11  C   UNL     1     -41.833  59.507 -55.028  1.00  0.00     0.222 C 
HETATM   12  O   UNL     1     -41.057  59.782 -54.124  1.00  0.00    -0.273 OA
HETATM   13  H   UNL     1     -43.536  58.584 -55.658  1.00  0.00     0.169 HD
BRANCH  11  14
HETATM   14  C   UNL     1     -41.984  60.377 -56.269  1.00  0.00     0.105 C 
BRANCH  14  15
HETATM   15  C   UNL     1     -43.379  60.360 -56.886  1.00  0.00     0.029 C 
BRANCH  15  16
HETATM   16  C   UNL     1     -43.344  60.183 -58.405  1.00  0.00     0.136 C 
BRANCH  16  17
HETATM   17  N   UNL     1     -43.801  58.861 -58.789  1.00  0.00    -0.280 N 
HETATM   18  C   UNL     1     -44.937  58.633 -59.520  1.00  0.00     0.261 A 
HETATM   19  O   UNL     1     -45.750  59.431 -59.948  1.00  0.00    -0.267 OA
HETATM   20  C   UNL     1     -45.004  57.190 -59.742  1.00  0.00     0.048 A 
HETATM   21  C   UNL     1     -43.882  56.626 -59.162  1.00  0.00     0.048 A 
HETATM   22  C   UNL     1     -45.949  56.426 -60.398  1.00  0.00     0.018 A 
HETATM   23  C   UNL     1     -43.099  57.708 -58.570  1.00  0.00     0.261 A 
HETATM   24  C   UNL     1     -43.641  55.267 -59.206  1.00  0.00     0.018 A 
HETATM   25  O   UNL     1     -42.027  57.547 -58.020  1.00  0.00    -0.267 OA
HETATM   26  C   UNL     1     -44.584  54.471 -59.864  1.00  0.00     0.001 A 
HETATM   27  C   UNL     1     -45.729  55.046 -60.455  1.00  0.00     0.001 A 
ENDBRANCH  16  17
ENDBRANCH  15  16
ENDBRANCH  14  15
ENDBRANCH  11  14
ENDBRANCH   2  10
BRANCH   1  28
HETATM   28  C   UNL     1     -41.799  55.198 -54.783  1.00  0.00     0.255 C 
HETATM   29  N   UNL     1     -40.757  54.527 -54.211  1.00  0.00    -0.353 N 
HETATM   30  H   UNL     1     -40.349  54.889 -53.354  1.00  0.00     0.163 HD
HETATM   31  O   UNL     1     -42.173  54.949 -55.928  1.00  0.00    -0.268 OA
BRANCH  29  32
HETATM   32  C   UNL     1     -40.054  53.464 -54.886  1.00  0.00     0.161 C 
BRANCH  32  33
HETATM   33  C   UNL     1     -39.919  52.216 -54.054  1.00  0.00    -0.041 A 
HETATM   34  C   UNL     1     -39.908  50.951 -54.655  1.00  0.00     0.009 A 
HETATM   35  C   UNL     1     -39.760  49.799 -53.880  1.00  0.00     0.001 A 
HETATM   36  C   UNL     1     -39.631  49.897 -52.496  1.00  0.00     0.000 A 
HETATM   37  C   UNL     1     -39.653  51.148 -51.884  1.00  0.00     0.001 A 
HETATM   38  C   UNL     1     -39.798  52.300 -52.659  1.00  0.00     0.009 A 
ENDBRANCH  32  33
ENDBRANCH  29  32
ENDBRANCH   1  28
TORSDOF 8
ENDMDL
MODEL 9
REMARK VINA RESULT:      -7.0      1.965      4.469
REMARK  8 active torsions:
REMARK  status: ('A' for Active; 'I' for Inactive)
REMARK    1  A    between atoms: C_4  and  C_5 
REMARK    2  A    between atoms: C_5  and  N_6 
REMARK       I    between atoms: N_6  and  C_7 
REMARK    3  A    between atoms: C_7  and  C_8 
REMARK    4  A    between atoms: C_9  and  N_10 
REMARK       I    between atoms: N_10  and  C_11 
REMARK    5  A    between atoms: C_11  and  C_12 
REMARK    6  A    between atoms: C_12  and  C_13 
REMARK    7  A    between atoms: C_13  and  C_14 
REMARK    8  A    between atoms: C_14  and  N_15 
ROOT
HETATM    1  C   UNL     1     -42.083  54.836 -53.864  1.00  0.00     0.073 A 
HETATM    2  C   UNL     1     -42.275  55.506 -52.661  1.00  0.00     0.093 A 
HETATM    3  S   UNL     1     -41.550  54.701 -51.326  1.00  0.00    -0.075 SA
HETATM    4  C   UNL     1     -40.898  53.494 -52.304  1.00  0.00    -0.008 A 
HETATM    5  C   UNL     1     -41.285  53.624 -53.621  1.00  0.00    -0.026 A 
HETATM    6  C   UNL     1     -40.859  52.608 -54.655  1.00  0.00     0.041 C 
HETATM    7  C   UNL     1     -40.305  51.322 -54.019  1.00  0.00     0.005 C 
HETATM    8  C   UNL     1     -39.348  51.626 -52.864  1.00  0.00     0.005 C 
HETATM    9  C   UNL     1     -40.060  52.389 -51.740  1.00  0.00     0.047 C 
ENDROOT
BRANCH   2  10
HETATM   10  N   UNL     1     -42.924  56.611 -52.152  1.00  0.00    -0.320 N 
HETATM   11  C   UNL     1     -42.402  57.830 -51.798  1.00  0.00     0.222 C 
HETATM   12  O   UNL     1     -41.217  58.131 -51.764  1.00  0.00    -0.273 OA
HETATM   13  H   UNL     1     -43.848  56.395 -51.793  1.00  0.00     0.169 HD
BRANCH  11  14
HETATM   14  C   UNL     1     -43.499  58.773 -51.320  1.00  0.00     0.105 C 
BRANCH  14  15
HETATM   15  C   UNL     1     -44.154  59.591 -52.428  1.00  0.00     0.029 C 
BRANCH  15  16
HETATM   16  C   UNL     1     -43.288  60.770 -52.875  1.00  0.00     0.136 C 
BRANCH  16  17
HETATM   17  N   UNL     1     -43.213  60.846 -54.323  1.00  0.00    -0.280 N 
HETATM   18  C   UNL     1     -42.218  60.267 -55.063  1.00  0.00     0.261 A 
HETATM   19  O   UNL     1     -41.250  59.632 -54.689  1.00  0.00    -0.267 OA
HETATM   20  C   UNL     1     -42.542  60.523 -56.465  1.00  0.00     0.048 A 
HETATM   21  C   UNL     1     -43.739  61.215 -56.497  1.00  0.00     0.048 A 
HETATM   22  C   UNL     1     -41.866  60.178 -57.619  1.00  0.00     0.018 A 
HETATM   23  C   UNL     1     -44.179  61.401 -55.116  1.00  0.00     0.261 A 
HETATM   24  C   UNL     1     -44.329  61.602 -57.684  1.00  0.00     0.018 A 
HETATM   25  O   UNL     1     -45.224  61.938 -54.804  1.00  0.00    -0.267 OA
HETATM   26  C   UNL     1     -43.662  61.267 -58.868  1.00  0.00     0.001 A 
HETATM   27  C   UNL     1     -42.442  60.561 -58.836  1.00  0.00     0.001 A 
ENDBRANCH  16  17
ENDBRANCH  15  16
ENDBRANCH  14  15
ENDBRANCH  11  14
ENDBRANCH   2  10
BRANCH   1  28
HETATM   28  C   UNL     1     -42.619  55.106 -55.208  1.00  0.00     0.255 C 
HETATM   29  N   UNL     1     -42.320  56.312 -55.772  1.00  0.00    -0.353 N 
HETATM   30  H   UNL     1     -42.022  57.076 -55.172  1.00  0.00     0.163 HD
HETATM   31  O   UNL     1     -43.205  54.229 -55.841  1.00  0.00    -0.268 OA
BRANCH  29  32
HETATM   32  C   UNL     1     -42.631  56.627 -57.145  1.00  0.00     0.161 C 
BRANCH  32  33
HETATM   33  C   UNL     1     -43.984  57.264 -57.319  1.00  0.00    -0.041 A 
HETATM   34  C   UNL     1     -44.558  57.393 -58.589  1.00  0.00     0.009 A 
HETATM   35  C   UNL     1     -45.823  57.965 -58.742  1.00  0.00     0.001 A 
HETATM   36  C   UNL     1     -46.524  58.423 -57.627  1.00  0.00     0.000 A 
HETATM   37  C   UNL     1     -45.959  58.311 -56.359  1.00  0.00     0.001 A 
HETATM   38  C   UNL     1     -44.696  57.736 -56.206  1.00  0.00     0.009 A 
ENDBRANCH  32  33
ENDBRANCH  29  32
ENDBRANCH   1  28
TORSDOF 8
ENDMDL
MODEL 10
REMARK VINA RESULT:      -6.9      2.642      5.911
REMARK  8 active torsions:
REMARK  status: ('A' for Active; 'I' for Inactive)
REMARK    1  A    between atoms: C_4  and  C_5 
REMARK    2  A    between atoms: C_5  and  N_6 
REMARK       I    between atoms: N_6  and  C_7 
REMARK    3  A    between atoms: C_7  and  C_8 
REMARK    4  A    between atoms: C_9  and  N_10 
REMARK       I    between atoms: N_10  and  C_11 
REMARK    5  A    between atoms: C_11  and  C_12 
REMARK    6  A    between atoms: C_12  and  C_13 
REMARK    7  A    between atoms: C_13  and  C_14 
REMARK    8  A    between atoms: C_14  and  N_15 
ROOT
HETATM    1  C   UNL     1     -42.115  55.901 -53.113  1.00  0.00     0.073 A 
HETATM    2  C   UNL     1     -42.062  57.199 -52.620  1.00  0.00     0.093 A 
HETATM    3  S   UNL     1     -41.343  57.291 -51.061  1.00  0.00    -0.075 SA
HETATM    4  C   UNL     1     -41.010  55.641 -51.028  1.00  0.00    -0.008 A 
HETATM    5  C   UNL     1     -41.509  54.986 -52.134  1.00  0.00    -0.026 A 
HETATM    6  C   UNL     1     -41.372  53.487 -52.271  1.00  0.00     0.041 C 
HETATM    7  C   UNL     1     -40.974  52.811 -50.948  1.00  0.00     0.005 C 
HETATM    8  C   UNL     1     -39.862  53.579 -50.229  1.00  0.00     0.005 C 
HETATM    9  C   UNL     1     -40.312  55.000 -49.869  1.00  0.00     0.047 C 
ENDROOT
BRANCH   2  10
HETATM   10  N   UNL     1     -42.460  58.478 -52.949  1.00  0.00    -0.320 N 
HETATM   11  C   UNL     1     -41.704  59.518 -53.432  1.00  0.00     0.222 C 
HETATM   12  O   UNL     1     -40.488  59.536 -53.558  1.00  0.00    -0.273 OA
HETATM   13  H   UNL     1     -43.366  58.720 -52.565  1.00  0.00     0.169 HD
BRANCH  11  14
HETATM   14  C   UNL     1     -42.571  60.741 -53.696  1.00  0.00     0.105 C 
BRANCH  14  15
HETATM   15  C   UNL     1     -43.122  60.830 -55.116  1.00  0.00     0.029 C 
BRANCH  15  16
HETATM   16  C   UNL     1     -44.651  60.863 -55.149  1.00  0.00     0.136 C 
BRANCH  16  17
HETATM   17  N   UNL     1     -45.165  60.191 -56.329  1.00  0.00    -0.280 N 
HETATM   18  C   UNL     1     -45.236  60.777 -57.564  1.00  0.00     0.261 A 
HETATM   19  O   UNL     1     -44.927  61.904 -57.901  1.00  0.00    -0.267 OA
HETATM   20  C   UNL     1     -45.747  59.757 -58.478  1.00  0.00     0.048 A 
HETATM   21  C   UNL     1     -45.923  58.595 -57.749  1.00  0.00     0.048 A 
HETATM   22  C   UNL     1     -46.027  59.820 -59.829  1.00  0.00     0.018 A 
HETATM   23  C   UNL     1     -45.524  58.873 -56.370  1.00  0.00     0.261 A 
HETATM   24  C   UNL     1     -46.389  57.430 -58.328  1.00  0.00     0.018 A 
HETATM   25  O   UNL     1     -45.520  58.040 -55.484  1.00  0.00    -0.267 OA
HETATM   26  C   UNL     1     -46.682  57.470 -59.695  1.00  0.00     0.001 A 
HETATM   27  C   UNL     1     -46.503  58.655 -60.439  1.00  0.00     0.001 A 
ENDBRANCH  16  17
ENDBRANCH  15  16
ENDBRANCH  14  15
ENDBRANCH  11  14
ENDBRANCH   2  10
BRANCH   1  28
HETATM   28  C   UNL     1     -42.739  55.363 -54.333  1.00  0.00     0.255 C 
HETATM   29  N   UNL     1     -42.452  55.987 -55.512  1.00  0.00    -0.353 N 
HETATM   30  H   UNL     1     -42.093  56.937 -55.492  1.00  0.00     0.163 HD
HETATM   31  O   UNL     1     -43.391  54.320 -54.300  1.00  0.00    -0.268 OA
BRANCH  29  32
HETATM   32  C   UNL     1     -42.854  55.455 -56.791  1.00  0.00     0.161 C 
BRANCH  32  33
HETATM   33  C   UNL     1     -42.764  56.459 -57.910  1.00  0.00    -0.041 A 
HETATM   34  C   UNL     1     -42.355  57.775 -57.662  1.00  0.00     0.009 A 
HETATM   35  C   UNL     1     -42.252  58.695 -58.707  1.00  0.00     0.001 A 
HETATM   36  C   UNL     1     -42.568  58.313 -60.010  1.00  0.00     0.000 A 
HETATM   37  C   UNL     1     -42.988  57.010 -60.268  1.00  0.00     0.001 A 
HETATM   38  C   UNL     1     -43.087  56.090 -59.224  1.00  0.00     0.009 A 
ENDBRANCH  32  33
ENDBRANCH  29  32
ENDBRANCH   1  28
TORSDOF 8
ENDMDL
