MODEL 1
REMARK VINA RESULT:      -8.5      0.000      0.000
REMARK  4 active torsions:
REMARK  status: ('A' for Active; 'I' for Inactive)
REMARK    1  A    between atoms: O_2  and  C_3 
REMARK    2  A    between atoms: C_6  and  C_7 
REMARK    3  A    between atoms: C_9  and  N_10 
REMARK       I    between atoms: N_10  and  C_11 
REMARK    4  A    between atoms: C_11  and  C_12 
ROOT
HETATM    1  C   UNL     1     -41.569  54.513 -54.544  1.00  0.00     0.173 A 
HETATM    2  N   UNL     1     -42.398  54.320 -55.555  1.00  0.00    -0.041 NA
HETATM    3  C   UNL     1     -42.738  55.585 -55.956  1.00  0.00     0.748 A 
HETATM    4  N   UNL     1     -42.165  56.554 -55.247  1.00  0.00     0.021 NA
HETATM    5  N   UNL     1     -41.438  55.863 -54.367  1.00  0.00    -0.244 N 
HETATM    6  H   UNL     1     -40.864  56.367 -53.702  1.00  0.00     0.191 HD
ENDROOT
BRANCH   3   7
HETATM    7  N   UNL     1     -43.593  55.704 -57.015  1.00  0.00    -0.150 N 
HETATM    8  C   UNL     1     -43.353  56.454 -58.141  1.00  0.00     0.270 C 
HETATM    9  O   UNL     1     -42.368  57.153 -58.357  1.00  0.00    -0.267 OA
HETATM   10  H   UNL     1     -44.453  55.201 -56.876  1.00  0.00     0.188 HD
BRANCH   8  11
HETATM   11  C   UNL     1     -44.421  56.423 -59.191  1.00  0.00     0.035 A 
HETATM   12  C   UNL     1     -45.416  57.403 -59.296  1.00  0.00     0.056 A 
HETATM   13  C   UNL     1     -46.382  57.307 -60.300  1.00  0.00     0.103 A 
HETATM   14  C   UNL     1     -46.392  56.215 -61.175  1.00  0.00     0.102 A 
HETATM   15  O   UNL     1     -47.305  58.321 -60.360  1.00  0.00    -0.346 OA
HETATM   16  O   UNL     1     -47.336  56.042 -62.153  1.00  0.00    -0.346 OA
HETATM   17  C   UNL     1     -45.408  55.237 -61.075  1.00  0.00     0.040 A 
HETATM   18  C   UNL     1     -48.470  56.890 -61.940  1.00  0.00     0.202 C 
HETATM   19  C   UNL     1     -48.023  58.303 -61.601  1.00  0.00     0.202 C 
HETATM   20  C   UNL     1     -44.428  55.339 -60.085  1.00  0.00     0.020 A 
ENDBRANCH   8  11
ENDBRANCH   3   7
BRANCH   1  21
HETATM   21  C   UNL     1     -40.861  53.497 -53.766  1.00  0.00     0.012 A 
HETATM   22  C   UNL     1     -40.810  53.607 -52.371  1.00  0.00     0.018 A 
HETATM   23  C   UNL     1     -40.173  52.630 -51.598  1.00  0.00     0.037 A 
HETATM   24  C   UNL     1     -39.574  51.525 -52.202  1.00  0.00     0.068 A 
HETATM   25  C   UNL     1     -39.595  51.417 -53.592  1.00  0.00     0.037 A 
HETATM   26  C   UNL     1     -40.233  52.396 -54.367  1.00  0.00     0.018 A 
BRANCH  24  27
HETATM   27  O   UNL     1     -39.002  50.635 -51.336  1.00  0.00    -0.356 OA
HETATM   28  C   UNL     1     -39.884  49.807 -50.589  1.00  0.00     0.210 C 
ENDBRANCH  24  27
ENDBRANCH   1  21
TORSDOF 4
ENDMDL
MODEL 2
REMARK VINA RESULT:      -8.2      3.080      4.285
REMARK  4 active torsions:
REMARK  status: ('A' for Active; 'I' for Inactive)
REMARK    1  A    between atoms: O_2  and  C_3 
REMARK    2  A    between atoms: C_6  and  C_7 
REMARK    3  A    between atoms: C_9  and  N_10 
REMARK       I    between atoms: N_10  and  C_11 
REMARK    4  A    between atoms: C_11  and  C_12 
ROOT
HETATM    1  C   UNL     1     -41.692  54.322 -54.472  1.00  0.00     0.173 A 
HETATM    2  N   UNL     1     -41.202  55.238 -55.290  1.00  0.00    -0.041 NA
HETATM    3  C   UNL     1     -42.292  55.984 -55.650  1.00  0.00     0.748 A 
HETATM    4  N   UNL     1     -43.435  55.581 -55.100  1.00  0.00     0.021 NA
HETATM    5  N   UNL     1     -43.039  54.538 -54.367  1.00  0.00    -0.244 N 
HETATM    6  H   UNL     1     -43.723  54.044 -53.808  1.00  0.00     0.191 HD
ENDROOT
BRANCH   3   7
HETATM    7  N   UNL     1     -42.087  57.035 -56.499  1.00  0.00    -0.150 N 
HETATM    8  C   UNL     1     -42.647  57.159 -57.748  1.00  0.00     0.270 C 
HETATM    9  O   UNL     1     -43.377  56.346 -58.305  1.00  0.00    -0.267 OA
HETATM   10  H   UNL     1     -41.446  57.714 -56.126  1.00  0.00     0.188 HD
BRANCH   8  11
HETATM   11  C   UNL     1     -42.304  58.408 -58.500  1.00  0.00     0.035 A 
HETATM   12  C   UNL     1     -41.684  59.513 -57.901  1.00  0.00     0.056 A 
HETATM   13  C   UNL     1     -41.395  60.645 -58.665  1.00  0.00     0.103 A 
HETATM   14  C   UNL     1     -41.760  60.705 -60.014  1.00  0.00     0.102 A 
HETATM   15  O   UNL     1     -40.758  61.675 -58.016  1.00  0.00    -0.346 OA
HETATM   16  O   UNL     1     -41.541  61.802 -60.806  1.00  0.00    -0.346 OA
HETATM   17  C   UNL     1     -42.376  59.613 -60.615  1.00  0.00     0.040 A 
HETATM   18  C   UNL     1     -41.239  62.961 -60.020  1.00  0.00     0.202 C 
HETATM   19  C   UNL     1     -40.219  62.623 -58.945  1.00  0.00     0.202 C 
HETATM   20  C   UNL     1     -42.650  58.470 -59.860  1.00  0.00     0.020 A 
ENDBRANCH   8  11
ENDBRANCH   3   7
BRANCH   1  21
HETATM   21  C   UNL     1     -40.955  53.285 -53.752  1.00  0.00     0.012 A 
HETATM   22  C   UNL     1     -40.774  53.402 -52.368  1.00  0.00     0.018 A 
HETATM   23  C   UNL     1     -40.108  52.406 -51.646  1.00  0.00     0.037 A 
HETATM   24  C   UNL     1     -39.606  51.276 -52.290  1.00  0.00     0.068 A 
HETATM   25  C   UNL     1     -39.756  51.160 -53.671  1.00  0.00     0.037 A 
HETATM   26  C   UNL     1     -40.426  52.157 -54.396  1.00  0.00     0.018 A 
BRANCH  24  27
HETATM   27  O   UNL     1     -38.991  50.371 -51.471  1.00  0.00    -0.356 OA
HETATM   28  C   UNL     1     -39.816  49.688 -50.535  1.00  0.00     0.210 C 
ENDBRANCH  24  27
ENDBRANCH   1  21
TORSDOF 4
ENDMDL
MODEL 3
REMARK VINA RESULT:      -7.9      1.612      9.943
REMARK  4 active torsions:
REMARK  status: ('A' for Active; 'I' for Inactive)
REMARK    1  A    between atoms: O_2  and  C_3 
REMARK    2  A    between atoms: C_6  and  C_7 
REMARK    3  A    between atoms: C_9  and  N_10 
REMARK       I    between atoms: N_10  and  C_11 
REMARK    4  A    between atoms: C_11  and  C_12 
ROOT
HETATM    1  C   UNL     1     -43.931  56.984 -58.154  1.00  0.00     0.173 A 
HETATM    2  N   UNL     1     -43.565  55.880 -57.526  1.00  0.00    -0.041 NA
HETATM    3  C   UNL     1     -42.499  56.269 -56.758  1.00  0.00     0.748 A 
HETATM    4  N   UNL     1     -42.183  57.556 -56.876  1.00  0.00     0.021 NA
HETATM    5  N   UNL     1     -43.090  57.987 -57.755  1.00  0.00    -0.244 N 
HETATM    6  H   UNL     1     -43.095  58.965 -58.015  1.00  0.00     0.191 HD
ENDROOT
BRANCH   3   7
HETATM    7  N   UNL     1     -41.906  55.321 -55.973  1.00  0.00    -0.150 N 
HETATM    8  C   UNL     1     -42.058  55.219 -54.611  1.00  0.00     0.270 C 
HETATM    9  O   UNL     1     -42.707  55.969 -53.890  1.00  0.00    -0.267 OA
HETATM   10  H   UNL     1     -41.307  54.705 -56.496  1.00  0.00     0.188 HD
BRANCH   8  11
HETATM   11  C   UNL     1     -41.333  54.085 -53.953  1.00  0.00     0.035 A 
HETATM   12  C   UNL     1     -41.182  52.827 -54.551  1.00  0.00     0.056 A 
HETATM   13  C   UNL     1     -40.494  51.816 -53.877  1.00  0.00     0.103 A 
HETATM   14  C   UNL     1     -39.993  52.034 -52.588  1.00  0.00     0.102 A 
HETATM   15  O   UNL     1     -40.359  50.621 -54.540  1.00  0.00    -0.346 OA
HETATM   16  O   UNL     1     -39.347  51.071 -51.859  1.00  0.00    -0.346 OA
HETATM   17  C   UNL     1     -40.141  53.280 -51.988  1.00  0.00     0.040 A 
HETATM   18  C   UNL     1     -39.561  49.766 -52.410  1.00  0.00     0.202 C 
HETATM   19  C   UNL     1     -39.372  49.788 -53.918  1.00  0.00     0.202 C 
HETATM   20  C   UNL     1     -40.811  54.300 -52.667  1.00  0.00     0.020 A 
ENDBRANCH   8  11
ENDBRANCH   3   7
BRANCH   1  21
HETATM   21  C   UNL     1     -45.056  57.155 -59.073  1.00  0.00     0.012 A 
HETATM   22  C   UNL     1     -45.704  58.394 -59.146  1.00  0.00     0.018 A 
HETATM   23  C   UNL     1     -46.758  58.599 -60.044  1.00  0.00     0.037 A 
HETATM   24  C   UNL     1     -47.186  57.571 -60.883  1.00  0.00     0.068 A 
HETATM   25  C   UNL     1     -46.566  56.325 -60.800  1.00  0.00     0.037 A 
HETATM   26  C   UNL     1     -45.510  56.119 -59.902  1.00  0.00     0.018 A 
BRANCH  24  27
HETATM   27  O   UNL     1     -48.211  57.904 -61.724  1.00  0.00    -0.356 OA
HETATM   28  C   UNL     1     -48.811  56.843 -62.458  1.00  0.00     0.210 C 
ENDBRANCH  24  27
ENDBRANCH   1  21
TORSDOF 4
ENDMDL
MODEL 4
REMARK VINA RESULT:      -7.8     15.369     17.119
REMARK  4 active torsions:
REMARK  status: ('A' for Active; 'I' for Inactive)
REMARK    1  A    between atoms: O_2  and  C_3 
REMARK    2  A    between atoms: C_6  and  C_7 
REMARK    3  A    between atoms: C_9  and  N_10 
REMARK       I    between atoms: N_10  and  C_11 
REMARK    4  A    between atoms: C_11  and  C_12 
ROOT
HETATM    1  C   UNL     1     -34.564  40.866 -52.348  1.00  0.00     0.173 A 
HETATM    2  N   UNL     1     -34.838  40.310 -53.516  1.00  0.00    -0.041 NA
HETATM    3  C   UNL     1     -35.575  41.258 -54.174  1.00  0.00     0.748 A 
HETATM    4  N   UNL     1     -35.775  42.374 -53.477  1.00  0.00     0.021 NA
HETATM    5  N   UNL     1     -35.135  42.108 -52.336  1.00  0.00    -0.244 N 
HETATM    6  H   UNL     1     -35.105  42.817 -51.614  1.00  0.00     0.191 HD
ENDROOT
BRANCH   3   7
HETATM    7  N   UNL     1     -36.000  40.964 -55.438  1.00  0.00    -0.150 N 
HETATM    8  C   UNL     1     -35.638  41.652 -56.571  1.00  0.00     0.270 C 
HETATM    9  O   UNL     1     -34.919  42.644 -56.625  1.00  0.00    -0.267 OA
HETATM   10  H   UNL     1     -36.645  40.192 -55.460  1.00  0.00     0.188 HD
BRANCH   8  11
HETATM   11  C   UNL     1     -36.205  41.139 -57.860  1.00  0.00     0.035 A 
HETATM   12  C   UNL     1     -36.093  39.803 -58.264  1.00  0.00     0.056 A 
HETATM   13  C   UNL     1     -36.646  39.397 -59.481  1.00  0.00     0.103 A 
HETATM   14  C   UNL     1     -37.272  40.324 -60.322  1.00  0.00     0.102 A 
HETATM   15  O   UNL     1     -36.524  38.065 -59.794  1.00  0.00    -0.346 OA
HETATM   16  O   UNL     1     -37.796  39.997 -61.545  1.00  0.00    -0.346 OA
HETATM   17  C   UNL     1     -37.385  41.652 -59.927  1.00  0.00     0.040 A 
HETATM   18  C   UNL     1     -37.321  38.722 -61.993  1.00  0.00     0.202 C 
HETATM   19  C   UNL     1     -37.397  37.700 -60.870  1.00  0.00     0.202 C 
HETATM   20  C   UNL     1     -36.851  42.059 -58.702  1.00  0.00     0.020 A 
ENDBRANCH   8  11
ENDBRANCH   3   7
BRANCH   1  21
HETATM   21  C   UNL     1     -33.757  40.308 -51.264  1.00  0.00     0.012 A 
HETATM   22  C   UNL     1     -32.360  40.375 -51.339  1.00  0.00     0.018 A 
HETATM   23  C   UNL     1     -31.563  39.885 -50.298  1.00  0.00     0.037 A 
HETATM   24  C   UNL     1     -32.143  39.317 -49.165  1.00  0.00     0.068 A 
HETATM   25  C   UNL     1     -33.532  39.220 -49.091  1.00  0.00     0.037 A 
HETATM   26  C   UNL     1     -34.332  39.711 -50.132  1.00  0.00     0.018 A 
BRANCH  24  27
HETATM   27  O   UNL     1     -31.256  38.892 -48.215  1.00  0.00    -0.356 OA
HETATM   28  C   UNL     1     -30.890  39.831 -47.213  1.00  0.00     0.210 C 
ENDBRANCH  24  27
ENDBRANCH   1  21
TORSDOF 4
ENDMDL
MODEL 5
REMARK VINA RESULT:      -7.8     15.557     20.136
REMARK  4 active torsions:
REMARK  status: ('A' for Active; 'I' for Inactive)
REMARK    1  A    between atoms: O_2  and  C_3 
REMARK    2  A    between atoms: C_6  and  C_7 
REMARK    3  A    between atoms: C_9  and  N_10 
REMARK       I    between atoms: N_10  and  C_11 
REMARK    4  A    between atoms: C_11  and  C_12 
ROOT
HETATM    1  C   UNL     1     -36.316  41.296 -54.989  1.00  0.00     0.173 A 
HETATM    2  N   UNL     1     -35.747  40.495 -54.105  1.00  0.00    -0.041 NA
HETATM    3  C   UNL     1     -35.619  41.272 -52.983  1.00  0.00     0.748 A 
HETATM    4  N   UNL     1     -36.078  42.512 -53.123  1.00  0.00     0.021 NA
HETATM    5  N   UNL     1     -36.509  42.509 -54.387  1.00  0.00    -0.244 N 
HETATM    6  H   UNL     1     -36.942  43.345 -54.759  1.00  0.00     0.191 HD
ENDROOT
BRANCH   3   7
HETATM    7  N   UNL     1     -35.060  40.697 -51.877  1.00  0.00    -0.150 N 
HETATM    8  C   UNL     1     -33.717  40.461 -51.704  1.00  0.00     0.270 C 
HETATM    9  O   UNL     1     -32.826  40.689 -52.515  1.00  0.00    -0.267 OA
HETATM   10  H   UNL     1     -35.747  40.428 -51.192  1.00  0.00     0.188 HD
BRANCH   8  11
HETATM   11  C   UNL     1     -33.322  39.841 -50.399  1.00  0.00     0.035 A 
HETATM   12  C   UNL     1     -32.057  40.015 -49.824  1.00  0.00     0.056 A 
HETATM   13  C   UNL     1     -31.759  39.404 -48.604  1.00  0.00     0.103 A 
HETATM   14  C   UNL     1     -32.698  38.581 -47.972  1.00  0.00     0.102 A 
HETATM   15  O   UNL     1     -30.510  39.648 -48.087  1.00  0.00    -0.346 OA
HETATM   16  O   UNL     1     -32.452  37.922 -46.797  1.00  0.00    -0.346 OA
HETATM   17  C   UNL     1     -33.955  38.403 -48.539  1.00  0.00     0.040 A 
HETATM   18  C   UNL     1     -31.051  37.890 -46.500  1.00  0.00     0.202 C 
HETATM   19  C   UNL     1     -30.431  39.262 -46.709  1.00  0.00     0.202 C 
HETATM   20  C   UNL     1     -34.265  39.027 -49.749  1.00  0.00     0.020 A 
ENDBRANCH   8  11
ENDBRANCH   3   7
BRANCH   1  21
HETATM   21  C   UNL     1     -36.728  40.967 -56.353  1.00  0.00     0.012 A 
HETATM   22  C   UNL     1     -36.436  41.856 -57.395  1.00  0.00     0.018 A 
HETATM   23  C   UNL     1     -36.782  41.549 -58.716  1.00  0.00     0.037 A 
HETATM   24  C   UNL     1     -37.430  40.352 -59.021  1.00  0.00     0.068 A 
HETATM   25  C   UNL     1     -37.750  39.472 -57.989  1.00  0.00     0.037 A 
HETATM   26  C   UNL     1     -37.402  39.778 -56.666  1.00  0.00     0.018 A 
BRANCH  24  27
HETATM   27  O   UNL     1     -37.698  40.166 -60.349  1.00  0.00    -0.356 OA
HETATM   28  C   UNL     1     -36.863  39.254 -61.051  1.00  0.00     0.210 C 
ENDBRANCH  24  27
ENDBRANCH   1  21
TORSDOF 4
ENDMDL
MODEL 6
REMARK VINA RESULT:      -7.7      6.202      8.126
REMARK  4 active torsions:
REMARK  status: ('A' for Active; 'I' for Inactive)
REMARK    1  A    between atoms: O_2  and  C_3 
REMARK    2  A    between atoms: C_6  and  C_7 
REMARK    3  A    between atoms: C_9  and  N_10 
REMARK       I    between atoms: N_10  and  C_11 
REMARK    4  A    between atoms: C_11  and  C_12 
ROOT
HETATM    1  C   UNL     1     -41.167  55.444 -53.429  1.00  0.00     0.173 A 
HETATM    2  N   UNL     1     -41.492  56.305 -52.480  1.00  0.00    -0.041 NA
HETATM    3  C   UNL     1     -41.944  57.403 -53.163  1.00  0.00     0.748 A 
HETATM    4  N   UNL     1     -41.917  57.270 -54.487  1.00  0.00     0.021 NA
HETATM    5  N   UNL     1     -41.426  56.038 -54.633  1.00  0.00    -0.244 N 
HETATM    6  H   UNL     1     -41.321  55.660 -55.567  1.00  0.00     0.191 HD
ENDROOT
BRANCH   3   7
HETATM    7  N   UNL     1     -42.369  58.474 -52.429  1.00  0.00    -0.150 N 
HETATM    8  C   UNL     1     -43.600  58.577 -51.826  1.00  0.00     0.270 C 
HETATM    9  O   UNL     1     -44.510  57.757 -51.881  1.00  0.00    -0.267 OA
HETATM   10  H   UNL     1     -41.688  59.214 -52.394  1.00  0.00     0.188 HD
BRANCH   8  11
HETATM   11  C   UNL     1     -43.846  59.833 -51.049  1.00  0.00     0.035 A 
HETATM   12  C   UNL     1     -45.047  60.090 -50.374  1.00  0.00     0.056 A 
HETATM   13  C   UNL     1     -45.206  61.285 -49.669  1.00  0.00     0.103 A 
HETATM   14  C   UNL     1     -44.193  62.250 -49.669  1.00  0.00     0.102 A 
HETATM   15  O   UNL     1     -46.397  61.451 -49.007  1.00  0.00    -0.346 OA
HETATM   16  O   UNL     1     -44.305  63.459 -49.033  1.00  0.00    -0.346 OA
HETATM   17  C   UNL     1     -42.999  62.003 -50.338  1.00  0.00     0.040 A 
HETATM   18  C   UNL     1     -45.666  63.745 -48.692  1.00  0.00     0.202 C 
HETATM   19  C   UNL     1     -46.326  62.528 -48.065  1.00  0.00     0.202 C 
HETATM   20  C   UNL     1     -42.827  60.801 -51.027  1.00  0.00     0.020 A 
ENDBRANCH   8  11
ENDBRANCH   3   7
BRANCH   1  21
HETATM   21  C   UNL     1     -40.670  54.079 -53.261  1.00  0.00     0.012 A 
HETATM   22  C   UNL     1     -40.403  53.596 -51.974  1.00  0.00     0.018 A 
HETATM   23  C   UNL     1     -39.964  52.281 -51.780  1.00  0.00     0.037 A 
HETATM   24  C   UNL     1     -39.780  51.425 -52.865  1.00  0.00     0.068 A 
HETATM   25  C   UNL     1     -40.017  51.903 -54.153  1.00  0.00     0.037 A 
HETATM   26  C   UNL     1     -40.458  53.220 -54.349  1.00  0.00     0.018 A 
BRANCH  24  27
HETATM   27  O   UNL     1     -39.365  50.164 -52.540  1.00  0.00    -0.356 OA
HETATM   28  C   UNL     1     -39.529  49.763 -51.186  1.00  0.00     0.210 C 
ENDBRANCH  24  27
ENDBRANCH   1  21
TORSDOF 4
ENDMDL
MODEL 7
REMARK VINA RESULT:      -7.7      2.225      2.683
REMARK  4 active torsions:
REMARK  status: ('A' for Active; 'I' for Inactive)
REMARK    1  A    between atoms: O_2  and  C_3 
REMARK    2  A    between atoms: C_6  and  C_7 
REMARK    3  A    between atoms: C_9  and  N_10 
REMARK       I    between atoms: N_10  and  C_11 
REMARK    4  A    between atoms: C_11  and  C_12 
ROOT
HETATM    1  C   UNL     1     -42.113  54.529 -54.398  1.00  0.00     0.173 A 
HETATM    2  N   UNL     1     -41.863  55.199 -55.509  1.00  0.00    -0.041 NA
HETATM    3  C   UNL     1     -42.943  56.028 -55.652  1.00  0.00     0.748 A 
HETATM    4  N   UNL     1     -43.853  55.910 -54.688  1.00  0.00     0.021 NA
HETATM    5  N   UNL     1     -43.316  54.965 -53.913  1.00  0.00    -0.244 N 
HETATM    6  H   UNL     1     -43.802  54.689 -53.069  1.00  0.00     0.191 HD
ENDROOT
BRANCH   3   7
HETATM    7  N   UNL     1     -42.959  56.867 -56.730  1.00  0.00    -0.150 N 
HETATM    8  C   UNL     1     -43.245  56.487 -58.020  1.00  0.00     0.270 C 
HETATM    9  O   UNL     1     -43.492  55.351 -58.408  1.00  0.00    -0.267 OA
HETATM   10  H   UNL     1     -42.704  57.810 -56.490  1.00  0.00     0.188 HD
BRANCH   8  11
HETATM   11  C   UNL     1     -43.228  57.580 -59.044  1.00  0.00     0.035 A 
HETATM   12  C   UNL     1     -44.385  58.246 -59.468  1.00  0.00     0.056 A 
HETATM   13  C   UNL     1     -44.293  59.255 -60.430  1.00  0.00     0.103 A 
HETATM   14  C   UNL     1     -43.059  59.575 -61.008  1.00  0.00     0.102 A 
HETATM   15  O   UNL     1     -45.465  59.884 -60.771  1.00  0.00    -0.346 OA
HETATM   16  O   UNL     1     -42.910  60.524 -61.985  1.00  0.00    -0.346 OA
HETATM   17  C   UNL     1     -41.907  58.916 -60.593  1.00  0.00     0.040 A 
HETATM   18  C   UNL     1     -44.169  60.872 -62.572  1.00  0.00     0.202 C 
HETATM   19  C   UNL     1     -45.216  61.097 -61.493  1.00  0.00     0.202 C 
HETATM   20  C   UNL     1     -41.991  57.920 -59.617  1.00  0.00     0.020 A 
ENDBRANCH   8  11
ENDBRANCH   3   7
BRANCH   1  21
HETATM   21  C   UNL     1     -41.262  53.535 -53.745  1.00  0.00     0.012 A 
HETATM   22  C   UNL     1     -41.078  53.589 -52.358  1.00  0.00     0.018 A 
HETATM   23  C   UNL     1     -40.301  52.628 -51.701  1.00  0.00     0.037 A 
HETATM   24  C   UNL     1     -39.690  51.598 -52.416  1.00  0.00     0.068 A 
HETATM   25  C   UNL     1     -39.843  51.550 -53.800  1.00  0.00     0.037 A 
HETATM   26  C   UNL     1     -40.623  52.511 -54.459  1.00  0.00     0.018 A 
BRANCH  24  27
HETATM   27  O   UNL     1     -38.973  50.717 -51.656  1.00  0.00    -0.356 OA
HETATM   28  C   UNL     1     -39.709  49.890 -50.763  1.00  0.00     0.210 C 
ENDBRANCH  24  27
ENDBRANCH   1  21
TORSDOF 4
ENDMDL
MODEL 8
REMARK VINA RESULT:      -7.7      6.081     10.079
REMARK  4 active torsions:
REMARK  status: ('A' for Active; 'I' for Inactive)
REMARK    1  A    between atoms: O_2  and  C_3 
REMARK    2  A    between atoms: C_6  and  C_7 
REMARK    3  A    between atoms: C_9  and  N_10 
REMARK       I    between atoms: N_10  and  C_11 
REMARK    4  A    between atoms: C_11  and  C_12 
ROOT
HETATM    1  C   UNL     1     -42.561  59.614 -51.687  1.00  0.00     0.173 A 
HETATM    2  N   UNL     1     -42.380  58.341 -51.382  1.00  0.00    -0.041 NA
HETATM    3  C   UNL     1     -41.472  57.901 -52.309  1.00  0.00     0.748 A 
HETATM    4  N   UNL     1     -41.080  58.832 -53.174  1.00  0.00     0.021 NA
HETATM    5  N   UNL     1     -41.774  59.898 -52.769  1.00  0.00    -0.244 N 
HETATM    6  H   UNL     1     -41.645  60.779 -53.251  1.00  0.00     0.191 HD
ENDROOT
BRANCH   3   7
HETATM    7  N   UNL     1     -41.076  56.595 -52.236  1.00  0.00    -0.150 N 
HETATM    8  C   UNL     1     -41.555  55.580 -53.029  1.00  0.00     0.270 C 
HETATM    9  O   UNL     1     -42.425  55.674 -53.888  1.00  0.00    -0.267 OA
HETATM   10  H   UNL     1     -40.402  56.436 -51.505  1.00  0.00     0.188 HD
BRANCH   8  11
HETATM   11  C   UNL     1     -40.961  54.226 -52.792  1.00  0.00     0.035 A 
HETATM   12  C   UNL     1     -40.892  53.239 -53.784  1.00  0.00     0.056 A 
HETATM   13  C   UNL     1     -40.325  51.997 -53.489  1.00  0.00     0.103 A 
HETATM   14  C   UNL     1     -39.866  51.713 -52.198  1.00  0.00     0.102 A 
HETATM   15  O   UNL     1     -40.264  51.093 -54.521  1.00  0.00    -0.346 OA
HETATM   16  O   UNL     1     -39.338  50.501 -51.836  1.00  0.00    -0.346 OA
HETATM   17  C   UNL     1     -39.933  52.687 -51.209  1.00  0.00     0.040 A 
HETATM   18  C   UNL     1     -39.640  49.490 -52.805  1.00  0.00     0.202 C 
HETATM   19  C   UNL     1     -39.382  50.006 -54.212  1.00  0.00     0.202 C 
HETATM   20  C   UNL     1     -40.480  53.938 -51.503  1.00  0.00     0.020 A 
ENDBRANCH   8  11
ENDBRANCH   3   7
BRANCH   1  21
HETATM   21  C   UNL     1     -43.400  60.587 -50.987  1.00  0.00     0.012 A 
HETATM   22  C   UNL     1     -44.743  60.283 -50.735  1.00  0.00     0.018 A 
HETATM   23  C   UNL     1     -45.559  61.177 -50.033  1.00  0.00     0.037 A 
HETATM   24  C   UNL     1     -45.052  62.391 -49.571  1.00  0.00     0.068 A 
HETATM   25  C   UNL     1     -43.723  62.716 -49.840  1.00  0.00     0.037 A 
HETATM   26  C   UNL     1     -42.904  61.821 -50.542  1.00  0.00     0.018 A 
BRANCH  24  27
HETATM   27  O   UNL     1     -45.946  63.166 -48.887  1.00  0.00    -0.356 OA
HETATM   28  C   UNL     1     -46.849  62.492 -48.020  1.00  0.00     0.210 C 
ENDBRANCH  24  27
ENDBRANCH   1  21
TORSDOF 4
ENDMDL
MODEL 9
REMARK VINA RESULT:      -7.6      5.593      7.330
REMARK  4 active torsions:
REMARK  status: ('A' for Active; 'I' for Inactive)
REMARK    1  A    between atoms: O_2  and  C_3 
REMARK    2  A    between atoms: C_6  and  C_7 
REMARK    3  A    between atoms: C_9  and  N_10 
REMARK       I    between atoms: N_10  and  C_11 
REMARK    4  A    between atoms: C_11  and  C_12 
ROOT
HETATM    1  C   UNL     1     -41.133  55.100 -53.932  1.00  0.00     0.173 A 
HETATM    2  N   UNL     1     -41.556  56.122 -53.208  1.00  0.00    -0.041 NA
HETATM    3  C   UNL     1     -41.896  57.072 -54.135  1.00  0.00     0.748 A 
HETATM    4  N   UNL     1     -41.707  56.694 -55.397  1.00  0.00     0.021 NA
HETATM    5  N   UNL     1     -41.227  55.458 -55.249  1.00  0.00    -0.244 N 
HETATM    6  H   UNL     1     -41.014  54.913 -56.075  1.00  0.00     0.191 HD
ENDROOT
BRANCH   3   7
HETATM    7  N   UNL     1     -42.388  58.260 -53.673  1.00  0.00    -0.150 N 
HETATM    8  C   UNL     1     -41.627  59.366 -53.378  1.00  0.00     0.270 C 
HETATM    9  O   UNL     1     -40.405  59.451 -53.445  1.00  0.00    -0.267 OA
HETATM   10  H   UNL     1     -43.384  58.239 -53.536  1.00  0.00     0.188 HD
BRANCH   8  11
HETATM   11  C   UNL     1     -42.379  60.572 -52.906  1.00  0.00     0.035 A 
HETATM   12  C   UNL     1     -42.751  60.765 -51.569  1.00  0.00     0.056 A 
HETATM   13  C   UNL     1     -43.453  61.915 -51.203  1.00  0.00     0.103 A 
HETATM   14  C   UNL     1     -43.829  62.856 -52.168  1.00  0.00     0.102 A 
HETATM   15  O   UNL     1     -43.754  62.049 -49.870  1.00  0.00    -0.346 OA
HETATM   16  O   UNL     1     -44.554  63.983 -51.878  1.00  0.00    -0.346 OA
HETATM   17  C   UNL     1     -43.465  62.671 -53.497  1.00  0.00     0.040 A 
HETATM   18  C   UNL     1     -45.164  63.893 -50.585  1.00  0.00     0.202 C 
HETATM   19  C   UNL     1     -44.164  63.387 -49.559  1.00  0.00     0.202 C 
HETATM   20  C   UNL     1     -42.745  61.532 -53.865  1.00  0.00     0.020 A 
ENDBRANCH   8  11
ENDBRANCH   3   7
BRANCH   1  21
HETATM   21  C   UNL     1     -40.689  53.792 -53.452  1.00  0.00     0.012 A 
HETATM   22  C   UNL     1     -40.486  52.754 -54.369  1.00  0.00     0.018 A 
HETATM   23  C   UNL     1     -40.024  51.503 -53.944  1.00  0.00     0.037 A 
HETATM   24  C   UNL     1     -39.757  51.265 -52.596  1.00  0.00     0.068 A 
HETATM   25  C   UNL     1     -39.981  52.282 -51.670  1.00  0.00     0.037 A 
HETATM   26  C   UNL     1     -40.443  53.536 -52.095  1.00  0.00     0.018 A 
BRANCH  24  27
HETATM   27  O   UNL     1     -39.296  50.009 -52.314  1.00  0.00    -0.356 OA
HETATM   28  C   UNL     1     -39.322  49.606 -50.950  1.00  0.00     0.210 C 
ENDBRANCH  24  27
ENDBRANCH   1  21
TORSDOF 4
ENDMDL
MODEL 10
REMARK VINA RESULT:      -7.5      3.626      4.311
REMARK  4 active torsions:
REMARK  status: ('A' for Active; 'I' for Inactive)
REMARK    1  A    between atoms: O_2  and  C_3 
REMARK    2  A    between atoms: C_6  and  C_7 
REMARK    3  A    between atoms: C_9  and  N_10 
REMARK       I    between atoms: N_10  and  C_11 
REMARK    4  A    between atoms: C_11  and  C_12 
ROOT
HETATM    1  C   UNL     1     -41.942  54.673 -54.252  1.00  0.00     0.173 A 
HETATM    2  N   UNL     1     -41.555  55.536 -55.176  1.00  0.00    -0.041 NA
HETATM    3  C   UNL     1     -42.666  56.304 -55.403  1.00  0.00     0.748 A 
HETATM    4  N   UNL     1     -43.723  55.965 -54.671  1.00  0.00     0.021 NA
HETATM    5  N   UNL     1     -43.251  54.940 -53.958  1.00  0.00    -0.244 N 
HETATM    6  H   UNL     1     -43.856  54.494 -53.280  1.00  0.00     0.191 HD
ENDROOT
BRANCH   3   7
HETATM    7  N   UNL     1     -42.562  57.311 -56.322  1.00  0.00    -0.150 N 
HETATM    8  C   UNL     1     -42.131  58.586 -56.048  1.00  0.00     0.270 C 
HETATM    9  O   UNL     1     -41.812  59.029 -54.949  1.00  0.00    -0.267 OA
HETATM   10  H   UNL     1     -42.868  57.031 -57.239  1.00  0.00     0.188 HD
BRANCH   8  11
HETATM   11  C   UNL     1     -42.072  59.524 -57.214  1.00  0.00     0.035 A 
HETATM   12  C   UNL     1     -41.981  59.085 -58.541  1.00  0.00     0.056 A 
HETATM   13  C   UNL     1     -41.929  60.019 -59.579  1.00  0.00     0.103 A 
HETATM   14  C   UNL     1     -41.920  61.390 -59.302  1.00  0.00     0.102 A 
HETATM   15  O   UNL     1     -41.874  59.513 -60.854  1.00  0.00    -0.346 OA
HETATM   16  O   UNL     1     -41.829  62.354 -60.272  1.00  0.00    -0.346 OA
HETATM   17  C   UNL     1     -42.008  61.833 -57.987  1.00  0.00     0.040 A 
HETATM   18  C   UNL     1     -41.394  61.799 -61.519  1.00  0.00     0.202 C 
HETATM   19  C   UNL     1     -42.159  60.523 -61.830  1.00  0.00     0.202 C 
HETATM   20  C   UNL     1     -42.081  60.903 -56.947  1.00  0.00     0.020 A 
ENDBRANCH   8  11
ENDBRANCH   3   7
BRANCH   1  21
HETATM   21  C   UNL     1     -41.134  53.642 -53.602  1.00  0.00     0.012 A 
HETATM   22  C   UNL     1     -40.880  53.730 -52.228  1.00  0.00     0.018 A 
HETATM   23  C   UNL     1     -40.143  52.738 -51.571  1.00  0.00     0.037 A 
HETATM   24  C   UNL     1     -39.643  51.641 -52.274  1.00  0.00     0.068 A 
HETATM   25  C   UNL     1     -39.867  51.557 -53.647  1.00  0.00     0.037 A 
HETATM   26  C   UNL     1     -40.606  52.550 -54.306  1.00  0.00     0.018 A 
BRANCH  24  27
HETATM   27  O   UNL     1     -38.956  50.736 -51.514  1.00  0.00    -0.356 OA
HETATM   28  C   UNL     1     -39.716  49.702 -50.902  1.00  0.00     0.210 C 
ENDBRANCH  24  27
ENDBRANCH   1  21
TORSDOF 4
ENDMDL
