MODEL 1
REMARK VINA RESULT:      -8.7      0.000      0.000
REMARK  2 active torsions:
REMARK  status: ('A' for Active; 'I' for Inactive)
REMARK    1  A    between atoms: C_8  and  C_9 
REMARK       I    between atoms: N_10  and  C_11 
REMARK    2  A    between atoms: C_11  and  C_12 
ROOT
HETATM    1  C   UNL     1     -42.931  59.013 -51.121  1.00  0.00     0.124 C 
HETATM    2  N   UNL     1     -42.149  57.784 -51.237  1.00  0.00    -0.339 N 
HETATM    3  C   UNL     1     -42.759  56.552 -51.105  1.00  0.00     0.260 C 
HETATM    4  O   UNL     1     -43.969  56.407 -50.942  1.00  0.00    -0.267 OA
HETATM    5  C   UNL     1     -40.723  58.070 -51.140  1.00  0.00     0.127 C 
HETATM    6  C   UNL     1     -40.666  59.413 -50.431  1.00  0.00     0.022 C 
HETATM    7  C   UNL     1     -41.890  60.133 -50.976  1.00  0.00     0.032 C 
ENDROOT
BRANCH   1   8
HETATM    8  C   UNL     1     -43.831  59.235 -52.302  1.00  0.00     0.014 A 
HETATM    9  C   UNL     1     -45.191  59.500 -52.262  1.00  0.00     0.034 A 
HETATM   10  C   UNL     1     -46.139  59.622 -51.131  1.00  0.00     0.070 C 
HETATM   11  N   UNL     1     -45.593  59.630 -53.560  1.00  0.00    -0.282 N 
HETATM   12  H   UNL     1     -46.528  59.809 -53.911  1.00  0.00     0.189 HD
HETATM   13  N   UNL     1     -44.598  59.518 -54.446  1.00  0.00    -0.179 NA
HETATM   14  C   UNL     1     -43.518  59.265 -53.696  1.00  0.00     0.061 A 
HETATM   15  C   UNL     1     -42.208  59.070 -54.364  1.00  0.00     0.073 C 
ENDBRANCH   1   8
BRANCH   3  16
HETATM   16  C   UNL     1     -41.911  55.351 -51.278  1.00  0.00     0.108 A 
HETATM   17  C   UNL     1     -41.243  54.706 -50.135  1.00  0.00     0.304 A 
HETATM   18  O   UNL     1     -41.332  55.139 -48.990  1.00  0.00    -0.259 OA
HETATM   19  O   UNL     1     -40.454  53.594 -50.422  1.00  0.00    -0.274 OA
HETATM   20  C   UNL     1     -40.381  53.059 -51.722  1.00  0.00     0.089 A 
HETATM   21  C   UNL     1     -41.079  53.646 -52.775  1.00  0.00    -0.001 A 
HETATM   22  C   UNL     1     -39.600  51.920 -51.905  1.00  0.00     0.038 A 
HETATM   23  C   UNL     1     -41.004  53.063 -54.041  1.00  0.00     0.014 A 
HETATM   24  C   UNL     1     -41.857  54.845 -52.519  1.00  0.00     0.037 A 
HETATM   25  C   UNL     1     -40.231  51.914 -54.238  1.00  0.00     0.001 A 
HETATM   26  C   UNL     1     -39.526  51.346 -53.172  1.00  0.00     0.003 A 
ENDBRANCH   3  16
TORSDOF 2
ENDMDL
MODEL 2
REMARK VINA RESULT:      -8.2      2.023      3.090
REMARK  2 active torsions:
REMARK  status: ('A' for Active; 'I' for Inactive)
REMARK    1  A    between atoms: C_8  and  C_9 
REMARK       I    between atoms: N_10  and  C_11 
REMARK    2  A    between atoms: C_11  and  C_12 
ROOT
HETATM    1  C   UNL     1     -43.092  57.099 -53.909  1.00  0.00     0.124 C 
HETATM    2  N   UNL     1     -42.554  55.804 -53.497  1.00  0.00    -0.339 N 
HETATM    3  C   UNL     1     -41.202  55.654 -53.256  1.00  0.00     0.260 C 
HETATM    4  O   UNL     1     -40.394  56.579 -53.315  1.00  0.00    -0.267 OA
HETATM    5  C   UNL     1     -43.524  54.743 -53.736  1.00  0.00     0.127 C 
HETATM    6  C   UNL     1     -44.451  55.327 -54.789  1.00  0.00     0.022 C 
HETATM    7  C   UNL     1     -44.514  56.797 -54.405  1.00  0.00     0.032 C 
ENDROOT
BRANCH   1   8
HETATM    8  C   UNL     1     -43.091  58.103 -52.792  1.00  0.00     0.014 A 
HETATM    9  C   UNL     1     -43.576  57.906 -51.508  1.00  0.00     0.034 A 
HETATM   10  C   UNL     1     -44.225  56.738 -50.868  1.00  0.00     0.070 C 
HETATM   11  N   UNL     1     -43.368  59.076 -50.837  1.00  0.00    -0.282 N 
HETATM   12  H   UNL     1     -43.615  59.302 -49.880  1.00  0.00     0.189 HD
HETATM   13  N   UNL     1     -42.744  60.010 -51.564  1.00  0.00    -0.179 NA
HETATM   14  C   UNL     1     -42.578  59.436 -52.762  1.00  0.00     0.061 A 
HETATM   15  C   UNL     1     -41.914  60.206 -53.842  1.00  0.00     0.073 C 
ENDBRANCH   1   8
BRANCH   3  16
HETATM   16  C   UNL     1     -40.736  54.325 -52.800  1.00  0.00     0.108 A 
HETATM   17  C   UNL     1     -40.524  54.028 -51.374  1.00  0.00     0.304 A 
HETATM   18  O   UNL     1     -40.696  54.866 -50.494  1.00  0.00    -0.259 OA
HETATM   19  O   UNL     1     -40.067  52.748 -51.066  1.00  0.00    -0.274 OA
HETATM   20  C   UNL     1     -39.911  51.763 -52.059  1.00  0.00     0.089 A 
HETATM   21  C   UNL     1     -40.185  52.048 -53.395  1.00  0.00    -0.001 A 
HETATM   22  C   UNL     1     -39.487  50.500 -51.651  1.00  0.00     0.038 A 
HETATM   23  C   UNL     1     -40.049  51.032 -54.343  1.00  0.00     0.014 A 
HETATM   24  C   UNL     1     -40.601  53.392 -53.755  1.00  0.00     0.037 A 
HETATM   25  C   UNL     1     -39.633  49.756 -53.946  1.00  0.00     0.001 A 
HETATM   26  C   UNL     1     -39.349  49.492 -52.603  1.00  0.00     0.003 A 
ENDBRANCH   3  16
TORSDOF 2
ENDMDL
MODEL 3
REMARK VINA RESULT:      -8.1      1.843      2.511
REMARK  2 active torsions:
REMARK  status: ('A' for Active; 'I' for Inactive)
REMARK    1  A    between atoms: C_8  and  C_9 
REMARK       I    between atoms: N_10  and  C_11 
REMARK    2  A    between atoms: C_11  and  C_12 
ROOT
HETATM    1  C   UNL     1     -42.684  58.798 -52.837  1.00  0.00     0.124 C 
HETATM    2  N   UNL     1     -42.134  57.484 -53.165  1.00  0.00    -0.339 N 
HETATM    3  C   UNL     1     -42.822  56.334 -52.829  1.00  0.00     0.260 C 
HETATM    4  O   UNL     1     -43.931  56.336 -52.298  1.00  0.00    -0.267 OA
HETATM    5  C   UNL     1     -40.724  57.589 -53.518  1.00  0.00     0.127 C 
HETATM    6  C   UNL     1     -40.286  58.900 -52.886  1.00  0.00     0.022 C 
HETATM    7  C   UNL     1     -41.519  59.777 -53.041  1.00  0.00     0.032 C 
ENDROOT
BRANCH   1   8
HETATM    8  C   UNL     1     -43.870  59.153 -53.687  1.00  0.00     0.014 A 
HETATM    9  C   UNL     1     -45.088  59.638 -53.239  1.00  0.00     0.034 A 
HETATM   10  C   UNL     1     -45.594  59.925 -51.876  1.00  0.00     0.070 C 
HETATM   11  N   UNL     1     -45.860  59.821 -54.350  1.00  0.00    -0.282 N 
HETATM   12  H   UNL     1     -46.819  60.147 -54.400  1.00  0.00     0.189 HD
HETATM   13  N   UNL     1     -45.229  59.537 -55.495  1.00  0.00    -0.179 NA
HETATM   14  C   UNL     1     -44.019  59.118 -55.108  1.00  0.00     0.061 A 
HETATM   15  C   UNL     1     -43.037  58.704 -56.140  1.00  0.00     0.073 C 
ENDBRANCH   1   8
BRANCH   3  16
HETATM   16  C   UNL     1     -42.224  55.042 -53.232  1.00  0.00     0.108 A 
HETATM   17  C   UNL     1     -42.390  54.505 -54.593  1.00  0.00     0.304 A 
HETATM   18  O   UNL     1     -43.049  55.082 -55.453  1.00  0.00    -0.259 OA
HETATM   19  O   UNL     1     -41.797  53.271 -54.852  1.00  0.00    -0.274 OA
HETATM   20  C   UNL     1     -41.001  52.621 -53.891  1.00  0.00     0.089 A 
HETATM   21  C   UNL     1     -40.800  53.183 -52.633  1.00  0.00    -0.001 A 
HETATM   22  C   UNL     1     -40.416  51.410 -54.255  1.00  0.00     0.038 A 
HETATM   23  C   UNL     1     -39.975  52.520 -51.722  1.00  0.00     0.014 A 
HETATM   24  C   UNL     1     -41.459  54.437 -52.312  1.00  0.00     0.037 A 
HETATM   25  C   UNL     1     -39.374  51.308 -52.076  1.00  0.00     0.001 A 
HETATM   26  C   UNL     1     -39.597  50.751 -53.339  1.00  0.00     0.003 A 
ENDBRANCH   3  16
TORSDOF 2
ENDMDL
MODEL 4
REMARK VINA RESULT:      -7.7      3.869      6.849
REMARK  2 active torsions:
REMARK  status: ('A' for Active; 'I' for Inactive)
REMARK    1  A    between atoms: C_8  and  C_9 
REMARK       I    between atoms: N_10  and  C_11 
REMARK    2  A    between atoms: C_11  and  C_12 
ROOT
HETATM    1  C   UNL     1     -42.075  54.773 -53.374  1.00  0.00     0.124 C 
HETATM    2  N   UNL     1     -41.963  55.362 -54.707  1.00  0.00    -0.339 N 
HETATM    3  C   UNL     1     -43.052  55.976 -55.295  1.00  0.00     0.260 C 
HETATM    4  O   UNL     1     -44.137  56.115 -54.735  1.00  0.00    -0.267 OA
HETATM    5  C   UNL     1     -40.754  54.896 -55.376  1.00  0.00     0.127 C 
HETATM    6  C   UNL     1     -40.408  53.607 -54.649  1.00  0.00     0.022 C 
HETATM    7  C   UNL     1     -40.815  53.909 -53.215  1.00  0.00     0.032 C 
ENDROOT
BRANCH   1   8
HETATM    8  C   UNL     1     -42.182  55.812 -52.296  1.00  0.00     0.014 A 
HETATM    9  C   UNL     1     -42.899  55.701 -51.114  1.00  0.00     0.034 A 
HETATM   10  C   UNL     1     -43.749  54.613 -50.576  1.00  0.00     0.070 C 
HETATM   11  N   UNL     1     -42.711  56.873 -50.441  1.00  0.00    -0.282 N 
HETATM   12  H   UNL     1     -43.101  57.151 -49.547  1.00  0.00     0.189 HD
HETATM   13  N   UNL     1     -41.892  57.726 -51.065  1.00  0.00    -0.179 NA
HETATM   14  C   UNL     1     -41.569  57.099 -52.202  1.00  0.00     0.061 A 
HETATM   15  C   UNL     1     -40.662  57.774 -53.163  1.00  0.00     0.073 C 
ENDBRANCH   1   8
BRANCH   3  16
HETATM   16  C   UNL     1     -42.850  56.588 -56.628  1.00  0.00     0.108 A 
HETATM   17  C   UNL     1     -43.131  55.845 -57.868  1.00  0.00     0.304 A 
HETATM   18  O   UNL     1     -43.520  54.681 -57.866  1.00  0.00    -0.259 OA
HETATM   19  O   UNL     1     -42.885  56.517 -59.064  1.00  0.00    -0.274 OA
HETATM   20  C   UNL     1     -42.484  57.866 -59.082  1.00  0.00     0.089 A 
HETATM   21  C   UNL     1     -42.293  58.569 -57.895  1.00  0.00    -0.001 A 
HETATM   22  C   UNL     1     -42.303  58.466 -60.326  1.00  0.00     0.038 A 
HETATM   23  C   UNL     1     -41.928  59.915 -57.960  1.00  0.00     0.014 A 
HETATM   24  C   UNL     1     -42.478  57.876 -56.632  1.00  0.00     0.037 A 
HETATM   25  C   UNL     1     -41.751  60.532 -59.202  1.00  0.00     0.001 A 
HETATM   26  C   UNL     1     -41.933  59.808 -60.383  1.00  0.00     0.003 A 
ENDBRANCH   3  16
TORSDOF 2
ENDMDL
MODEL 5
REMARK VINA RESULT:      -7.6      3.502      4.656
REMARK  2 active torsions:
REMARK  status: ('A' for Active; 'I' for Inactive)
REMARK    1  A    between atoms: C_8  and  C_9 
REMARK       I    between atoms: N_10  and  C_11 
REMARK    2  A    between atoms: C_11  and  C_12 
ROOT
HETATM    1  C   UNL     1     -44.258  58.561 -56.907  1.00  0.00     0.124 C 
HETATM    2  N   UNL     1     -43.427  57.785 -55.990  1.00  0.00    -0.339 N 
HETATM    3  C   UNL     1     -44.009  56.988 -55.023  1.00  0.00     0.260 C 
HETATM    4  O   UNL     1     -45.224  56.838 -54.907  1.00  0.00    -0.267 OA
HETATM    5  C   UNL     1     -42.046  58.250 -56.026  1.00  0.00     0.127 C 
HETATM    6  C   UNL     1     -42.151  59.663 -56.575  1.00  0.00     0.022 C 
HETATM    7  C   UNL     1     -43.293  59.552 -57.574  1.00  0.00     0.032 C 
ENDROOT
BRANCH   1   8
HETATM    8  C   UNL     1     -44.960  57.699 -57.916  1.00  0.00     0.014 A 
HETATM    9  C   UNL     1     -46.311  57.726 -58.224  1.00  0.00     0.034 A 
HETATM   10  C   UNL     1     -47.428  58.538 -57.688  1.00  0.00     0.070 C 
HETATM   11  N   UNL     1     -46.503  56.781 -59.190  1.00  0.00    -0.282 N 
HETATM   12  H   UNL     1     -47.371  56.512 -59.640  1.00  0.00     0.189 HD
HETATM   13  N   UNL     1     -45.378  56.167 -59.572  1.00  0.00    -0.179 NA
HETATM   14  C   UNL     1     -44.430  56.707 -58.797  1.00  0.00     0.061 A 
HETATM   15  C   UNL     1     -43.028  56.244 -58.947  1.00  0.00     0.073 C 
ENDBRANCH   1   8
BRANCH   3  16
HETATM   16  C   UNL     1     -43.104  56.197 -54.158  1.00  0.00     0.108 A 
HETATM   17  C   UNL     1     -42.819  56.596 -52.770  1.00  0.00     0.304 A 
HETATM   18  O   UNL     1     -43.292  57.609 -52.265  1.00  0.00    -0.259 OA
HETATM   19  O   UNL     1     -41.937  55.784 -52.059  1.00  0.00    -0.274 OA
HETATM   20  C   UNL     1     -41.425  54.594 -52.608  1.00  0.00     0.089 A 
HETATM   21  C   UNL     1     -41.765  54.202 -53.901  1.00  0.00    -0.001 A 
HETATM   22  C   UNL     1     -40.583  53.827 -51.807  1.00  0.00     0.038 A 
HETATM   23  C   UNL     1     -41.261  52.997 -54.394  1.00  0.00     0.014 A 
HETATM   24  C   UNL     1     -42.631  55.061 -54.690  1.00  0.00     0.037 A 
HETATM   25  C   UNL     1     -40.421  52.212 -53.597  1.00  0.00     0.001 A 
HETATM   26  C   UNL     1     -40.079  52.628 -52.308  1.00  0.00     0.003 A 
ENDBRANCH   3  16
TORSDOF 2
ENDMDL
MODEL 6
REMARK VINA RESULT:      -7.3      4.466      6.091
REMARK  2 active torsions:
REMARK  status: ('A' for Active; 'I' for Inactive)
REMARK    1  A    between atoms: C_8  and  C_9 
REMARK       I    between atoms: N_10  and  C_11 
REMARK    2  A    between atoms: C_11  and  C_12 
ROOT
HETATM    1  C   UNL     1     -44.253  58.393 -58.621  1.00  0.00     0.124 C 
HETATM    2  N   UNL     1     -43.489  57.797 -57.527  1.00  0.00    -0.339 N 
HETATM    3  C   UNL     1     -44.085  57.569 -56.301  1.00  0.00     0.260 C 
HETATM    4  O   UNL     1     -45.272  57.791 -56.071  1.00  0.00    -0.267 OA
HETATM    5  C   UNL     1     -42.060  57.845 -57.810  1.00  0.00     0.127 C 
HETATM    6  C   UNL     1     -41.929  58.953 -58.842  1.00  0.00     0.022 C 
HETATM    7  C   UNL     1     -43.200  58.801 -59.662  1.00  0.00     0.032 C 
ENDROOT
BRANCH   1   8
HETATM    8  C   UNL     1     -45.269  57.447 -59.193  1.00  0.00     0.014 A 
HETATM    9  C   UNL     1     -45.049  56.128 -59.561  1.00  0.00     0.034 A 
HETATM   10  C   UNL     1     -43.830  55.287 -59.535  1.00  0.00     0.070 C 
HETATM   11  N   UNL     1     -46.243  55.656 -60.025  1.00  0.00    -0.282 N 
HETATM   12  H   UNL     1     -46.452  54.736 -60.396  1.00  0.00     0.189 HD
HETATM   13  N   UNL     1     -47.239  56.546 -59.947  1.00  0.00    -0.179 NA
HETATM   14  C   UNL     1     -46.659  57.646 -59.453  1.00  0.00     0.061 A 
HETATM   15  C   UNL     1     -47.485  58.860 -59.240  1.00  0.00     0.073 C 
ENDBRANCH   1   8
BRANCH   3  16
HETATM   16  C   UNL     1     -43.261  56.923 -55.255  1.00  0.00     0.108 A 
HETATM   17  C   UNL     1     -42.853  57.645 -54.038  1.00  0.00     0.304 A 
HETATM   18  O   UNL     1     -43.150  58.819 -53.838  1.00  0.00    -0.259 OA
HETATM   19  O   UNL     1     -42.062  56.941 -53.132  1.00  0.00    -0.274 OA
HETATM   20  C   UNL     1     -41.754  55.582 -53.326  1.00  0.00     0.089 A 
HETATM   21  C   UNL     1     -42.211  54.900 -54.451  1.00  0.00    -0.001 A 
HETATM   22  C   UNL     1     -40.991  54.950 -52.346  1.00  0.00     0.038 A 
HETATM   23  C   UNL     1     -41.909  53.543 -54.587  1.00  0.00     0.014 A 
HETATM   24  C   UNL     1     -42.982  55.625 -55.445  1.00  0.00     0.037 A 
HETATM   25  C   UNL     1     -41.152  52.894 -53.606  1.00  0.00     0.001 A 
HETATM   26  C   UNL     1     -40.690  53.597 -52.490  1.00  0.00     0.003 A 
ENDBRANCH   3  16
TORSDOF 2
ENDMDL
MODEL 7
REMARK VINA RESULT:      -7.3      1.651      2.771
REMARK  2 active torsions:
REMARK  status: ('A' for Active; 'I' for Inactive)
REMARK    1  A    between atoms: C_8  and  C_9 
REMARK       I    between atoms: N_10  and  C_11 
REMARK    2  A    between atoms: C_11  and  C_12 
ROOT
HETATM    1  C   UNL     1     -43.160  59.486 -51.401  1.00  0.00     0.124 C 
HETATM    2  N   UNL     1     -42.470  58.316 -51.939  1.00  0.00    -0.339 N 
HETATM    3  C   UNL     1     -43.174  57.166 -52.243  1.00  0.00     0.260 C 
HETATM    4  O   UNL     1     -44.395  57.070 -52.137  1.00  0.00    -0.267 OA
HETATM    5  C   UNL     1     -41.029  58.436 -51.753  1.00  0.00     0.127 C 
HETATM    6  C   UNL     1     -40.890  59.441 -50.621  1.00  0.00     0.022 C 
HETATM    7  C   UNL     1     -42.042  60.400 -50.879  1.00  0.00     0.032 C 
ENDROOT
BRANCH   1   8
HETATM    8  C   UNL     1     -44.011  60.174 -52.430  1.00  0.00     0.014 A 
HETATM    9  C   UNL     1     -43.628  60.519 -53.716  1.00  0.00     0.034 A 
HETATM   10  C   UNL     1     -42.346  60.357 -54.440  1.00  0.00     0.070 C 
HETATM   11  N   UNL     1     -44.712  61.117 -54.290  1.00  0.00    -0.282 N 
HETATM   12  H   UNL     1     -44.789  61.514 -55.221  1.00  0.00     0.189 HD
HETATM   13  N   UNL     1     -45.790  61.151 -53.499  1.00  0.00    -0.179 NA
HETATM   14  C   UNL     1     -45.376  60.590 -52.357  1.00  0.00     0.061 A 
HETATM   15  C   UNL     1     -46.331  60.467 -51.228  1.00  0.00     0.073 C 
ENDBRANCH   1   8
BRANCH   3  16
HETATM   16  C   UNL     1     -42.414  56.037 -52.824  1.00  0.00     0.108 A 
HETATM   17  C   UNL     1     -42.158  55.943 -54.272  1.00  0.00     0.304 A 
HETATM   18  O   UNL     1     -42.578  56.774 -55.071  1.00  0.00    -0.259 OA
HETATM   19  O   UNL     1     -41.448  54.825 -54.706  1.00  0.00    -0.274 OA
HETATM   20  C   UNL     1     -40.920  53.889 -53.797  1.00  0.00     0.089 A 
HETATM   21  C   UNL     1     -41.115  54.038 -52.426  1.00  0.00    -0.001 A 
HETATM   22  C   UNL     1     -40.188  52.826 -54.322  1.00  0.00     0.038 A 
HETATM   23  C   UNL     1     -40.545  53.104 -51.558  1.00  0.00     0.014 A 
HETATM   24  C   UNL     1     -41.907  55.158 -51.948  1.00  0.00     0.037 A 
HETATM   25  C   UNL     1     -39.801  52.037 -52.071  1.00  0.00     0.001 A 
HETATM   26  C   UNL     1     -39.626  51.895 -53.450  1.00  0.00     0.003 A 
ENDBRANCH   3  16
TORSDOF 2
ENDMDL
MODEL 8
REMARK VINA RESULT:      -7.2      3.803      6.652
REMARK  2 active torsions:
REMARK  status: ('A' for Active; 'I' for Inactive)
REMARK    1  A    between atoms: C_8  and  C_9 
REMARK       I    between atoms: N_10  and  C_11 
REMARK    2  A    between atoms: C_11  and  C_12 
ROOT
HETATM    1  C   UNL     1     -41.868  55.809 -51.791  1.00  0.00     0.124 C 
HETATM    2  N   UNL     1     -42.346  56.320 -53.073  1.00  0.00    -0.339 N 
HETATM    3  C   UNL     1     -41.454  56.815 -54.006  1.00  0.00     0.260 C 
HETATM    4  O   UNL     1     -40.235  56.808 -53.849  1.00  0.00    -0.267 OA
HETATM    5  C   UNL     1     -43.786  56.545 -53.035  1.00  0.00     0.127 C 
HETATM    6  C   UNL     1     -44.096  56.671 -51.552  1.00  0.00     0.022 C 
HETATM    7  C   UNL     1     -43.127  55.683 -50.920  1.00  0.00     0.032 C 
ENDROOT
BRANCH   1   8
HETATM    8  C   UNL     1     -41.149  54.498 -51.927  1.00  0.00     0.014 A 
HETATM    9  C   UNL     1     -40.220  53.973 -51.043  1.00  0.00     0.034 A 
HETATM   10  C   UNL     1     -39.655  54.500 -49.779  1.00  0.00     0.070 C 
HETATM   11  N   UNL     1     -39.833  52.771 -51.563  1.00  0.00    -0.282 N 
HETATM   12  H   UNL     1     -39.152  52.118 -51.192  1.00  0.00     0.189 HD
HETATM   13  N   UNL     1     -40.469  52.445 -52.693  1.00  0.00    -0.179 NA
HETATM   14  C   UNL     1     -41.266  53.492 -52.935  1.00  0.00     0.061 A 
HETATM   15  C   UNL     1     -42.129  53.475 -54.142  1.00  0.00     0.073 C 
ENDBRANCH   1   8
BRANCH   3  16
HETATM   16  C   UNL     1     -42.008  57.275 -55.299  1.00  0.00     0.108 A 
HETATM   17  C   UNL     1     -42.062  58.704 -55.651  1.00  0.00     0.304 A 
HETATM   18  O   UNL     1     -41.677  59.585 -54.888  1.00  0.00    -0.259 OA
HETATM   19  O   UNL     1     -42.622  59.019 -56.887  1.00  0.00    -0.274 OA
HETATM   20  C   UNL     1     -43.023  58.018 -57.791  1.00  0.00     0.089 A 
HETATM   21  C   UNL     1     -42.897  56.669 -57.463  1.00  0.00    -0.001 A 
HETATM   22  C   UNL     1     -43.534  58.428 -59.020  1.00  0.00     0.038 A 
HETATM   23  C   UNL     1     -43.277  55.709 -58.402  1.00  0.00     0.014 A 
HETATM   24  C   UNL     1     -42.377  56.311 -56.155  1.00  0.00     0.037 A 
HETATM   25  C   UNL     1     -43.783  56.107 -59.644  1.00  0.00     0.001 A 
HETATM   26  C   UNL     1     -43.915  57.464 -59.951  1.00  0.00     0.003 A 
ENDBRANCH   3  16
TORSDOF 2
ENDMDL
MODEL 9
REMARK VINA RESULT:      -7.1      3.753      6.560
REMARK  2 active torsions:
REMARK  status: ('A' for Active; 'I' for Inactive)
REMARK    1  A    between atoms: C_8  and  C_9 
REMARK       I    between atoms: N_10  and  C_11 
REMARK    2  A    between atoms: C_11  and  C_12 
ROOT
HETATM    1  C   UNL     1     -41.869  56.851 -52.704  1.00  0.00     0.124 C 
HETATM    2  N   UNL     1     -42.266  57.471 -53.966  1.00  0.00    -0.339 N 
HETATM    3  C   UNL     1     -42.870  56.718 -54.956  1.00  0.00     0.260 C 
HETATM    4  O   UNL     1     -43.155  55.530 -54.826  1.00  0.00    -0.267 OA
HETATM    5  C   UNL     1     -41.634  58.775 -54.122  1.00  0.00     0.127 C 
HETATM    6  C   UNL     1     -40.433  58.712 -53.193  1.00  0.00     0.022 C 
HETATM    7  C   UNL     1     -40.950  57.881 -52.029  1.00  0.00     0.032 C 
ENDROOT
BRANCH   1   8
HETATM    8  C   UNL     1     -43.047  56.501 -51.841  1.00  0.00     0.014 A 
HETATM    9  C   UNL     1     -43.328  55.257 -51.297  1.00  0.00     0.034 A 
HETATM   10  C   UNL     1     -42.626  53.956 -51.397  1.00  0.00     0.070 C 
HETATM   11  N   UNL     1     -44.485  55.402 -50.588  1.00  0.00    -0.282 N 
HETATM   12  H   UNL     1     -44.997  54.694 -50.073  1.00  0.00     0.189 HD
HETATM   13  N   UNL     1     -44.961  56.652 -50.586  1.00  0.00    -0.179 NA
HETATM   14  C   UNL     1     -44.102  57.332 -51.354  1.00  0.00     0.061 A 
HETATM   15  C   UNL     1     -44.333  58.779 -51.584  1.00  0.00     0.073 C 
ENDBRANCH   1   8
BRANCH   3  16
HETATM   16  C   UNL     1     -43.283  57.424 -56.189  1.00  0.00     0.108 A 
HETATM   17  C   UNL     1     -44.546  58.177 -56.262  1.00  0.00     0.304 A 
HETATM   18  O   UNL     1     -45.331  58.240 -55.320  1.00  0.00    -0.259 OA
HETATM   19  O   UNL     1     -44.839  58.784 -57.482  1.00  0.00    -0.274 OA
HETATM   20  C   UNL     1     -43.928  58.760 -58.554  1.00  0.00     0.089 A 
HETATM   21  C   UNL     1     -42.707  58.099 -58.437  1.00  0.00    -0.001 A 
HETATM   22  C   UNL     1     -44.290  59.430 -59.720  1.00  0.00     0.038 A 
HETATM   23  C   UNL     1     -41.819  58.128 -59.514  1.00  0.00     0.014 A 
HETATM   24  C   UNL     1     -42.402  57.401 -57.200  1.00  0.00     0.037 A 
HETATM   25  C   UNL     1     -42.166  58.805 -60.689  1.00  0.00     0.001 A 
HETATM   26  C   UNL     1     -43.401  59.450 -60.793  1.00  0.00     0.003 A 
ENDBRANCH   3  16
TORSDOF 2
ENDMDL
MODEL 10
REMARK VINA RESULT:      -7.0      3.786      6.224
REMARK  2 active torsions:
REMARK  status: ('A' for Active; 'I' for Inactive)
REMARK    1  A    between atoms: C_8  and  C_9 
REMARK       I    between atoms: N_10  and  C_11 
REMARK    2  A    between atoms: C_11  and  C_12 
ROOT
HETATM    1  C   UNL     1     -42.939  59.728 -52.310  1.00  0.00     0.124 C 
HETATM    2  N   UNL     1     -43.098  59.400 -53.725  1.00  0.00    -0.339 N 
HETATM    3  C   UNL     1     -41.989  59.220 -54.531  1.00  0.00     0.260 C 
HETATM    4  O   UNL     1     -40.833  59.267 -54.116  1.00  0.00    -0.267 OA
HETATM    5  C   UNL     1     -44.466  59.650 -54.162  1.00  0.00     0.127 C 
HETATM    6  C   UNL     1     -45.001  60.636 -53.137  1.00  0.00     0.022 C 
HETATM    7  C   UNL     1     -44.332  60.181 -51.850  1.00  0.00     0.032 C 
ENDROOT
BRANCH   1   8
HETATM    8  C   UNL     1     -42.433  58.565 -51.505  1.00  0.00     0.014 A 
HETATM    9  C   UNL     1     -41.373  58.582 -50.611  1.00  0.00     0.034 A 
HETATM   10  C   UNL     1     -40.446  59.663 -50.202  1.00  0.00     0.070 C 
HETATM   11  N   UNL     1     -41.273  57.316 -50.113  1.00  0.00    -0.282 N 
HETATM   12  H   UNL     1     -40.597  56.956 -49.448  1.00  0.00     0.189 HD
HETATM   13  N   UNL     1     -42.210  56.481 -50.574  1.00  0.00    -0.179 NA
HETATM   14  C   UNL     1     -42.919  57.224 -51.432  1.00  0.00     0.061 A 
HETATM   15  C   UNL     1     -44.059  56.603 -52.151  1.00  0.00     0.073 C 
ENDBRANCH   1   8
BRANCH   3  16
HETATM   16  C   UNL     1     -42.229  58.847 -55.943  1.00  0.00     0.108 A 
HETATM   17  C   UNL     1     -41.995  59.799 -57.043  1.00  0.00     0.304 A 
HETATM   18  O   UNL     1     -41.617  60.950 -56.849  1.00  0.00    -0.259 OA
HETATM   19  O   UNL     1     -42.273  59.341 -58.330  1.00  0.00    -0.274 OA
HETATM   20  C   UNL     1     -42.662  58.011 -58.571  1.00  0.00     0.089 A 
HETATM   21  C   UNL     1     -42.808  57.109 -57.519  1.00  0.00    -0.001 A 
HETATM   22  C   UNL     1     -42.878  57.634 -59.894  1.00  0.00     0.038 A 
HETATM   23  C   UNL     1     -43.162  55.789 -57.806  1.00  0.00     0.014 A 
HETATM   24  C   UNL     1     -42.588  57.574 -56.160  1.00  0.00     0.037 A 
HETATM   25  C   UNL     1     -43.374  55.395 -59.131  1.00  0.00     0.001 A 
HETATM   26  C   UNL     1     -43.237  56.317 -60.173  1.00  0.00     0.003 A 
ENDBRANCH   3  16
TORSDOF 2
ENDMDL
