MODEL 1
REMARK VINA RESULT:      -7.5      0.000      0.000
REMARK  3 active torsions:
REMARK  status: ('A' for Active; 'I' for Inactive)
REMARK    1  A    between atoms: C_4  and  C_5 
REMARK    2  A    between atoms: C_5  and  N_6 
REMARK    3  A    between atoms: N_10  and  S_11 
ROOT
HETATM    1  N   UNL     1     -41.251  54.162 -52.463  1.00  0.00    -0.063 N 
HETATM    2  H   UNL     1     -41.200  53.562 -53.297  1.00  0.00     0.280 HD
HETATM    3  C   UNL     1     -40.919  55.589 -52.878  1.00  0.00     0.267 C 
HETATM    4  C   UNL     1     -41.933  56.141 -53.939  1.00  0.00     0.067 C 
HETATM    5  N   UNL     1     -41.619  57.590 -54.351  1.00  0.00    -0.300 N 
HETATM    6  C   UNL     1     -42.551  58.102 -55.406  1.00  0.00     0.136 C 
HETATM    7  C   UNL     1     -42.420  57.256 -56.666  1.00  0.00     0.021 C 
HETATM    8  C   UNL     1     -42.671  55.783 -56.384  1.00  0.00     0.004 C 
HETATM    9  C   UNL     1     -41.788  55.292 -55.239  1.00  0.00     0.033 C 
HETATM   10  C   UNL     1     -43.347  56.013 -53.314  1.00  0.00     0.035 C 
HETATM   11  C   UNL     1     -43.660  54.598 -52.815  1.00  0.00     0.030 C 
HETATM   12  C   UNL     1     -42.614  54.067 -51.845  1.00  0.00     0.235 C 
ENDROOT
BRANCH   5  13
HETATM   13  S   UNL     1     -41.224  58.716 -53.126  1.00  0.00     0.225 S 
HETATM   14  C   UNL     1     -42.054  60.220 -53.612  1.00  0.00     0.186 C 
HETATM   15  O   UNL     1     -41.796  58.215 -51.898  1.00  0.00    -0.206 OA
HETATM   16  O   UNL     1     -39.799  58.956 -53.231  1.00  0.00    -0.206 OA
ENDBRANCH   5  13
BRANCH   1  17
HETATM   17  C   UNL     1     -40.171  53.585 -51.564  1.00  0.00     0.299 C 
BRANCH  17  18
HETATM   18  C   UNL     1     -39.938  52.145 -51.835  1.00  0.00     0.079 A 
HETATM   19  O   UNL     1     -39.907  51.782 -53.153  1.00  0.00    -0.318 OA
HETATM   20  C   UNL     1     -39.663  50.441 -53.190  1.00  0.00     0.049 A 
HETATM   21  C   UNL     1     -39.571  49.813 -54.524  1.00  0.00     0.076 C 
HETATM   22  C   UNL     1     -39.541  49.947 -51.909  1.00  0.00     0.035 A 
HETATM   23  C   UNL     1     -39.720  51.046 -51.034  1.00  0.00     0.037 A 
ENDBRANCH  17  18
ENDBRANCH   1  17
TORSDOF 3
ENDMDL
MODEL 2
REMARK VINA RESULT:      -7.2      2.461      3.707
REMARK  3 active torsions:
REMARK  status: ('A' for Active; 'I' for Inactive)
REMARK    1  A    between atoms: C_4  and  C_5 
REMARK    2  A    between atoms: C_5  and  N_6 
REMARK    3  A    between atoms: N_10  and  S_11 
ROOT
HETATM    1  N   UNL     1     -41.654  55.297 -52.696  1.00  0.00    -0.063 N 
HETATM    2  H   UNL     1     -40.819  55.269 -52.094  1.00  0.00     0.280 HD
HETATM    3  C   UNL     1     -42.678  56.222 -52.053  1.00  0.00     0.267 C 
HETATM    4  C   UNL     1     -42.134  57.685 -51.904  1.00  0.00     0.067 C 
HETATM    5  N   UNL     1     -43.168  58.634 -51.272  1.00  0.00    -0.300 N 
HETATM    6  C   UNL     1     -42.632  60.019 -51.076  1.00  0.00     0.136 C 
HETATM    7  C   UNL     1     -41.442  59.983 -50.126  1.00  0.00     0.021 C 
HETATM    8  C   UNL     1     -40.354  59.043 -50.622  1.00  0.00     0.004 C 
HETATM    9  C   UNL     1     -40.928  57.659 -50.915  1.00  0.00     0.033 C 
HETATM   10  C   UNL     1     -41.714  58.152 -53.322  1.00  0.00     0.035 C 
HETATM   11  C   UNL     1     -40.748  57.184 -54.015  1.00  0.00     0.030 C 
HETATM   12  C   UNL     1     -41.278  55.758 -54.073  1.00  0.00     0.235 C 
ENDROOT
BRANCH   5  13
HETATM   13  S   UNL     1     -44.785  58.554 -51.822  1.00  0.00     0.225 S 
HETATM   14  C   UNL     1     -45.447  60.184 -51.513  1.00  0.00     0.186 C 
HETATM   15  O   UNL     1     -44.732  58.308 -53.243  1.00  0.00    -0.206 OA
HETATM   16  O   UNL     1     -45.475  57.634 -50.940  1.00  0.00    -0.206 OA
ENDBRANCH   5  13
BRANCH   1  17
HETATM   17  C   UNL     1     -42.130  53.855 -52.683  1.00  0.00     0.299 C 
BRANCH  17  18
HETATM   18  C   UNL     1     -40.998  52.900 -52.595  1.00  0.00     0.079 A 
HETATM   19  O   UNL     1     -40.899  51.993 -53.613  1.00  0.00    -0.318 OA
HETATM   20  C   UNL     1     -39.796  51.232 -53.361  1.00  0.00     0.049 A 
HETATM   21  C   UNL     1     -39.471  50.178 -54.344  1.00  0.00     0.076 C 
HETATM   22  C   UNL     1     -39.195  51.643 -52.191  1.00  0.00     0.035 A 
HETATM   23  C   UNL     1     -39.971  52.719 -51.695  1.00  0.00     0.037 A 
ENDBRANCH  17  18
ENDBRANCH   1  17
TORSDOF 3
ENDMDL
MODEL 3
REMARK VINA RESULT:      -6.9      1.650      2.116
REMARK  3 active torsions:
REMARK  status: ('A' for Active; 'I' for Inactive)
REMARK    1  A    between atoms: C_4  and  C_5 
REMARK    2  A    between atoms: C_5  and  N_6 
REMARK    3  A    between atoms: N_10  and  S_11 
ROOT
HETATM    1  N   UNL     1     -41.697  54.762 -51.775  1.00  0.00    -0.063 N 
HETATM    2  H   UNL     1     -42.223  54.208 -52.463  1.00  0.00     0.280 HD
HETATM    3  C   UNL     1     -41.407  56.129 -52.380  1.00  0.00     0.267 C 
HETATM    4  C   UNL     1     -42.724  56.906 -52.728  1.00  0.00     0.067 C 
HETATM    5  N   UNL     1     -42.443  58.297 -53.323  1.00  0.00    -0.300 N 
HETATM    6  C   UNL     1     -43.698  59.020 -53.710  1.00  0.00     0.136 C 
HETATM    7  C   UNL     1     -44.437  58.232 -54.783  1.00  0.00     0.021 C 
HETATM    8  C   UNL     1     -44.743  56.813 -54.330  1.00  0.00     0.004 C 
HETATM    9  C   UNL     1     -43.476  56.116 -53.843  1.00  0.00     0.033 C 
HETATM   10  C   UNL     1     -43.550  56.995 -51.419  1.00  0.00     0.035 C 
HETATM   11  C   UNL     1     -43.775  55.632 -50.754  1.00  0.00     0.030 C 
HETATM   12  C   UNL     1     -42.480  54.875 -50.501  1.00  0.00     0.235 C 
ENDROOT
BRANCH   5  13
HETATM   13  S   UNL     1     -41.246  59.270 -52.585  1.00  0.00     0.225 S 
HETATM   14  C   UNL     1     -41.145  58.666 -50.908  1.00  0.00     0.186 C 
HETATM   15  O   UNL     1     -40.007  59.003 -53.277  1.00  0.00    -0.206 OA
HETATM   16  O   UNL     1     -41.784  60.613 -52.529  1.00  0.00    -0.206 OA
ENDBRANCH   5  13
BRANCH   1  17
HETATM   17  C   UNL     1     -40.420  53.958 -51.596  1.00  0.00     0.299 C 
BRANCH  17  18
HETATM   18  C   UNL     1     -40.296  52.886 -52.614  1.00  0.00     0.079 A 
HETATM   19  O   UNL     1     -39.883  51.667 -52.152  1.00  0.00    -0.318 OA
HETATM   20  C   UNL     1     -39.855  50.825 -53.224  1.00  0.00     0.049 A 
HETATM   21  C   UNL     1     -39.446  49.428 -52.968  1.00  0.00     0.076 C 
HETATM   22  C   UNL     1     -40.242  51.496 -54.363  1.00  0.00     0.035 A 
HETATM   23  C   UNL     1     -40.526  52.827 -53.971  1.00  0.00     0.037 A 
ENDBRANCH  17  18
ENDBRANCH   1  17
TORSDOF 3
ENDMDL
MODEL 4
REMARK VINA RESULT:      -6.7      1.370      1.862
REMARK  3 active torsions:
REMARK  status: ('A' for Active; 'I' for Inactive)
REMARK    1  A    between atoms: C_4  and  C_5 
REMARK    2  A    between atoms: C_5  and  N_6 
REMARK    3  A    between atoms: N_10  and  S_11 
ROOT
HETATM    1  N   UNL     1     -41.390  54.390 -54.737  1.00  0.00    -0.063 N 
HETATM    2  H   UNL     1     -41.555  54.333 -55.751  1.00  0.00     0.280 HD
HETATM    3  C   UNL     1     -40.993  55.820 -54.395  1.00  0.00     0.267 C 
HETATM    4  C   UNL     1     -42.121  56.845 -54.764  1.00  0.00     0.067 C 
HETATM    5  N   UNL     1     -41.739  58.291 -54.406  1.00  0.00    -0.300 N 
HETATM    6  C   UNL     1     -42.790  59.280 -54.808  1.00  0.00     0.136 C 
HETATM    7  C   UNL     1     -42.980  59.245 -56.320  1.00  0.00     0.021 C 
HETATM    8  C   UNL     1     -43.328  57.849 -56.811  1.00  0.00     0.004 C 
HETATM    9  C   UNL     1     -42.306  56.830 -56.313  1.00  0.00     0.033 C 
HETATM   10  C   UNL     1     -43.402  56.386 -54.021  1.00  0.00     0.035 C 
HETATM   11  C   UNL     1     -43.764  54.921 -54.290  1.00  0.00     0.030 C 
HETATM   12  C   UNL     1     -42.620  53.963 -53.992  1.00  0.00     0.235 C 
ENDROOT
BRANCH   5  13
HETATM   13  S   UNL     1     -41.012  58.586 -52.887  1.00  0.00     0.225 S 
HETATM   14  C   UNL     1     -41.922  59.966 -52.211  1.00  0.00     0.186 C 
HETATM   15  O   UNL     1     -41.236  57.409 -52.080  1.00  0.00    -0.206 OA
HETATM   16  O   UNL     1     -39.666  59.048 -53.157  1.00  0.00    -0.206 OA
ENDBRANCH   5  13
BRANCH   1  17
HETATM   17  C   UNL     1     -40.230  53.432 -54.528  1.00  0.00     0.299 C 
BRANCH  17  18
HETATM   18  C   UNL     1     -40.155  52.954 -53.125  1.00  0.00     0.079 A 
HETATM   19  O   UNL     1     -39.848  51.631 -52.959  1.00  0.00    -0.318 OA
HETATM   20  C   UNL     1     -39.807  51.399 -51.617  1.00  0.00     0.049 A 
HETATM   21  C   UNL     1     -39.476  50.025 -51.185  1.00  0.00     0.076 C 
HETATM   22  C   UNL     1     -40.088  52.558 -50.927  1.00  0.00     0.035 A 
HETATM   23  C   UNL     1     -40.314  53.562 -51.900  1.00  0.00     0.037 A 
ENDBRANCH  17  18
ENDBRANCH   1  17
TORSDOF 3
ENDMDL
MODEL 5
REMARK VINA RESULT:      -6.5      3.509      6.132
REMARK  3 active torsions:
REMARK  status: ('A' for Active; 'I' for Inactive)
REMARK    1  A    between atoms: C_4  and  C_5 
REMARK    2  A    between atoms: C_5  and  N_6 
REMARK    3  A    between atoms: N_10  and  S_11 
ROOT
HETATM    1  N   UNL     1     -42.964  56.231 -54.948  1.00  0.00    -0.063 N 
HETATM    2  H   UNL     1     -42.482  57.043 -55.358  1.00  0.00     0.280 HD
HETATM    3  C   UNL     1     -42.157  55.746 -53.752  1.00  0.00     0.267 C 
HETATM    4  C   UNL     1     -42.032  56.848 -52.644  1.00  0.00     0.067 C 
HETATM    5  N   UNL     1     -41.234  56.362 -51.422  1.00  0.00    -0.300 N 
HETATM    6  C   UNL     1     -41.063  57.431 -50.385  1.00  0.00     0.136 C 
HETATM    7  C   UNL     1     -40.284  58.600 -50.973  1.00  0.00     0.021 C 
HETATM    8  C   UNL     1     -40.954  59.153 -52.221  1.00  0.00     0.004 C 
HETATM    9  C   UNL     1     -41.215  58.040 -53.232  1.00  0.00     0.033 C 
HETATM   10  C   UNL     1     -43.476  57.264 -52.262  1.00  0.00     0.035 C 
HETATM   11  C   UNL     1     -44.326  57.673 -53.470  1.00  0.00     0.030 C 
HETATM   12  C   UNL     1     -44.362  56.609 -54.558  1.00  0.00     0.235 C 
ENDROOT
BRANCH   5  13
HETATM   13  S   UNL     1     -41.563  54.802 -50.805  1.00  0.00     0.225 S 
HETATM   14  C   UNL     1     -41.089  54.887 -49.085  1.00  0.00     0.186 C 
HETATM   15  O   UNL     1     -42.989  54.603 -50.910  1.00  0.00    -0.206 OA
HETATM   16  O   UNL     1     -40.642  53.896 -51.462  1.00  0.00    -0.206 OA
ENDBRANCH   5  13
BRANCH   1  17
HETATM   17  C   UNL     1     -42.938  55.216 -56.078  1.00  0.00     0.299 C 
BRANCH  17  18
HETATM   18  C   UNL     1     -42.962  55.871 -57.410  1.00  0.00     0.079 A 
HETATM   19  O   UNL     1     -42.450  57.139 -57.462  1.00  0.00    -0.318 OA
HETATM   20  C   UNL     1     -42.543  57.551 -58.758  1.00  0.00     0.049 A 
HETATM   21  C   UNL     1     -42.033  58.902 -59.069  1.00  0.00     0.076 C 
HETATM   22  C   UNL     1     -43.111  56.561 -59.530  1.00  0.00     0.035 A 
HETATM   23  C   UNL     1     -43.383  55.477 -58.660  1.00  0.00     0.037 A 
ENDBRANCH  17  18
ENDBRANCH   1  17
TORSDOF 3
ENDMDL
MODEL 6
REMARK VINA RESULT:      -6.5      3.064      7.432
REMARK  3 active torsions:
REMARK  status: ('A' for Active; 'I' for Inactive)
REMARK    1  A    between atoms: C_4  and  C_5 
REMARK    2  A    between atoms: C_5  and  N_6 
REMARK    3  A    between atoms: N_10  and  S_11 
ROOT
HETATM    1  N   UNL     1     -42.896  57.668 -51.580  1.00  0.00    -0.063 N 
HETATM    2  H   UNL     1     -42.458  57.907 -50.680  1.00  0.00     0.280 HD
HETATM    3  C   UNL     1     -41.952  56.751 -52.346  1.00  0.00     0.267 C 
HETATM    4  C   UNL     1     -41.676  55.417 -51.570  1.00  0.00     0.067 C 
HETATM    5  N   UNL     1     -40.738  54.473 -52.343  1.00  0.00    -0.300 N 
HETATM    6  C   UNL     1     -40.426  53.221 -51.580  1.00  0.00     0.136 C 
HETATM    7  C   UNL     1     -39.711  53.573 -50.282  1.00  0.00     0.021 C 
HETATM    8  C   UNL     1     -40.524  54.539 -49.435  1.00  0.00     0.004 C 
HETATM    9  C   UNL     1     -40.924  55.768 -50.249  1.00  0.00     0.033 C 
HETATM   10  C   UNL     1     -43.056  54.764 -51.299  1.00  0.00     0.035 C 
HETATM   11  C   UNL     1     -44.044  55.707 -50.605  1.00  0.00     0.030 C 
HETATM   12  C   UNL     1     -44.229  57.023 -51.347  1.00  0.00     0.235 C 
ENDROOT
BRANCH   5  13
HETATM   13  S   UNL     1     -41.008  54.252 -54.017  1.00  0.00     0.225 S 
HETATM   14  C   UNL     1     -40.309  52.649 -54.379  1.00  0.00     0.186 C 
HETATM   15  O   UNL     1     -42.438  54.218 -54.209  1.00  0.00    -0.206 OA
HETATM   16  O   UNL     1     -40.196  55.240 -54.699  1.00  0.00    -0.206 OA
ENDBRANCH   5  13
BRANCH   1  17
HETATM   17  C   UNL     1     -43.024  59.020 -52.263  1.00  0.00     0.299 C 
BRANCH  17  18
HETATM   18  C   UNL     1     -43.463  60.076 -51.318  1.00  0.00     0.079 A 
HETATM   19  O   UNL     1     -44.762  60.487 -51.442  1.00  0.00    -0.318 OA
HETATM   20  C   UNL     1     -44.972  61.432 -50.482  1.00  0.00     0.049 A 
HETATM   21  C   UNL     1     -46.325  62.022 -50.409  1.00  0.00     0.076 C 
HETATM   22  C   UNL     1     -43.820  61.629 -49.753  1.00  0.00     0.035 A 
HETATM   23  C   UNL     1     -42.846  60.756 -50.292  1.00  0.00     0.037 A 
ENDBRANCH  17  18
ENDBRANCH   1  17
TORSDOF 3
ENDMDL
MODEL 7
REMARK VINA RESULT:      -6.5     14.834     16.803
REMARK  3 active torsions:
REMARK  status: ('A' for Active; 'I' for Inactive)
REMARK    1  A    between atoms: C_4  and  C_5 
REMARK    2  A    between atoms: C_5  and  N_6 
REMARK    3  A    between atoms: N_10  and  S_11 
ROOT
HETATM    1  N   UNL     1     -36.726  40.463 -57.116  1.00  0.00    -0.063 N 
HETATM    2  H   UNL     1     -35.999  39.932 -57.614  1.00  0.00     0.280 HD
HETATM    3  C   UNL     1     -36.609  40.160 -55.628  1.00  0.00     0.267 C 
HETATM    4  C   UNL     1     -35.214  40.585 -55.053  1.00  0.00     0.067 C 
HETATM    5  N   UNL     1     -35.091  40.301 -53.546  1.00  0.00    -0.300 N 
HETATM    6  C   UNL     1     -33.739  40.653 -53.003  1.00  0.00     0.136 C 
HETATM    7  C   UNL     1     -32.671  39.811 -53.690  1.00  0.00     0.021 C 
HETATM    8  C   UNL     1     -32.712  39.974 -55.201  1.00  0.00     0.004 C 
HETATM    9  C   UNL     1     -34.117  39.711 -55.737  1.00  0.00     0.033 C 
HETATM   10  C   UNL     1     -35.039  42.092 -55.372  1.00  0.00     0.035 C 
HETATM   11  C   UNL     1     -35.240  42.423 -56.855  1.00  0.00     0.030 C 
HETATM   12  C   UNL     1     -36.573  41.928 -57.397  1.00  0.00     0.235 C 
ENDROOT
BRANCH   5  13
HETATM   13  S   UNL     1     -36.406  40.709 -52.532  1.00  0.00     0.225 S 
HETATM   14  C   UNL     1     -35.759  40.566 -50.874  1.00  0.00     0.186 C 
HETATM   15  O   UNL     1     -36.737  42.086 -52.812  1.00  0.00    -0.206 OA
HETATM   16  O   UNL     1     -37.395  39.664 -52.700  1.00  0.00    -0.206 OA
ENDBRANCH   5  13
BRANCH   1  17
HETATM   17  C   UNL     1     -38.013  39.899 -57.693  1.00  0.00     0.299 C 
BRANCH  17  18
HETATM   18  C   UNL     1     -37.867  39.544 -59.126  1.00  0.00     0.079 A 
HETATM   19  O   UNL     1     -38.923  38.882 -59.689  1.00  0.00    -0.318 OA
HETATM   20  C   UNL     1     -38.606  38.669 -60.998  1.00  0.00     0.049 A 
HETATM   21  C   UNL     1     -39.612  37.973 -61.826  1.00  0.00     0.076 C 
HETATM   22  C   UNL     1     -37.358  39.185 -61.272  1.00  0.00     0.035 A 
HETATM   23  C   UNL     1     -36.880  39.749 -60.064  1.00  0.00     0.037 A 
ENDBRANCH  17  18
ENDBRANCH   1  17
TORSDOF 3
ENDMDL
MODEL 8
REMARK VINA RESULT:      -6.4      3.030      6.550
REMARK  3 active torsions:
REMARK  status: ('A' for Active; 'I' for Inactive)
REMARK    1  A    between atoms: C_4  and  C_5 
REMARK    2  A    between atoms: C_5  and  N_6 
REMARK    3  A    between atoms: N_10  and  S_11 
ROOT
HETATM    1  N   UNL     1     -43.007  57.740 -55.896  1.00  0.00    -0.063 N 
HETATM    2  H   UNL     1     -42.840  58.669 -55.485  1.00  0.00     0.280 HD
HETATM    3  C   UNL     1     -42.023  56.757 -55.275  1.00  0.00     0.267 C 
HETATM    4  C   UNL     1     -42.210  56.644 -53.723  1.00  0.00     0.067 C 
HETATM    5  N   UNL     1     -41.234  55.639 -53.087  1.00  0.00    -0.300 N 
HETATM    6  C   UNL     1     -41.370  55.570 -51.596  1.00  0.00     0.136 C 
HETATM    7  C   UNL     1     -41.050  56.928 -50.985  1.00  0.00     0.021 C 
HETATM    8  C   UNL     1     -41.929  58.027 -51.563  1.00  0.00     0.004 C 
HETATM    9  C   UNL     1     -41.863  58.026 -53.088  1.00  0.00     0.033 C 
HETATM   10  C   UNL     1     -43.688  56.246 -53.478  1.00  0.00     0.035 C 
HETATM   11  C   UNL     1     -44.687  57.180 -54.170  1.00  0.00     0.030 C 
HETATM   12  C   UNL     1     -44.428  57.324 -55.663  1.00  0.00     0.235 C 
ENDROOT
BRANCH   5  13
HETATM   13  S   UNL     1     -40.999  54.133 -53.863  1.00  0.00     0.225 S 
HETATM   14  C   UNL     1     -40.362  53.062 -52.584  1.00  0.00     0.186 C 
HETATM   15  O   UNL     1     -42.301  53.673 -54.284  1.00  0.00    -0.206 OA
HETATM   16  O   UNL     1     -39.938  54.329 -54.829  1.00  0.00    -0.206 OA
ENDBRANCH   5  13
BRANCH   1  17
HETATM   17  C   UNL     1     -42.707  57.962 -57.369  1.00  0.00     0.299 C 
BRANCH  17  18
HETATM   18  C   UNL     1     -43.367  56.946 -58.225  1.00  0.00     0.079 A 
HETATM   19  O   UNL     1     -44.553  57.321 -58.793  1.00  0.00    -0.318 OA
HETATM   20  C   UNL     1     -44.981  56.270 -59.549  1.00  0.00     0.049 A 
HETATM   21  C   UNL     1     -46.253  56.446 -60.281  1.00  0.00     0.076 C 
HETATM   22  C   UNL     1     -44.082  55.230 -59.465  1.00  0.00     0.035 A 
HETATM   23  C   UNL     1     -43.040  55.664 -58.610  1.00  0.00     0.037 A 
ENDBRANCH  17  18
ENDBRANCH   1  17
TORSDOF 3
ENDMDL
MODEL 9
REMARK VINA RESULT:      -6.4      2.621      3.893
REMARK  3 active torsions:
REMARK  status: ('A' for Active; 'I' for Inactive)
REMARK    1  A    between atoms: C_4  and  C_5 
REMARK    2  A    between atoms: C_5  and  N_6 
REMARK    3  A    between atoms: N_10  and  S_11 
ROOT
HETATM    1  N   UNL     1     -43.225  56.326 -51.244  1.00  0.00    -0.063 N 
HETATM    2  H   UNL     1     -44.031  56.889 -50.943  1.00  0.00     0.280 HD
HETATM    3  C   UNL     1     -43.436  55.922 -52.698  1.00  0.00     0.267 C 
HETATM    4  C   UNL     1     -43.539  57.170 -53.642  1.00  0.00     0.067 C 
HETATM    5  N   UNL     1     -43.733  56.774 -55.116  1.00  0.00    -0.300 N 
HETATM    6  C   UNL     1     -43.888  57.963 -56.014  1.00  0.00     0.136 C 
HETATM    7  C   UNL     1     -45.126  58.756 -55.613  1.00  0.00     0.021 C 
HETATM    8  C   UNL     1     -45.075  59.178 -54.153  1.00  0.00     0.004 C 
HETATM    9  C   UNL     1     -44.816  57.974 -53.250  1.00  0.00     0.033 C 
HETATM   10  C   UNL     1     -42.243  57.996 -53.433  1.00  0.00     0.035 C 
HETATM   11  C   UNL     1     -41.974  58.335 -51.962  1.00  0.00     0.030 C 
HETATM   12  C   UNL     1     -41.957  57.107 -51.064  1.00  0.00     0.235 C 
ENDROOT
BRANCH   5  13
HETATM   13  S   UNL     1     -42.775  55.508 -55.750  1.00  0.00     0.225 S 
HETATM   14  C   UNL     1     -42.981  55.630 -57.520  1.00  0.00     0.186 C 
HETATM   15  O   UNL     1     -41.406  55.802 -55.395  1.00  0.00    -0.206 OA
HETATM   16  O   UNL     1     -43.396  54.270 -55.328  1.00  0.00    -0.206 OA
ENDBRANCH   5  13
BRANCH   1  17
HETATM   17  C   UNL     1     -43.291  55.119 -50.323  1.00  0.00     0.299 C 
BRANCH  17  18
HETATM   18  C   UNL     1     -41.953  54.516 -50.106  1.00  0.00     0.079 A 
HETATM   19  O   UNL     1     -41.543  53.615 -51.050  1.00  0.00    -0.318 OA
HETATM   20  C   UNL     1     -40.297  53.198 -50.686  1.00  0.00     0.049 A 
HETATM   21  C   UNL     1     -39.633  52.219 -51.571  1.00  0.00     0.076 C 
HETATM   22  C   UNL     1     -39.912  53.821 -49.519  1.00  0.00     0.035 A 
HETATM   23  C   UNL     1     -40.981  54.671 -49.144  1.00  0.00     0.037 A 
ENDBRANCH  17  18
ENDBRANCH   1  17
TORSDOF 3
ENDMDL
MODEL 10
REMARK VINA RESULT:      -6.2      2.173      2.624
REMARK  3 active torsions:
REMARK  status: ('A' for Active; 'I' for Inactive)
REMARK    1  A    between atoms: C_4  and  C_5 
REMARK    2  A    between atoms: C_5  and  N_6 
REMARK    3  A    between atoms: N_10  and  S_11 
ROOT
HETATM    1  N   UNL     1     -41.836  56.087 -51.897  1.00  0.00    -0.063 N 
HETATM    2  H   UNL     1     -41.335  55.858 -52.766  1.00  0.00     0.280 HD
HETATM    3  C   UNL     1     -41.775  57.595 -51.692  1.00  0.00     0.267 C 
HETATM    4  C   UNL     1     -42.458  58.374 -52.869  1.00  0.00     0.067 C 
HETATM    5  N   UNL     1     -42.419  59.898 -52.662  1.00  0.00    -0.300 N 
HETATM    6  C   UNL     1     -43.021  60.649 -53.811  1.00  0.00     0.136 C 
HETATM    7  C   UNL     1     -42.231  60.365 -55.083  1.00  0.00     0.021 C 
HETATM    8  C   UNL     1     -42.161  58.876 -55.381  1.00  0.00     0.004 C 
HETATM    9  C   UNL     1     -41.642  58.105 -54.170  1.00  0.00     0.033 C 
HETATM   10  C   UNL     1     -43.911  57.843 -52.972  1.00  0.00     0.035 C 
HETATM   11  C   UNL     1     -43.989  56.317 -53.094  1.00  0.00     0.030 C 
HETATM   12  C   UNL     1     -43.250  55.595 -51.976  1.00  0.00     0.235 C 
ENDROOT
BRANCH   5  13
HETATM   13  S   UNL     1     -42.800  60.518 -51.115  1.00  0.00     0.225 S 
HETATM   14  C   UNL     1     -43.124  62.252 -51.391  1.00  0.00     0.186 C 
HETATM   15  O   UNL     1     -44.009  59.856 -50.685  1.00  0.00    -0.206 OA
HETATM   16  O   UNL     1     -41.588  60.426 -50.325  1.00  0.00    -0.206 OA
ENDBRANCH   5  13
BRANCH   1  17
HETATM   17  C   UNL     1     -41.031  55.354 -50.838  1.00  0.00     0.299 C 
BRANCH  17  18
HETATM   18  C   UNL     1     -40.581  54.022 -51.311  1.00  0.00     0.079 A 
HETATM   19  O   UNL     1     -40.652  53.810 -52.660  1.00  0.00    -0.318 OA
HETATM   20  C   UNL     1     -40.179  52.552 -52.890  1.00  0.00     0.049 A 
HETATM   21  C   UNL     1     -40.145  52.096 -54.295  1.00  0.00     0.076 C 
HETATM   22  C   UNL     1     -39.811  51.961 -51.701  1.00  0.00     0.035 A 
HETATM   23  C   UNL     1     -40.071  52.908 -50.681  1.00  0.00     0.037 A 
ENDBRANCH  17  18
ENDBRANCH   1  17
TORSDOF 3
ENDMDL
