MODEL 1
REMARK VINA RESULT:      -7.4      0.000      0.000
REMARK  2 active torsions:
REMARK  status: ('A' for Active; 'I' for Inactive)
REMARK    1  A    between atoms: C_2  and  C_3 
REMARK    2  A    between atoms: C_6  and  C_7 
ROOT
HETATM    1  C   UNL     1     -42.973  56.433 -54.530  1.00  0.00     0.119 C 
HETATM    2  S   UNL     1     -43.167  57.198 -52.906  1.00  0.00    -0.141 SA
HETATM    3  C   UNL     1     -41.614  58.131 -52.802  1.00  0.00     0.136 C 
HETATM    4  C   UNL     1     -41.209  58.247 -51.335  1.00  0.00     0.031 C 
HETATM    5  C   UNL     1     -41.821  59.494 -53.416  1.00  0.00     0.236 C 
HETATM    6  O   UNL     1     -41.690  60.558 -52.828  1.00  0.00    -0.272 OA
HETATM    7  N   UNL     1     -42.088  59.645 -54.809  1.00  0.00    -0.311 N 
HETATM    8  C   UNL     1     -42.287  58.672 -55.768  1.00  0.00     0.134 A 
HETATM    9  C   UNL     1     -42.618  57.327 -55.681  1.00  0.00     0.032 A 
HETATM   10  N   UNL     1     -42.223  58.960 -57.108  1.00  0.00    -0.262 N 
HETATM   11  H   UNL     1     -42.024  59.853 -57.548  1.00  0.00     0.191 HD
HETATM   12  N   UNL     1     -42.415  57.912 -57.904  1.00  0.00    -0.178 NA
HETATM   13  C   UNL     1     -42.684  56.913 -57.063  1.00  0.00     0.062 A 
HETATM   14  C   UNL     1     -43.006  55.569 -57.621  1.00  0.00     0.073 C 
HETATM   15  H   UNL     1     -42.081  60.620 -55.094  1.00  0.00     0.170 HD
ENDROOT
BRANCH   1  16
HETATM   16  C   UNL     1     -42.043  55.228 -54.510  1.00  0.00    -0.040 A 
HETATM   17  C   UNL     1     -42.563  53.998 -54.059  1.00  0.00     0.009 A 
HETATM   18  C   UNL     1     -41.779  52.843 -54.033  1.00  0.00     0.007 A 
HETATM   19  C   UNL     1     -40.444  52.884 -54.440  1.00  0.00    -0.059 A 
HETATM   20  C   UNL     1     -39.909  54.102 -54.872  1.00  0.00     0.007 A 
HETATM   21  C   UNL     1     -40.696  55.258 -54.906  1.00  0.00     0.009 A 
BRANCH  19  22
HETATM   22  C   UNL     1     -39.602  51.632 -54.435  1.00  0.00     0.034 C 
HETATM   23  C   UNL     1     -40.453  50.371 -54.376  1.00  0.00     0.010 C 
ENDBRANCH  19  22
ENDBRANCH   1  16
TORSDOF 2
ENDMDL
MODEL 2
REMARK VINA RESULT:      -7.2      2.959      4.272
REMARK  2 active torsions:
REMARK  status: ('A' for Active; 'I' for Inactive)
REMARK    1  A    between atoms: C_2  and  C_3 
REMARK    2  A    between atoms: C_6  and  C_7 
ROOT
HETATM    1  C   UNL     1     -41.413  55.836 -52.566  1.00  0.00     0.119 C 
HETATM    2  S   UNL     1     -41.153  56.983 -53.936  1.00  0.00    -0.141 SA
HETATM    3  C   UNL     1     -42.621  56.624 -54.939  1.00  0.00     0.136 C 
HETATM    4  C   UNL     1     -42.289  56.884 -56.406  1.00  0.00     0.031 C 
HETATM    5  C   UNL     1     -43.756  57.506 -54.478  1.00  0.00     0.236 C 
HETATM    6  O   UNL     1     -44.337  58.327 -55.174  1.00  0.00    -0.272 OA
HETATM    7  N   UNL     1     -44.324  57.362 -53.178  1.00  0.00    -0.311 N 
HETATM    8  C   UNL     1     -43.932  56.535 -52.144  1.00  0.00     0.134 A 
HETATM    9  C   UNL     1     -42.747  55.860 -51.883  1.00  0.00     0.032 A 
HETATM   10  N   UNL     1     -44.755  56.281 -51.076  1.00  0.00    -0.262 N 
HETATM   11  H   UNL     1     -45.696  56.625 -50.914  1.00  0.00     0.191 HD
HETATM   12  N   UNL     1     -44.243  55.448 -50.174  1.00  0.00    -0.178 NA
HETATM   13  C   UNL     1     -43.013  55.199 -50.627  1.00  0.00     0.062 A 
HETATM   14  C   UNL     1     -42.114  54.322 -49.824  1.00  0.00     0.073 C 
HETATM   15  H   UNL     1     -45.153  57.937 -53.058  1.00  0.00     0.170 HD
ENDROOT
BRANCH   1  16
HETATM   16  C   UNL     1     -41.042  54.401 -52.917  1.00  0.00    -0.040 A 
HETATM   17  C   UNL     1     -41.619  53.832 -54.070  1.00  0.00     0.009 A 
HETATM   18  C   UNL     1     -41.310  52.530 -54.470  1.00  0.00     0.007 A 
HETATM   19  C   UNL     1     -40.428  51.749 -53.720  1.00  0.00    -0.059 A 
HETATM   20  C   UNL     1     -39.862  52.295 -52.563  1.00  0.00     0.007 A 
HETATM   21  C   UNL     1     -40.165  53.602 -52.166  1.00  0.00     0.009 A 
BRANCH  19  22
HETATM   22  C   UNL     1     -40.075  50.351 -54.164  1.00  0.00     0.034 C 
HETATM   23  C   UNL     1     -39.595  49.487 -53.006  1.00  0.00     0.010 C 
ENDBRANCH  19  22
ENDBRANCH   1  16
TORSDOF 2
ENDMDL
MODEL 3
REMARK VINA RESULT:      -7.0      2.513      4.048
REMARK  2 active torsions:
REMARK  status: ('A' for Active; 'I' for Inactive)
REMARK    1  A    between atoms: C_2  and  C_3 
REMARK    2  A    between atoms: C_6  and  C_7 
ROOT
HETATM    1  C   UNL     1     -42.128  56.990 -54.293  1.00  0.00     0.119 C 
HETATM    2  S   UNL     1     -42.305  57.746 -55.923  1.00  0.00    -0.141 SA
HETATM    3  C   UNL     1     -43.927  57.094 -56.407  1.00  0.00     0.136 C 
HETATM    4  C   UNL     1     -43.972  56.971 -57.928  1.00  0.00     0.031 C 
HETATM    5  C   UNL     1     -44.999  58.030 -55.908  1.00  0.00     0.236 C 
HETATM    6  O   UNL     1     -45.802  58.623 -56.616  1.00  0.00    -0.272 OA
HETATM    7  N   UNL     1     -45.231  58.214 -54.513  1.00  0.00    -0.311 N 
HETATM    8  C   UNL     1     -44.533  57.698 -53.439  1.00  0.00     0.134 A 
HETATM    9  C   UNL     1     -43.262  57.151 -53.326  1.00  0.00     0.032 A 
HETATM   10  N   UNL     1     -45.056  57.706 -52.171  1.00  0.00    -0.262 N 
HETATM   11  H   UNL     1     -45.960  58.053 -51.869  1.00  0.00     0.191 HD
HETATM   12  N   UNL     1     -44.271  57.154 -51.250  1.00  0.00    -0.178 NA
HETATM   13  C   UNL     1     -43.163  56.833 -51.921  1.00  0.00     0.062 A 
HETATM   14  C   UNL     1     -42.023  56.224 -51.178  1.00  0.00     0.073 C 
HETATM   15  H   UNL     1     -46.059  58.774 -54.335  1.00  0.00     0.170 HD
ENDROOT
BRANCH   1  16
HETATM   16  C   UNL     1     -41.716  55.525 -54.363  1.00  0.00    -0.040 A 
HETATM   17  C   UNL     1     -40.351  55.229 -54.547  1.00  0.00     0.009 A 
HETATM   18  C   UNL     1     -39.893  53.911 -54.597  1.00  0.00     0.007 A 
HETATM   19  C   UNL     1     -40.788  52.845 -54.482  1.00  0.00    -0.059 A 
HETATM   20  C   UNL     1     -42.150  53.124 -54.318  1.00  0.00     0.007 A 
HETATM   21  C   UNL     1     -42.608  54.445 -54.260  1.00  0.00     0.009 A 
BRANCH  19  22
HETATM   22  C   UNL     1     -40.293  51.421 -54.513  1.00  0.00     0.034 C 
HETATM   23  C   UNL     1     -39.599  51.029 -53.216  1.00  0.00     0.010 C 
ENDBRANCH  19  22
ENDBRANCH   1  16
TORSDOF 2
ENDMDL
MODEL 4
REMARK VINA RESULT:      -7.0      1.844      2.045
REMARK  2 active torsions:
REMARK  status: ('A' for Active; 'I' for Inactive)
REMARK    1  A    between atoms: C_2  and  C_3 
REMARK    2  A    between atoms: C_6  and  C_7 
ROOT
HETATM    1  C   UNL     1     -42.740  55.767 -53.401  1.00  0.00     0.119 C 
HETATM    2  S   UNL     1     -42.632  57.194 -52.301  1.00  0.00    -0.141 SA
HETATM    3  C   UNL     1     -41.093  57.947 -52.898  1.00  0.00     0.136 C 
HETATM    4  C   UNL     1     -40.423  58.679 -51.739  1.00  0.00     0.031 C 
HETATM    5  C   UNL     1     -41.419  58.898 -54.023  1.00  0.00     0.236 C 
HETATM    6  O   UNL     1     -41.188  60.099 -54.019  1.00  0.00    -0.272 OA
HETATM    7  N   UNL     1     -41.943  58.426 -55.264  1.00  0.00    -0.311 N 
HETATM    8  C   UNL     1     -42.310  57.144 -55.622  1.00  0.00     0.134 A 
HETATM    9  C   UNL     1     -42.611  56.014 -54.874  1.00  0.00     0.032 A 
HETATM   10  N   UNL     1     -42.499  56.792 -56.935  1.00  0.00    -0.262 N 
HETATM   11  H   UNL     1     -42.392  57.371 -57.761  1.00  0.00     0.191 HD
HETATM   12  N   UNL     1     -42.829  55.516 -57.117  1.00  0.00    -0.178 NA
HETATM   13  C   UNL     1     -42.931  55.028 -55.880  1.00  0.00     0.062 A 
HETATM   14  C   UNL     1     -43.342  53.607 -55.698  1.00  0.00     0.073 C 
HETATM   15  H   UNL     1     -41.995  59.164 -55.960  1.00  0.00     0.170 HD
ENDROOT
BRANCH   1  16
HETATM   16  C   UNL     1     -41.814  54.630 -52.988  1.00  0.00    -0.040 A 
HETATM   17  C   UNL     1     -42.028  54.025 -51.733  1.00  0.00     0.009 A 
HETATM   18  C   UNL     1     -41.236  52.962 -51.294  1.00  0.00     0.007 A 
HETATM   19  C   UNL     1     -40.193  52.481 -52.088  1.00  0.00    -0.059 A 
HETATM   20  C   UNL     1     -39.957  53.085 -53.328  1.00  0.00     0.007 A 
HETATM   21  C   UNL     1     -40.755  54.145 -53.772  1.00  0.00     0.009 A 
BRANCH  19  22
HETATM   22  C   UNL     1     -39.352  51.318 -51.626  1.00  0.00     0.034 C 
HETATM   23  C   UNL     1     -40.044  50.508 -50.538  1.00  0.00     0.010 C 
ENDBRANCH  19  22
ENDBRANCH   1  16
TORSDOF 2
ENDMDL
MODEL 5
REMARK VINA RESULT:      -6.9     15.873     17.577
REMARK  2 active torsions:
REMARK  status: ('A' for Active; 'I' for Inactive)
REMARK    1  A    between atoms: C_2  and  C_3 
REMARK    2  A    between atoms: C_6  and  C_7 
ROOT
HETATM    1  C   UNL     1     -35.863  39.547 -55.383  1.00  0.00     0.119 C 
HETATM    2  S   UNL     1     -34.407  38.515 -55.658  1.00  0.00    -0.141 SA
HETATM    3  C   UNL     1     -33.152  39.795 -55.934  1.00  0.00     0.136 C 
HETATM    4  C   UNL     1     -32.079  39.238 -56.865  1.00  0.00     0.031 C 
HETATM    5  C   UNL     1     -32.560  40.194 -54.605  1.00  0.00     0.236 C 
HETATM    6  O   UNL     1     -31.381  40.086 -54.298  1.00  0.00    -0.272 OA
HETATM    7  N   UNL     1     -33.346  40.851 -53.612  1.00  0.00    -0.311 N 
HETATM    8  C   UNL     1     -34.695  41.143 -53.623  1.00  0.00     0.134 A 
HETATM    9  C   UNL     1     -35.754  40.646 -54.370  1.00  0.00     0.032 A 
HETATM   10  N   UNL     1     -35.241  42.047 -52.746  1.00  0.00    -0.262 N 
HETATM   11  H   UNL     1     -34.769  42.592 -52.032  1.00  0.00     0.191 HD
HETATM   12  N   UNL     1     -36.550  42.235 -52.897  1.00  0.00    -0.178 NA
HETATM   13  C   UNL     1     -36.890  41.376 -53.859  1.00  0.00     0.062 A 
HETATM   14  C   UNL     1     -38.322  41.278 -54.262  1.00  0.00     0.073 C 
HETATM   15  H   UNL     1     -32.782  41.164 -52.826  1.00  0.00     0.170 HD
ENDROOT
BRANCH   1  16
HETATM   16  C   UNL     1     -36.452  40.096 -56.676  1.00  0.00    -0.040 A 
HETATM   17  C   UNL     1     -35.972  41.335 -57.147  1.00  0.00     0.009 A 
HETATM   18  C   UNL     1     -36.446  41.893 -58.336  1.00  0.00     0.007 A 
HETATM   19  C   UNL     1     -37.427  41.238 -59.084  1.00  0.00    -0.059 A 
HETATM   20  C   UNL     1     -37.926  40.017 -58.618  1.00  0.00     0.007 A 
HETATM   21  C   UNL     1     -37.446  39.454 -57.431  1.00  0.00     0.009 A 
BRANCH  19  22
HETATM   22  C   UNL     1     -37.923  41.828 -60.381  1.00  0.00     0.034 C 
HETATM   23  C   UNL     1     -37.341  43.211 -60.640  1.00  0.00     0.010 C 
ENDBRANCH  19  22
ENDBRANCH   1  16
TORSDOF 2
ENDMDL
MODEL 6
REMARK VINA RESULT:      -6.9      2.730      5.512
REMARK  2 active torsions:
REMARK  status: ('A' for Active; 'I' for Inactive)
REMARK    1  A    between atoms: C_2  and  C_3 
REMARK    2  A    between atoms: C_6  and  C_7 
ROOT
HETATM    1  C   UNL     1     -42.600  56.091 -53.442  1.00  0.00     0.119 C 
HETATM    2  S   UNL     1     -43.908  56.937 -54.355  1.00  0.00    -0.141 SA
HETATM    3  C   UNL     1     -42.936  57.688 -55.689  1.00  0.00     0.136 C 
HETATM    4  C   UNL     1     -43.623  58.977 -56.132  1.00  0.00     0.031 C 
HETATM    5  C   UNL     1     -42.836  56.708 -56.833  1.00  0.00     0.236 C 
HETATM    6  O   UNL     1     -43.251  56.905 -57.967  1.00  0.00    -0.272 OA
HETATM    7  N   UNL     1     -42.127  55.479 -56.694  1.00  0.00    -0.311 N 
HETATM    8  C   UNL     1     -41.526  54.942 -55.572  1.00  0.00     0.134 A 
HETATM    9  C   UNL     1     -41.675  55.201 -54.217  1.00  0.00     0.032 A 
HETATM   10  N   UNL     1     -40.622  53.913 -55.664  1.00  0.00    -0.262 N 
HETATM   11  H   UNL     1     -40.285  53.448 -56.500  1.00  0.00     0.191 HD
HETATM   12  N   UNL     1     -40.116  53.523 -54.497  1.00  0.00    -0.178 NA
HETATM   13  C   UNL     1     -40.760  54.270 -53.600  1.00  0.00     0.062 A 
HETATM   14  C   UNL     1     -40.474  54.062 -52.152  1.00  0.00     0.073 C 
HETATM   15  H   UNL     1     -42.043  54.985 -57.578  1.00  0.00     0.170 HD
ENDROOT
BRANCH   1  16
HETATM   16  C   UNL     1     -41.788  57.033 -52.562  1.00  0.00    -0.040 A 
HETATM   17  C   UNL     1     -40.828  57.856 -53.183  1.00  0.00     0.009 A 
HETATM   18  C   UNL     1     -40.062  58.762 -52.447  1.00  0.00     0.007 A 
HETATM   19  C   UNL     1     -40.218  58.861 -51.063  1.00  0.00    -0.059 A 
HETATM   20  C   UNL     1     -41.154  58.036 -50.430  1.00  0.00     0.007 A 
HETATM   21  C   UNL     1     -41.928  57.134 -51.168  1.00  0.00     0.009 A 
BRANCH  19  22
HETATM   22  C   UNL     1     -39.407  59.855 -50.269  1.00  0.00     0.034 C 
HETATM   23  C   UNL     1     -37.926  59.505 -50.256  1.00  0.00     0.010 C 
ENDBRANCH  19  22
ENDBRANCH   1  16
TORSDOF 2
ENDMDL
MODEL 7
REMARK VINA RESULT:      -6.8      2.900      4.455
REMARK  2 active torsions:
REMARK  status: ('A' for Active; 'I' for Inactive)
REMARK    1  A    between atoms: C_2  and  C_3 
REMARK    2  A    between atoms: C_6  and  C_7 
ROOT
HETATM    1  C   UNL     1     -42.522  57.262 -56.335  1.00  0.00     0.119 C 
HETATM    2  S   UNL     1     -42.365  57.148 -58.130  1.00  0.00    -0.141 SA
HETATM    3  C   UNL     1     -43.866  56.208 -58.525  1.00  0.00     0.136 C 
HETATM    4  C   UNL     1     -43.611  55.383 -59.784  1.00  0.00     0.031 C 
HETATM    5  C   UNL     1     -45.006  57.174 -58.734  1.00  0.00     0.236 C 
HETATM    6  O   UNL     1     -45.647  57.294 -59.769  1.00  0.00    -0.272 OA
HETATM    7  N   UNL     1     -45.508  57.970 -57.662  1.00  0.00    -0.311 N 
HETATM    8  C   UNL     1     -45.040  58.080 -56.367  1.00  0.00     0.134 A 
HETATM    9  C   UNL     1     -43.823  57.761 -55.782  1.00  0.00     0.032 A 
HETATM   10  N   UNL     1     -45.804  58.638 -55.373  1.00  0.00    -0.262 N 
HETATM   11  H   UNL     1     -46.747  59.007 -55.439  1.00  0.00     0.191 HD
HETATM   12  N   UNL     1     -45.222  58.651 -54.177  1.00  0.00    -0.178 NA
HETATM   13  C   UNL     1     -44.007  58.149 -54.404  1.00  0.00     0.062 A 
HETATM   14  C   UNL     1     -43.043  58.060 -53.271  1.00  0.00     0.073 C 
HETATM   15  H   UNL     1     -46.349  58.475 -57.924  1.00  0.00     0.170 HD
ENDROOT
BRANCH   1  16
HETATM   16  C   UNL     1     -42.120  55.977 -55.623  1.00  0.00    -0.040 A 
HETATM   17  C   UNL     1     -40.826  55.905 -55.070  1.00  0.00     0.009 A 
HETATM   18  C   UNL     1     -40.392  54.769 -54.382  1.00  0.00     0.007 A 
HETATM   19  C   UNL     1     -41.232  53.663 -54.240  1.00  0.00    -0.059 A 
HETATM   20  C   UNL     1     -42.513  53.714 -54.801  1.00  0.00     0.007 A 
HETATM   21  C   UNL     1     -42.951  54.854 -55.483  1.00  0.00     0.009 A 
BRANCH  19  22
HETATM   22  C   UNL     1     -40.774  52.446 -53.477  1.00  0.00     0.034 C 
HETATM   23  C   UNL     1     -40.159  51.395 -54.391  1.00  0.00     0.010 C 
ENDBRANCH  19  22
ENDBRANCH   1  16
TORSDOF 2
ENDMDL
MODEL 8
REMARK VINA RESULT:      -6.5     16.260     18.357
REMARK  2 active torsions:
REMARK  status: ('A' for Active; 'I' for Inactive)
REMARK    1  A    between atoms: C_2  and  C_3 
REMARK    2  A    between atoms: C_6  and  C_7 
ROOT
HETATM    1  C   UNL     1     -35.730  39.079 -56.136  1.00  0.00     0.119 C 
HETATM    2  S   UNL     1     -34.257  38.039 -56.035  1.00  0.00    -0.141 SA
HETATM    3  C   UNL     1     -33.078  39.059 -56.963  1.00  0.00     0.136 C 
HETATM    4  C   UNL     1     -32.054  38.142 -57.627  1.00  0.00     0.031 C 
HETATM    5  C   UNL     1     -32.407  40.019 -56.011  1.00  0.00     0.236 C 
HETATM    6  O   UNL     1     -31.206  40.065 -55.788  1.00  0.00    -0.272 OA
HETATM    7  N   UNL     1     -33.145  41.052 -55.361  1.00  0.00    -0.311 N 
HETATM    8  C   UNL     1     -34.502  41.304 -55.390  1.00  0.00     0.134 A 
HETATM    9  C   UNL     1     -35.591  40.519 -55.741  1.00  0.00     0.032 A 
HETATM   10  N   UNL     1     -35.019  42.505 -54.974  1.00  0.00    -0.262 N 
HETATM   11  H   UNL     1     -34.518  43.316 -54.626  1.00  0.00     0.191 HD
HETATM   12  N   UNL     1     -36.341  42.601 -55.085  1.00  0.00    -0.178 NA
HETATM   13  C   UNL     1     -36.716  41.397 -55.522  1.00  0.00     0.062 A 
HETATM   14  C   UNL     1     -38.168  41.123 -55.717  1.00  0.00     0.073 C 
HETATM   15  H   UNL     1     -32.539  41.689 -54.852  1.00  0.00     0.170 HD
ENDROOT
BRANCH   1  16
HETATM   16  C   UNL     1     -36.432  38.981 -57.483  1.00  0.00    -0.040 A 
HETATM   17  C   UNL     1     -37.492  38.061 -57.612  1.00  0.00     0.009 A 
HETATM   18  C   UNL     1     -38.200  37.929 -58.808  1.00  0.00     0.007 A 
HETATM   19  C   UNL     1     -37.859  38.702 -59.921  1.00  0.00    -0.059 A 
HETATM   20  C   UNL     1     -36.797  39.606 -59.813  1.00  0.00     0.007 A 
HETATM   21  C   UNL     1     -36.092  39.743 -58.613  1.00  0.00     0.009 A 
BRANCH  19  22
HETATM   22  C   UNL     1     -38.638  38.578 -61.207  1.00  0.00     0.034 C 
HETATM   23  C   UNL     1     -40.008  37.951 -60.988  1.00  0.00     0.010 C 
ENDBRANCH  19  22
ENDBRANCH   1  16
TORSDOF 2
ENDMDL
MODEL 9
REMARK VINA RESULT:      -6.4      3.146      4.928
REMARK  2 active torsions:
REMARK  status: ('A' for Active; 'I' for Inactive)
REMARK    1  A    between atoms: C_2  and  C_3 
REMARK    2  A    between atoms: C_6  and  C_7 
ROOT
HETATM    1  C   UNL     1     -41.792  56.749 -54.262  1.00  0.00     0.119 C 
HETATM    2  S   UNL     1     -42.611  58.177 -53.520  1.00  0.00    -0.141 SA
HETATM    3  C   UNL     1     -44.183  57.423 -53.019  1.00  0.00     0.136 C 
HETATM    4  C   UNL     1     -45.273  58.491 -53.052  1.00  0.00     0.031 C 
HETATM    5  C   UNL     1     -44.030  56.850 -51.632  1.00  0.00     0.236 C 
HETATM    6  O   UNL     1     -44.681  57.189 -50.654  1.00  0.00    -0.272 OA
HETATM    7  N   UNL     1     -43.156  55.752 -51.377  1.00  0.00    -0.311 N 
HETATM    8  C   UNL     1     -42.287  55.113 -52.239  1.00  0.00     0.134 A 
HETATM    9  C   UNL     1     -41.734  55.486 -53.456  1.00  0.00     0.032 A 
HETATM   10  N   UNL     1     -41.748  53.887 -51.938  1.00  0.00    -0.262 N 
HETATM   11  H   UNL     1     -41.908  53.318 -51.114  1.00  0.00     0.191 HD
HETATM   12  N   UNL     1     -40.947  53.394 -52.879  1.00  0.00    -0.178 NA
HETATM   13  C   UNL     1     -40.900  54.359 -53.800  1.00  0.00     0.062 A 
HETATM   14  C   UNL     1     -40.038  54.165 -55.000  1.00  0.00     0.073 C 
HETATM   15  H   UNL     1     -43.252  55.401 -50.428  1.00  0.00     0.170 HD
ENDROOT
BRANCH   1  16
HETATM   16  C   UNL     1     -42.296  56.441 -55.666  1.00  0.00    -0.040 A 
HETATM   17  C   UNL     1     -42.179  57.446 -56.646  1.00  0.00     0.009 A 
HETATM   18  C   UNL     1     -42.597  57.230 -57.962  1.00  0.00     0.007 A 
HETATM   19  C   UNL     1     -43.163  56.009 -58.334  1.00  0.00    -0.059 A 
HETATM   20  C   UNL     1     -43.303  55.009 -57.365  1.00  0.00     0.007 A 
HETATM   21  C   UNL     1     -42.877  55.221 -56.050  1.00  0.00     0.009 A 
BRANCH  19  22
HETATM   22  C   UNL     1     -43.593  55.767 -59.759  1.00  0.00     0.034 C 
HETATM   23  C   UNL     1     -44.479  54.535 -59.887  1.00  0.00     0.010 C 
ENDBRANCH  19  22
ENDBRANCH   1  16
TORSDOF 2
ENDMDL
MODEL 10
REMARK VINA RESULT:      -6.4      5.095      6.671
REMARK  2 active torsions:
REMARK  status: ('A' for Active; 'I' for Inactive)
REMARK    1  A    between atoms: C_2  and  C_3 
REMARK    2  A    between atoms: C_6  and  C_7 
ROOT
HETATM    1  C   UNL     1     -39.574  53.201 -52.002  1.00  0.00     0.119 C 
HETATM    2  S   UNL     1     -39.472  54.466 -50.718  1.00  0.00    -0.141 SA
HETATM    3  C   UNL     1     -41.020  54.147 -49.828  1.00  0.00     0.136 C 
HETATM    4  C   UNL     1     -41.511  55.455 -49.213  1.00  0.00     0.031 C 
HETATM    5  C   UNL     1     -40.765  53.110 -48.761  1.00  0.00     0.236 C 
HETATM    6  O   UNL     1     -40.922  53.282 -47.560  1.00  0.00    -0.272 OA
HETATM    7  N   UNL     1     -40.413  51.770 -49.100  1.00  0.00    -0.311 N 
HETATM    8  C   UNL     1     -40.165  51.224 -50.344  1.00  0.00     0.134 A 
HETATM    9  C   UNL     1     -39.852  51.793 -51.570  1.00  0.00     0.032 A 
HETATM   10  N   UNL     1     -40.146  49.865 -50.540  1.00  0.00    -0.262 N 
HETATM   11  H   UNL     1     -40.310  49.131 -49.859  1.00  0.00     0.191 HD
HETATM   12  N   UNL     1     -39.915  49.497 -51.798  1.00  0.00    -0.178 NA
HETATM   13  C   UNL     1     -39.705  50.648 -52.438  1.00  0.00     0.062 A 
HETATM   14  C   UNL     1     -39.362  50.613 -53.888  1.00  0.00     0.073 C 
HETATM   15  H   UNL     1     -40.395  51.163 -48.285  1.00  0.00     0.170 HD
ENDROOT
BRANCH   1  16
HETATM   16  C   UNL     1     -40.514  53.585 -53.138  1.00  0.00    -0.040 A 
HETATM   17  C   UNL     1     -41.900  53.563 -52.885  1.00  0.00     0.009 A 
HETATM   18  C   UNL     1     -42.824  53.924 -53.868  1.00  0.00     0.007 A 
HETATM   19  C   UNL     1     -42.392  54.302 -55.141  1.00  0.00    -0.059 A 
HETATM   20  C   UNL     1     -41.019  54.310 -55.412  1.00  0.00     0.007 A 
HETATM   21  C   UNL     1     -40.093  53.956 -54.425  1.00  0.00     0.009 A 
BRANCH  19  22
HETATM   22  C   UNL     1     -43.387  54.714 -56.197  1.00  0.00     0.034 C 
HETATM   23  C   UNL     1     -42.790  55.698 -57.193  1.00  0.00     0.010 C 
ENDBRANCH  19  22
ENDBRANCH   1  16
TORSDOF 2
ENDMDL
