MODEL 1
REMARK VINA RESULT:      -9.1      0.000      0.000
REMARK  7 active torsions:
REMARK  status: ('A' for Active; 'I' for Inactive)
REMARK    1  A    between atoms: C_2  and  O_3 
REMARK    2  A    between atoms: O_3  and  C_4 
REMARK    3  A    between atoms: C_4  and  C_5 
REMARK    4  A    between atoms: C_8  and  N_9 
REMARK       I    between atoms: N_9  and  C_10 
REMARK    5  A    between atoms: C_10  and  C_11 
REMARK    6  A    between atoms: C_11  and  N_12 
REMARK    7  A    between atoms: C_18  and  C_19 
ROOT
HETATM    1  N   UNL     1     -42.084  60.162 -51.276  1.00  0.00    -0.063 N 
HETATM    2  H   UNL     1     -41.649  61.010 -51.688  1.00  0.00     0.280 HD
HETATM    3  C   UNL     1     -40.984  59.534 -50.441  1.00  0.00     0.240 C 
HETATM    4  C   UNL     1     -40.489  58.240 -51.059  1.00  0.00     0.083 C 
HETATM    5  C   UNL     1     -41.640  57.258 -51.309  1.00  0.00     0.131 A 
HETATM    6  N   UNL     1     -41.131  56.229 -52.251  1.00  0.00    -0.251 NA
HETATM    7  C   UNL     1     -41.199  55.078 -51.633  1.00  0.00     0.132 A 
HETATM    8  C   UNL     1     -41.798  55.218 -50.253  1.00  0.00     0.272 A 
HETATM    9  O   UNL     1     -42.080  54.350 -49.464  1.00  0.00    -0.266 OA
HETATM   10  N   UNL     1     -41.995  56.557 -50.113  1.00  0.00    -0.327 N 
HETATM   11  C   UNL     1     -42.877  57.918 -51.941  1.00  0.00     0.083 C 
HETATM   12  C   UNL     1     -42.570  59.322 -52.426  1.00  0.00     0.240 C 
HETATM   13  H   UNL     1     -42.476  56.905 -49.293  1.00  0.00     0.165 HD
ENDROOT
BRANCH   1  14
HETATM   14  C   UNL     1     -43.216  60.755 -50.404  1.00  0.00     0.337 C 
BRANCH  14  15
HETATM   15  C   UNL     1     -43.713  62.069 -50.999  1.00  0.00     0.248 C 
HETATM   16  N   UNL     1     -44.251  63.063 -50.246  1.00  0.00    -0.326 N 
HETATM   17  H   UNL     1     -44.406  63.904 -50.800  1.00  0.00     0.169 HD
HETATM   18  O   UNL     1     -43.557  62.247 -52.214  1.00  0.00    -0.271 OA
BRANCH  16  19
HETATM   19  C   UNL     1     -44.610  63.164 -48.889  1.00  0.00     0.034 A 
HETATM   20  C   UNL     1     -45.173  62.143 -48.124  1.00  0.00     0.030 A 
HETATM   21  C   UNL     1     -45.480  62.358 -46.771  1.00  0.00     0.020 A 
HETATM   22  C   UNL     1     -45.245  63.598 -46.166  1.00  0.00     0.039 A 
HETATM   23  C   UNL     1     -44.709  64.631 -46.938  1.00  0.00     0.020 A 
HETATM   24  C   UNL     1     -44.403  64.414 -48.286  1.00  0.00     0.030 A 
BRANCH  22  25
HETATM   25  C   UNL     1     -45.590  63.759 -44.728  1.00  0.00     0.293 C 
HETATM   26  O   UNL     1     -46.651  64.231 -44.352  1.00  0.00    -0.259 OA
BRANCH  25  27
HETATM   27  O   UNL     1     -44.584  63.307 -43.943  1.00  0.00    -0.318 OA
BRANCH  27  28
HETATM   28  C   UNL     1     -43.925  64.296 -43.135  1.00  0.00     0.174 C 
HETATM   29  C   UNL     1     -42.773  63.663 -42.378  1.00  0.00     0.034 C 
ENDBRANCH  27  28
ENDBRANCH  25  27
ENDBRANCH  22  25
ENDBRANCH  16  19
ENDBRANCH  14  15
ENDBRANCH   1  14
BRANCH   7  30
HETATM   30  C   UNL     1     -40.741  53.801 -52.218  1.00  0.00    -0.002 A 
HETATM   31  C   UNL     1     -39.916  52.911 -51.519  1.00  0.00     0.016 A 
HETATM   32  C   UNL     1     -39.490  51.722 -52.121  1.00  0.00     0.024 A 
HETATM   33  C   UNL     1     -39.884  51.419 -53.421  1.00  0.00     0.034 A 
HETATM   34 CL   UNL     1     -39.354  49.960 -54.158  1.00  0.00    -0.084 Cl
HETATM   35  C   UNL     1     -40.701  52.296 -54.129  1.00  0.00     0.024 A 
HETATM   36  C   UNL     1     -41.127  53.487 -53.530  1.00  0.00     0.016 A 
ENDBRANCH   7  30
TORSDOF 7
ENDMDL
MODEL 2
REMARK VINA RESULT:      -9.0      1.893      2.258
REMARK  7 active torsions:
REMARK  status: ('A' for Active; 'I' for Inactive)
REMARK    1  A    between atoms: C_2  and  O_3 
REMARK    2  A    between atoms: O_3  and  C_4 
REMARK    3  A    between atoms: C_4  and  C_5 
REMARK    4  A    between atoms: C_8  and  N_9 
REMARK       I    between atoms: N_9  and  C_10 
REMARK    5  A    between atoms: C_10  and  C_11 
REMARK    6  A    between atoms: C_11  and  N_12 
REMARK    7  A    between atoms: C_18  and  C_19 
ROOT
HETATM    1  N   UNL     1     -42.375  60.060 -52.657  1.00  0.00    -0.063 N 
HETATM    2  H   UNL     1     -41.852  60.875 -53.030  1.00  0.00     0.280 HD
HETATM    3  C   UNL     1     -41.498  59.518 -51.544  1.00  0.00     0.240 C 
HETATM    4  C   UNL     1     -40.886  58.183 -51.921  1.00  0.00     0.083 C 
HETATM    5  C   UNL     1     -41.958  57.169 -52.341  1.00  0.00     0.131 A 
HETATM    6  N   UNL     1     -41.256  56.070 -53.051  1.00  0.00    -0.251 NA
HETATM    7  C   UNL     1     -41.471  54.975 -52.368  1.00  0.00     0.132 A 
HETATM    8  C   UNL     1     -42.366  55.225 -51.177  1.00  0.00     0.272 A 
HETATM    9  O   UNL     1     -42.826  54.424 -50.401  1.00  0.00    -0.266 OA
HETATM   10  N   UNL     1     -42.579  56.568 -51.200  1.00  0.00    -0.327 N 
HETATM   11  C   UNL     1     -43.013  57.759 -53.290  1.00  0.00     0.083 C 
HETATM   12  C   UNL     1     -42.595  59.120 -53.811  1.00  0.00     0.240 C 
HETATM   13  H   UNL     1     -43.231  56.979 -50.544  1.00  0.00     0.165 HD
ENDROOT
BRANCH   1  14
HETATM   14  C   UNL     1     -43.671  60.711 -52.117  1.00  0.00     0.337 C 
BRANCH  14  15
HETATM   15  C   UNL     1     -43.598  62.229 -52.251  1.00  0.00     0.248 C 
HETATM   16  N   UNL     1     -44.114  63.077 -51.324  1.00  0.00    -0.326 N 
HETATM   17  H   UNL     1     -43.860  64.043 -51.524  1.00  0.00     0.169 HD
HETATM   18  O   UNL     1     -42.986  62.694 -53.221  1.00  0.00    -0.271 OA
BRANCH  16  19
HETATM   19  C   UNL     1     -44.894  62.889 -50.168  1.00  0.00     0.034 A 
HETATM   20  C   UNL     1     -46.288  62.905 -50.121  1.00  0.00     0.030 A 
HETATM   21  C   UNL     1     -46.960  62.694 -48.907  1.00  0.00     0.020 A 
HETATM   22  C   UNL     1     -46.251  62.478 -47.719  1.00  0.00     0.039 A 
HETATM   23  C   UNL     1     -44.855  62.491 -47.757  1.00  0.00     0.020 A 
HETATM   24  C   UNL     1     -44.188  62.701 -48.970  1.00  0.00     0.030 A 
BRANCH  22  25
HETATM   25  C   UNL     1     -47.023  62.256 -46.467  1.00  0.00     0.293 C 
HETATM   26  O   UNL     1     -47.252  63.147 -45.666  1.00  0.00    -0.259 OA
BRANCH  25  27
HETATM   27  O   UNL     1     -47.419  60.965 -46.374  1.00  0.00    -0.318 OA
BRANCH  27  28
HETATM   28  C   UNL     1     -46.390  60.014 -46.053  1.00  0.00     0.174 C 
HETATM   29  C   UNL     1     -47.011  58.674 -45.705  1.00  0.00     0.034 C 
ENDBRANCH  27  28
ENDBRANCH  25  27
ENDBRANCH  22  25
ENDBRANCH  16  19
ENDBRANCH  14  15
ENDBRANCH   1  14
BRANCH   7  30
HETATM   30  C   UNL     1     -40.902  53.659 -52.724  1.00  0.00    -0.002 A 
HETATM   31  C   UNL     1     -40.085  52.936 -51.845  1.00  0.00     0.016 A 
HETATM   32  C   UNL     1     -39.552  51.701 -52.232  1.00  0.00     0.024 A 
HETATM   33  C   UNL     1     -39.829  51.187 -53.496  1.00  0.00     0.034 A 
HETATM   34 CL   UNL     1     -39.166  49.674 -53.968  1.00  0.00    -0.084 Cl
HETATM   35  C   UNL     1     -40.636  51.898 -54.380  1.00  0.00     0.024 A 
HETATM   36  C   UNL     1     -41.169  53.132 -53.997  1.00  0.00     0.016 A 
ENDBRANCH   7  30
TORSDOF 7
ENDMDL
MODEL 3
REMARK VINA RESULT:      -8.7      6.208     10.617
REMARK  7 active torsions:
REMARK  status: ('A' for Active; 'I' for Inactive)
REMARK    1  A    between atoms: C_2  and  O_3 
REMARK    2  A    between atoms: O_3  and  C_4 
REMARK    3  A    between atoms: C_4  and  C_5 
REMARK    4  A    between atoms: C_8  and  N_9 
REMARK       I    between atoms: N_9  and  C_10 
REMARK    5  A    between atoms: C_10  and  C_11 
REMARK    6  A    between atoms: C_11  and  N_12 
REMARK    7  A    between atoms: C_18  and  C_19 
ROOT
HETATM    1  N   UNL     1     -42.652  58.497 -53.891  1.00  0.00    -0.063 N 
HETATM    2  H   UNL     1     -42.698  59.289 -53.222  1.00  0.00     0.280 HD
HETATM    3  C   UNL     1     -42.106  59.106 -55.168  1.00  0.00     0.240 C 
HETATM    4  C   UNL     1     -43.166  59.168 -56.251  1.00  0.00     0.083 C 
HETATM    5  C   UNL     1     -43.794  57.791 -56.504  1.00  0.00     0.131 A 
HETATM    6  N   UNL     1     -45.051  58.024 -57.259  1.00  0.00    -0.251 NA
HETATM    7  C   UNL     1     -44.925  57.412 -58.409  1.00  0.00     0.132 A 
HETATM    8  C   UNL     1     -43.607  56.680 -58.512  1.00  0.00     0.272 A 
HETATM    9  O   UNL     1     -43.218  55.953 -59.392  1.00  0.00    -0.266 OA
HETATM   10  N   UNL     1     -42.966  56.991 -57.354  1.00  0.00    -0.327 N 
HETATM   11  C   UNL     1     -44.142  57.035 -55.212  1.00  0.00     0.083 C 
HETATM   12  C   UNL     1     -44.044  57.936 -53.997  1.00  0.00     0.240 C 
HETATM   13  H   UNL     1     -42.083  56.544 -57.140  1.00  0.00     0.165 HD
ENDROOT
BRANCH   1  14
HETATM   14  C   UNL     1     -41.637  57.545 -53.215  1.00  0.00     0.337 C 
BRANCH  14  15
HETATM   15  C   UNL     1     -41.647  57.743 -51.702  1.00  0.00     0.248 C 
HETATM   16  N   UNL     1     -41.291  56.767 -50.828  1.00  0.00    -0.326 N 
HETATM   17  H   UNL     1     -41.241  57.124 -49.875  1.00  0.00     0.169 HD
HETATM   18  O   UNL     1     -41.935  58.867 -51.271  1.00  0.00    -0.271 OA
BRANCH  16  19
HETATM   19  C   UNL     1     -40.973  55.404 -50.976  1.00  0.00     0.034 A 
HETATM   20  C   UNL     1     -41.063  54.676 -52.162  1.00  0.00     0.030 A 
HETATM   21  C   UNL     1     -40.706  53.319 -52.190  1.00  0.00     0.020 A 
HETATM   22  C   UNL     1     -40.269  52.664 -51.032  1.00  0.00     0.039 A 
HETATM   23  C   UNL     1     -40.205  53.383 -49.837  1.00  0.00     0.020 A 
HETATM   24  C   UNL     1     -40.561  54.737 -49.812  1.00  0.00     0.030 A 
BRANCH  22  25
HETATM   25  C   UNL     1     -39.902  51.226 -51.131  1.00  0.00     0.293 C 
HETATM   26  O   UNL     1     -40.162  50.416 -50.256  1.00  0.00    -0.259 OA
BRANCH  25  27
HETATM   27  O   UNL     1     -39.271  50.974 -52.302  1.00  0.00    -0.318 OA
BRANCH  27  28
HETATM   28  C   UNL     1     -39.666  49.770 -52.982  1.00  0.00     0.174 C 
HETATM   29  C   UNL     1     -40.047  50.085 -54.416  1.00  0.00     0.034 C 
ENDBRANCH  27  28
ENDBRANCH  25  27
ENDBRANCH  22  25
ENDBRANCH  16  19
ENDBRANCH  14  15
ENDBRANCH   1  14
BRANCH   7  30
HETATM   30  C   UNL     1     -45.950  57.441 -59.473  1.00  0.00    -0.002 A 
HETATM   31  C   UNL     1     -46.482  56.271 -60.030  1.00  0.00     0.016 A 
HETATM   32  C   UNL     1     -47.437  56.346 -61.050  1.00  0.00     0.024 A 
HETATM   33  C   UNL     1     -47.862  57.586 -61.518  1.00  0.00     0.034 A 
HETATM   34 CL   UNL     1     -49.030  57.673 -62.774  1.00  0.00    -0.084 Cl
HETATM   35  C   UNL     1     -47.338  58.757 -60.975  1.00  0.00     0.024 A 
HETATM   36  C   UNL     1     -46.382  58.685 -59.957  1.00  0.00     0.016 A 
ENDBRANCH   7  30
TORSDOF 7
ENDMDL
MODEL 4
REMARK VINA RESULT:      -8.7      5.888     10.212
REMARK  7 active torsions:
REMARK  status: ('A' for Active; 'I' for Inactive)
REMARK    1  A    between atoms: C_2  and  O_3 
REMARK    2  A    between atoms: O_3  and  C_4 
REMARK    3  A    between atoms: C_4  and  C_5 
REMARK    4  A    between atoms: C_8  and  N_9 
REMARK       I    between atoms: N_9  and  C_10 
REMARK    5  A    between atoms: C_10  and  C_11 
REMARK    6  A    between atoms: C_11  and  N_12 
REMARK    7  A    between atoms: C_18  and  C_19 
ROOT
HETATM    1  N   UNL     1     -43.776  59.154 -53.080  1.00  0.00    -0.063 N 
HETATM    2  H   UNL     1     -43.696  59.563 -52.129  1.00  0.00     0.280 HD
HETATM    3  C   UNL     1     -42.363  58.734 -53.437  1.00  0.00     0.240 C 
HETATM    4  C   UNL     1     -41.782  59.616 -54.525  1.00  0.00     0.083 C 
HETATM    5  C   UNL     1     -42.689  59.658 -55.762  1.00  0.00     0.131 A 
HETATM    6  N   UNL     1     -42.253  60.821 -56.576  1.00  0.00    -0.251 NA
HETATM    7  C   UNL     1     -41.860  60.352 -57.733  1.00  0.00     0.132 A 
HETATM    8  C   UNL     1     -42.040  58.854 -57.819  1.00  0.00     0.272 A 
HETATM    9  O   UNL     1     -41.862  58.129 -58.767  1.00  0.00    -0.266 OA
HETATM   10  N   UNL     1     -42.497  58.505 -56.587  1.00  0.00    -0.327 N 
HETATM   11  C   UNL     1     -44.176  59.842 -55.419  1.00  0.00     0.083 C 
HETATM   12  C   UNL     1     -44.368  60.219 -53.962  1.00  0.00     0.240 C 
HETATM   13  H   UNL     1     -42.782  57.549 -56.416  1.00  0.00     0.165 HD
ENDROOT
BRANCH   1  14
HETATM   14  C   UNL     1     -44.706  57.939 -52.845  1.00  0.00     0.337 C 
BRANCH  14  15
HETATM   15  C   UNL     1     -44.966  57.749 -51.354  1.00  0.00     0.248 C 
HETATM   16  N   UNL     1     -44.202  56.947 -50.568  1.00  0.00    -0.326 N 
HETATM   17  H   UNL     1     -44.451  57.047 -49.585  1.00  0.00     0.169 HD
HETATM   18  O   UNL     1     -45.879  58.408 -50.839  1.00  0.00    -0.271 OA
BRANCH  16  19
HETATM   19  C   UNL     1     -43.155  56.045 -50.833  1.00  0.00     0.034 A 
HETATM   20  C   UNL     1     -41.804  56.274 -50.573  1.00  0.00     0.030 A 
HETATM   21  C   UNL     1     -40.848  55.291 -50.872  1.00  0.00     0.020 A 
HETATM   22  C   UNL     1     -41.223  54.072 -51.450  1.00  0.00     0.039 A 
HETATM   23  C   UNL     1     -42.571  53.852 -51.740  1.00  0.00     0.020 A 
HETATM   24  C   UNL     1     -43.523  54.834 -51.439  1.00  0.00     0.030 A 
BRANCH  22  25
HETATM   25  C   UNL     1     -40.161  53.071 -51.739  1.00  0.00     0.293 C 
HETATM   26  O   UNL     1     -39.216  52.876 -50.992  1.00  0.00    -0.259 OA
BRANCH  25  27
HETATM   27  O   UNL     1     -40.411  52.436 -52.908  1.00  0.00    -0.318 OA
BRANCH  27  28
HETATM   28  C   UNL     1     -39.615  51.268 -53.171  1.00  0.00     0.174 C 
HETATM   29  C   UNL     1     -40.169  50.520 -54.368  1.00  0.00     0.034 C 
ENDBRANCH  27  28
ENDBRANCH  25  27
ENDBRANCH  22  25
ENDBRANCH  16  19
ENDBRANCH  14  15
ENDBRANCH   1  14
BRANCH   7  30
HETATM   30  C   UNL     1     -41.308  61.190 -58.816  1.00  0.00    -0.002 A 
HETATM   31  C   UNL     1     -41.760  61.097 -60.138  1.00  0.00     0.016 A 
HETATM   32  C   UNL     1     -41.194  61.898 -61.136  1.00  0.00     0.024 A 
HETATM   33  C   UNL     1     -40.175  62.792 -60.819  1.00  0.00     0.034 A 
HETATM   34 CL   UNL     1     -39.479  63.769 -62.049  1.00  0.00    -0.084 Cl
HETATM   35  C   UNL     1     -39.714  62.892 -59.508  1.00  0.00     0.024 A 
HETATM   36  C   UNL     1     -40.277  62.091 -58.509  1.00  0.00     0.016 A 
ENDBRANCH   7  30
TORSDOF 7
ENDMDL
MODEL 5
REMARK VINA RESULT:      -8.7      4.948      8.369
REMARK  7 active torsions:
REMARK  status: ('A' for Active; 'I' for Inactive)
REMARK    1  A    between atoms: C_2  and  O_3 
REMARK    2  A    between atoms: O_3  and  C_4 
REMARK    3  A    between atoms: C_4  and  C_5 
REMARK    4  A    between atoms: C_8  and  N_9 
REMARK       I    between atoms: N_9  and  C_10 
REMARK    5  A    between atoms: C_10  and  C_11 
REMARK    6  A    between atoms: C_11  and  N_12 
REMARK    7  A    between atoms: C_18  and  C_19 
ROOT
HETATM    1  N   UNL     1     -42.757  60.061 -52.524  1.00  0.00    -0.063 N 
HETATM    2  H   UNL     1     -42.373  60.773 -51.873  1.00  0.00     0.280 HD
HETATM    3  C   UNL     1     -43.437  59.047 -51.625  1.00  0.00     0.240 C 
HETATM    4  C   UNL     1     -42.680  57.733 -51.598  1.00  0.00     0.083 C 
HETATM    5  C   UNL     1     -42.461  57.180 -53.013  1.00  0.00     0.131 A 
HETATM    6  N   UNL     1     -41.401  56.145 -52.911  1.00  0.00    -0.251 NA
HETATM    7  C   UNL     1     -41.933  55.013 -53.296  1.00  0.00     0.132 A 
HETATM    8  C   UNL     1     -43.369  55.190 -53.732  1.00  0.00     0.272 A 
HETATM    9  O   UNL     1     -44.112  54.374 -54.220  1.00  0.00    -0.266 OA
HETATM   10  N   UNL     1     -43.628  56.503 -53.491  1.00  0.00    -0.327 N 
HETATM   11  C   UNL     1     -41.998  58.246 -54.018  1.00  0.00     0.083 C 
HETATM   12  C   UNL     1     -41.596  59.531 -53.320  1.00  0.00     0.240 C 
HETATM   13  H   UNL     1     -44.513  56.897 -53.787  1.00  0.00     0.165 HD
ENDROOT
BRANCH   1  14
HETATM   14  C   UNL     1     -43.772  60.880 -53.356  1.00  0.00     0.337 C 
BRANCH  14  15
HETATM   15  C   UNL     1     -43.071  62.037 -54.062  1.00  0.00     0.248 C 
HETATM   16  N   UNL     1     -42.849  62.057 -55.402  1.00  0.00    -0.326 N 
HETATM   17  H   UNL     1     -42.485  62.960 -55.703  1.00  0.00     0.169 HD
HETATM   18  O   UNL     1     -42.753  63.020 -53.381  1.00  0.00    -0.271 OA
BRANCH  16  19
HETATM   19  C   UNL     1     -43.030  61.111 -56.427  1.00  0.00     0.034 A 
HETATM   20  C   UNL     1     -44.261  60.676 -56.918  1.00  0.00     0.030 A 
HETATM   21  C   UNL     1     -44.317  59.733 -57.956  1.00  0.00     0.020 A 
HETATM   22  C   UNL     1     -43.147  59.198 -58.508  1.00  0.00     0.039 A 
HETATM   23  C   UNL     1     -41.914  59.609 -57.999  1.00  0.00     0.020 A 
HETATM   24  C   UNL     1     -41.861  60.551 -56.964  1.00  0.00     0.030 A 
BRANCH  22  25
HETATM   25  C   UNL     1     -43.276  58.204 -59.608  1.00  0.00     0.293 C 
HETATM   26  O   UNL     1     -43.925  58.417 -60.619  1.00  0.00    -0.259 OA
BRANCH  25  27
HETATM   27  O   UNL     1     -42.576  57.081 -59.320  1.00  0.00    -0.318 OA
BRANCH  27  28
HETATM   28  C   UNL     1     -43.338  55.987 -58.783  1.00  0.00     0.174 C 
HETATM   29  C   UNL     1     -42.936  55.731 -57.343  1.00  0.00     0.034 C 
ENDBRANCH  27  28
ENDBRANCH  25  27
ENDBRANCH  22  25
ENDBRANCH  16  19
ENDBRANCH  14  15
ENDBRANCH   1  14
BRANCH   7  30
HETATM   30  C   UNL     1     -41.212  53.724 -53.297  1.00  0.00    -0.002 A 
HETATM   31  C   UNL     1     -41.155  52.902 -54.430  1.00  0.00     0.016 A 
HETATM   32  C   UNL     1     -40.476  51.679 -54.380  1.00  0.00     0.024 A 
HETATM   33  C   UNL     1     -39.856  51.272 -53.202  1.00  0.00     0.034 A 
HETATM   34 CL   UNL     1     -39.030  49.768 -53.144  1.00  0.00    -0.084 Cl
HETATM   35  C   UNL     1     -39.909  52.079 -52.068  1.00  0.00     0.024 A 
HETATM   36  C   UNL     1     -40.588  53.301 -52.114  1.00  0.00     0.016 A 
ENDBRANCH   7  30
TORSDOF 7
ENDMDL
MODEL 6
REMARK VINA RESULT:      -8.7      4.570      7.680
REMARK  7 active torsions:
REMARK  status: ('A' for Active; 'I' for Inactive)
REMARK    1  A    between atoms: C_2  and  O_3 
REMARK    2  A    between atoms: O_3  and  C_4 
REMARK    3  A    between atoms: C_4  and  C_5 
REMARK    4  A    between atoms: C_8  and  N_9 
REMARK       I    between atoms: N_9  and  C_10 
REMARK    5  A    between atoms: C_10  and  C_11 
REMARK    6  A    between atoms: C_11  and  N_12 
REMARK    7  A    between atoms: C_18  and  C_19 
ROOT
HETATM    1  N   UNL     1     -42.013  59.925 -52.233  1.00  0.00    -0.063 N 
HETATM    2  H   UNL     1     -41.348  60.712 -52.105  1.00  0.00     0.280 HD
HETATM    3  C   UNL     1     -41.880  59.102 -50.966  1.00  0.00     0.240 C 
HETATM    4  C   UNL     1     -41.200  57.774 -51.237  1.00  0.00     0.083 C 
HETATM    5  C   UNL     1     -41.913  56.992 -52.348  1.00  0.00     0.131 A 
HETATM    6  N   UNL     1     -40.973  55.935 -52.803  1.00  0.00    -0.251 NA
HETATM    7  C   UNL     1     -41.551  54.784 -52.570  1.00  0.00     0.132 A 
HETATM    8  C   UNL     1     -42.935  54.960 -51.991  1.00  0.00     0.272 A 
HETATM    9  O   UNL     1     -43.761  54.114 -51.748  1.00  0.00    -0.266 OA
HETATM   10  N   UNL     1     -43.063  56.305 -51.844  1.00  0.00    -0.327 N 
HETATM   11  C   UNL     1     -42.284  57.860 -53.561  1.00  0.00     0.083 C 
HETATM   12  C   UNL     1     -41.612  59.218 -53.499  1.00  0.00     0.240 C 
HETATM   13  H   UNL     1     -43.952  56.690 -51.550  1.00  0.00     0.165 HD
ENDROOT
BRANCH   1  14
HETATM   14  C   UNL     1     -43.378  60.650 -52.319  1.00  0.00     0.337 C 
BRANCH  14  15
HETATM   15  C   UNL     1     -43.279  61.861 -53.242  1.00  0.00     0.248 C 
HETATM   16  N   UNL     1     -43.528  61.795 -54.576  1.00  0.00    -0.326 N 
HETATM   17  H   UNL     1     -43.534  62.722 -54.997  1.00  0.00     0.169 HD
HETATM   18  O   UNL     1     -43.020  62.957 -52.728  1.00  0.00    -0.271 OA
BRANCH  16  19
HETATM   19  C   UNL     1     -43.787  60.732 -55.460  1.00  0.00     0.034 A 
HETATM   20  C   UNL     1     -44.897  59.890 -55.410  1.00  0.00     0.030 A 
HETATM   21  C   UNL     1     -45.054  58.866 -56.357  1.00  0.00     0.020 A 
HETATM   22  C   UNL     1     -44.098  58.657 -57.358  1.00  0.00     0.039 A 
HETATM   23  C   UNL     1     -42.970  59.479 -57.393  1.00  0.00     0.020 A 
HETATM   24  C   UNL     1     -42.817  60.501 -56.448  1.00  0.00     0.030 A 
BRANCH  22  25
HETATM   25  C   UNL     1     -44.326  57.556 -58.333  1.00  0.00     0.293 C 
HETATM   26  O   UNL     1     -45.378  57.411 -58.932  1.00  0.00    -0.259 OA
BRANCH  25  27
HETATM   27  O   UNL     1     -43.219  56.785 -58.448  1.00  0.00    -0.318 OA
BRANCH  27  28
HETATM   28  C   UNL     1     -43.281  55.498 -57.810  1.00  0.00     0.174 C 
HETATM   29  C   UNL     1     -42.536  55.537 -56.490  1.00  0.00     0.034 C 
ENDBRANCH  27  28
ENDBRANCH  25  27
ENDBRANCH  22  25
ENDBRANCH  16  19
ENDBRANCH  14  15
ENDBRANCH   1  14
BRANCH   7  30
HETATM   30  C   UNL     1     -40.919  53.478 -52.843  1.00  0.00    -0.002 A 
HETATM   31  C   UNL     1     -40.080  52.845 -51.915  1.00  0.00     0.016 A 
HETATM   32  C   UNL     1     -39.487  51.616 -52.224  1.00  0.00     0.024 A 
HETATM   33  C   UNL     1     -39.726  51.016 -53.457  1.00  0.00     0.034 A 
HETATM   34 CL   UNL     1     -38.990  49.510 -53.833  1.00  0.00    -0.084 Cl
HETATM   35  C   UNL     1     -40.555  51.636 -54.389  1.00  0.00     0.024 A 
HETATM   36  C   UNL     1     -41.148  52.865 -54.084  1.00  0.00     0.016 A 
ENDBRANCH   7  30
TORSDOF 7
ENDMDL
MODEL 7
REMARK VINA RESULT:      -8.6      4.556      8.185
REMARK  7 active torsions:
REMARK  status: ('A' for Active; 'I' for Inactive)
REMARK    1  A    between atoms: C_2  and  O_3 
REMARK    2  A    between atoms: O_3  and  C_4 
REMARK    3  A    between atoms: C_4  and  C_5 
REMARK    4  A    between atoms: C_8  and  N_9 
REMARK       I    between atoms: N_9  and  C_10 
REMARK    5  A    between atoms: C_10  and  C_11 
REMARK    6  A    between atoms: C_11  and  N_12 
REMARK    7  A    between atoms: C_18  and  C_19 
ROOT
HETATM    1  N   UNL     1     -43.687  59.071 -51.008  1.00  0.00    -0.063 N 
HETATM    2  H   UNL     1     -43.929  59.386 -50.048  1.00  0.00     0.280 HD
HETATM    3  C   UNL     1     -44.637  57.922 -51.285  1.00  0.00     0.240 C 
HETATM    4  C   UNL     1     -43.905  56.594 -51.319  1.00  0.00     0.083 C 
HETATM    5  C   UNL     1     -42.740  56.618 -52.316  1.00  0.00     0.131 A 
HETATM    6  N   UNL     1     -41.871  55.458 -51.992  1.00  0.00    -0.251 NA
HETATM    7  C   UNL     1     -41.855  54.685 -53.048  1.00  0.00     0.132 A 
HETATM    8  C   UNL     1     -42.661  55.272 -54.183  1.00  0.00     0.272 A 
HETATM    9  O   UNL     1     -42.779  54.864 -55.312  1.00  0.00    -0.266 OA
HETATM   10  N   UNL     1     -43.197  56.405 -53.655  1.00  0.00    -0.327 N 
HETATM   11  C   UNL     1     -41.889  57.895 -52.227  1.00  0.00     0.083 C 
HETATM   12  C   UNL     1     -42.228  58.703 -50.990  1.00  0.00     0.240 C 
HETATM   13  H   UNL     1     -43.717  57.034 -54.254  1.00  0.00     0.165 HD
ENDROOT
BRANCH   1  14
HETATM   14  C   UNL     1     -44.014  60.319 -51.862  1.00  0.00     0.337 C 
BRANCH  14  15
HETATM   15  C   UNL     1     -45.416  60.207 -52.454  1.00  0.00     0.248 C 
HETATM   16  N   UNL     1     -45.657  59.686 -53.685  1.00  0.00    -0.326 N 
HETATM   17  H   UNL     1     -46.657  59.580 -53.852  1.00  0.00     0.169 HD
HETATM   18  O   UNL     1     -46.369  60.553 -51.745  1.00  0.00    -0.271 OA
BRANCH  16  19
HETATM   19  C   UNL     1     -44.825  59.263 -54.737  1.00  0.00     0.034 A 
HETATM   20  C   UNL     1     -43.537  59.735 -54.990  1.00  0.00     0.030 A 
HETATM   21  C   UNL     1     -42.795  59.227 -56.068  1.00  0.00     0.020 A 
HETATM   22  C   UNL     1     -43.331  58.253 -56.918  1.00  0.00     0.039 A 
HETATM   23  C   UNL     1     -44.631  57.800 -56.685  1.00  0.00     0.020 A 
HETATM   24  C   UNL     1     -45.369  58.307 -55.609  1.00  0.00     0.030 A 
BRANCH  22  25
HETATM   25  C   UNL     1     -42.491  57.754 -58.040  1.00  0.00     0.293 C 
HETATM   26  O   UNL     1     -41.695  58.462 -58.634  1.00  0.00    -0.259 OA
BRANCH  25  27
HETATM   27  O   UNL     1     -42.737  56.443 -58.273  1.00  0.00    -0.318 OA
BRANCH  27  28
HETATM   28  C   UNL     1     -42.744  56.042 -59.653  1.00  0.00     0.174 C 
HETATM   29  C   UNL     1     -44.082  56.379 -60.284  1.00  0.00     0.034 C 
ENDBRANCH  27  28
ENDBRANCH  25  27
ENDBRANCH  22  25
ENDBRANCH  16  19
ENDBRANCH  14  15
ENDBRANCH   1  14
BRANCH   7  30
HETATM   30  C   UNL     1     -41.135  53.397 -53.114  1.00  0.00    -0.002 A 
HETATM   31  C   UNL     1     -40.311  52.947 -52.074  1.00  0.00     0.016 A 
HETATM   32  C   UNL     1     -39.633  51.729 -52.188  1.00  0.00     0.024 A 
HETATM   33  C   UNL     1     -39.773  50.958 -53.338  1.00  0.00     0.034 A 
HETATM   34 CL   UNL     1     -38.933  49.465 -53.475  1.00  0.00    -0.084 Cl
HETATM   35  C   UNL     1     -40.586  51.395 -54.381  1.00  0.00     0.024 A 
HETATM   36  C   UNL     1     -41.264  52.613 -54.270  1.00  0.00     0.016 A 
ENDBRANCH   7  30
TORSDOF 7
ENDMDL
MODEL 8
REMARK VINA RESULT:      -8.4     19.642     22.695
REMARK  7 active torsions:
REMARK  status: ('A' for Active; 'I' for Inactive)
REMARK    1  A    between atoms: C_2  and  O_3 
REMARK    2  A    between atoms: O_3  and  C_4 
REMARK    3  A    between atoms: C_4  and  C_5 
REMARK    4  A    between atoms: C_8  and  N_9 
REMARK       I    between atoms: N_9  and  C_10 
REMARK    5  A    between atoms: C_10  and  C_11 
REMARK    6  A    between atoms: C_11  and  N_12 
REMARK    7  A    between atoms: C_18  and  C_19 
ROOT
HETATM    1  N   UNL     1     -37.412  40.997 -54.613  1.00  0.00    -0.063 N 
HETATM    2  H   UNL     1     -38.325  40.578 -54.876  1.00  0.00     0.280 HD
HETATM    3  C   UNL     1     -36.403  39.889 -54.840  1.00  0.00     0.240 C 
HETATM    4  C   UNL     1     -35.852  39.363 -53.529  1.00  0.00     0.083 C 
HETATM    5  C   UNL     1     -35.269  40.492 -52.669  1.00  0.00     0.131 A 
HETATM    6  N   UNL     1     -35.131  39.957 -51.291  1.00  0.00    -0.251 NA
HETATM    7  C   UNL     1     -33.858  40.003 -50.988  1.00  0.00     0.132 A 
HETATM    8  C   UNL     1     -33.040  40.611 -52.103  1.00  0.00     0.272 A 
HETATM    9  O   UNL     1     -31.864  40.879 -52.112  1.00  0.00    -0.266 OA
HETATM   10  N   UNL     1     -33.946  40.837 -53.092  1.00  0.00    -0.327 N 
HETATM   11  C   UNL     1     -36.166  41.739 -52.613  1.00  0.00     0.083 C 
HETATM   12  C   UNL     1     -37.541  41.460 -53.187  1.00  0.00     0.240 C 
HETATM   13  H   UNL     1     -33.656  41.329 -53.928  1.00  0.00     0.165 HD
ENDROOT
BRANCH   1  14
HETATM   14  C   UNL     1     -37.262  42.146 -55.639  1.00  0.00     0.337 C 
BRANCH  14  15
HETATM   15  C   UNL     1     -35.821  42.233 -56.133  1.00  0.00     0.248 C 
HETATM   16  N   UNL     1     -35.442  41.835 -57.376  1.00  0.00    -0.326 N 
HETATM   17  H   UNL     1     -34.473  42.086 -57.564  1.00  0.00     0.169 HD
HETATM   18  O   UNL     1     -34.984  42.747 -55.380  1.00  0.00    -0.271 OA
BRANCH  16  19
HETATM   19  C   UNL     1     -36.108  41.180 -58.427  1.00  0.00     0.034 A 
HETATM   20  C   UNL     1     -37.016  41.772 -59.304  1.00  0.00     0.030 A 
HETATM   21  C   UNL     1     -37.611  41.017 -60.326  1.00  0.00     0.020 A 
HETATM   22  C   UNL     1     -37.322  39.655 -60.479  1.00  0.00     0.039 A 
HETATM   23  C   UNL     1     -36.436  39.052 -59.584  1.00  0.00     0.020 A 
HETATM   24  C   UNL     1     -35.843  39.808 -58.566  1.00  0.00     0.030 A 
BRANCH  22  25
HETATM   25  C   UNL     1     -37.984  38.912 -61.585  1.00  0.00     0.293 C 
HETATM   26  O   UNL     1     -37.437  38.689 -62.652  1.00  0.00    -0.259 OA
BRANCH  25  27
HETATM   27  O   UNL     1     -39.233  38.533 -61.223  1.00  0.00    -0.318 OA
BRANCH  27  28
HETATM   28  C   UNL     1     -39.412  37.130 -60.962  1.00  0.00     0.174 C 
HETATM   29  C   UNL     1     -39.490  36.886 -59.467  1.00  0.00     0.034 C 
ENDBRANCH  27  28
ENDBRANCH  25  27
ENDBRANCH  22  25
ENDBRANCH  16  19
ENDBRANCH  14  15
ENDBRANCH   1  14
BRANCH   7  30
HETATM   30  C   UNL     1     -33.299  39.515 -49.712  1.00  0.00    -0.002 A 
HETATM   31  C   UNL     1     -32.116  40.032 -49.168  1.00  0.00     0.016 A 
HETATM   32  C   UNL     1     -31.611  39.526 -47.965  1.00  0.00     0.024 A 
HETATM   33  C   UNL     1     -32.284  38.502 -47.303  1.00  0.00     0.034 A 
HETATM   34 CL   UNL     1     -31.657  37.880 -45.829  1.00  0.00    -0.084 Cl
HETATM   35  C   UNL     1     -33.459  37.977 -47.834  1.00  0.00     0.024 A 
HETATM   36  C   UNL     1     -33.964  38.480 -49.037  1.00  0.00     0.016 A 
ENDBRANCH   7  30
TORSDOF 7
ENDMDL
MODEL 9
REMARK VINA RESULT:      -8.4      4.226     11.087
REMARK  7 active torsions:
REMARK  status: ('A' for Active; 'I' for Inactive)
REMARK    1  A    between atoms: C_2  and  O_3 
REMARK    2  A    between atoms: O_3  and  C_4 
REMARK    3  A    between atoms: C_4  and  C_5 
REMARK    4  A    between atoms: C_8  and  N_9 
REMARK       I    between atoms: N_9  and  C_10 
REMARK    5  A    between atoms: C_10  and  C_11 
REMARK    6  A    between atoms: C_11  and  N_12 
REMARK    7  A    between atoms: C_18  and  C_19 
ROOT
HETATM    1  N   UNL     1     -42.698  57.890 -53.239  1.00  0.00    -0.063 N 
HETATM    2  H   UNL     1     -42.451  56.893 -53.091  1.00  0.00     0.280 HD
HETATM    3  C   UNL     1     -41.659  58.664 -52.450  1.00  0.00     0.240 C 
HETATM    4  C   UNL     1     -42.268  59.323 -51.228  1.00  0.00     0.083 C 
HETATM    5  C   UNL     1     -43.467  60.205 -51.601  1.00  0.00     0.131 A 
HETATM    6  N   UNL     1     -44.214  60.470 -50.346  1.00  0.00    -0.251 NA
HETATM    7  C   UNL     1     -44.199  61.765 -50.158  1.00  0.00     0.132 A 
HETATM    8  C   UNL     1     -43.492  62.485 -51.283  1.00  0.00     0.272 A 
HETATM    9  O   UNL     1     -43.380  63.672 -51.462  1.00  0.00    -0.266 OA
HETATM   10  N   UNL     1     -43.042  61.483 -52.085  1.00  0.00    -0.327 N 
HETATM   11  C   UNL     1     -44.426  59.536 -52.599  1.00  0.00     0.083 C 
HETATM   12  C   UNL     1     -44.116  58.061 -52.765  1.00  0.00     0.240 C 
HETATM   13  H   UNL     1     -42.603  61.712 -52.968  1.00  0.00     0.165 HD
ENDROOT
BRANCH   1  14
HETATM   14  C   UNL     1     -42.518  58.058 -54.767  1.00  0.00     0.337 C 
BRANCH  14  15
HETATM   15  C   UNL     1     -43.424  57.087 -55.519  1.00  0.00     0.248 C 
HETATM   16  N   UNL     1     -43.350  55.739 -55.364  1.00  0.00    -0.326 N 
HETATM   17  H   UNL     1     -44.112  55.269 -55.849  1.00  0.00     0.169 HD
HETATM   18  O   UNL     1     -44.299  57.565 -56.251  1.00  0.00    -0.271 OA
BRANCH  16  19
HETATM   19  C   UNL     1     -42.464  54.891 -54.674  1.00  0.00     0.034 A 
HETATM   20  C   UNL     1     -41.230  54.450 -55.151  1.00  0.00     0.030 A 
HETATM   21  C   UNL     1     -40.424  53.611 -54.366  1.00  0.00     0.020 A 
HETATM   22  C   UNL     1     -40.844  53.187 -53.099  1.00  0.00     0.039 A 
HETATM   23  C   UNL     1     -42.092  53.603 -52.631  1.00  0.00     0.020 A 
HETATM   24  C   UNL     1     -42.894  54.440 -53.417  1.00  0.00     0.030 A 
BRANCH  22  25
HETATM   25  C   UNL     1     -39.941  52.301 -52.316  1.00  0.00     0.293 C 
HETATM   26  O   UNL     1     -39.910  52.302 -51.096  1.00  0.00    -0.259 OA
BRANCH  25  27
HETATM   27  O   UNL     1     -39.203  51.523 -53.142  1.00  0.00    -0.318 OA
BRANCH  27  28
HETATM   28  C   UNL     1     -39.597  50.144 -53.224  1.00  0.00     0.174 C 
HETATM   29  C   UNL     1     -39.921  49.781 -54.661  1.00  0.00     0.034 C 
ENDBRANCH  27  28
ENDBRANCH  25  27
ENDBRANCH  22  25
ENDBRANCH  16  19
ENDBRANCH  14  15
ENDBRANCH   1  14
BRANCH   7  30
HETATM   30  C   UNL     1     -44.801  62.433 -48.987  1.00  0.00    -0.002 A 
HETATM   31  C   UNL     1     -44.308  63.643 -48.481  1.00  0.00     0.016 A 
HETATM   32  C   UNL     1     -44.897  64.231 -47.357  1.00  0.00     0.024 A 
HETATM   33  C   UNL     1     -45.978  63.613 -46.733  1.00  0.00     0.034 A 
HETATM   34 CL   UNL     1     -46.695  64.336 -45.349  1.00  0.00    -0.084 Cl
HETATM   35  C   UNL     1     -46.476  62.409 -47.224  1.00  0.00     0.024 A 
HETATM   36  C   UNL     1     -45.888  61.819 -48.346  1.00  0.00     0.016 A 
ENDBRANCH   7  30
TORSDOF 7
ENDMDL
MODEL 10
REMARK VINA RESULT:      -8.4      2.170      2.921
REMARK  7 active torsions:
REMARK  status: ('A' for Active; 'I' for Inactive)
REMARK    1  A    between atoms: C_2  and  O_3 
REMARK    2  A    between atoms: O_3  and  C_4 
REMARK    3  A    between atoms: C_4  and  C_5 
REMARK    4  A    between atoms: C_8  and  N_9 
REMARK       I    between atoms: N_9  and  C_10 
REMARK    5  A    between atoms: C_10  and  C_11 
REMARK    6  A    between atoms: C_11  and  N_12 
REMARK    7  A    between atoms: C_18  and  C_19 
ROOT
HETATM    1  N   UNL     1     -42.272  60.135 -54.521  1.00  0.00    -0.063 N 
HETATM    2  H   UNL     1     -41.673  60.869 -54.945  1.00  0.00     0.280 HD
HETATM    3  C   UNL     1     -41.599  59.805 -53.203  1.00  0.00     0.240 C 
HETATM    4  C   UNL     1     -40.973  58.424 -53.230  1.00  0.00     0.083 C 
HETATM    5  C   UNL     1     -41.994  57.350 -53.628  1.00  0.00     0.131 A 
HETATM    6  N   UNL     1     -41.221  56.140 -54.007  1.00  0.00    -0.251 NA
HETATM    7  C   UNL     1     -41.573  55.188 -53.182  1.00  0.00     0.132 A 
HETATM    8  C   UNL     1     -42.638  55.650 -52.215  1.00  0.00     0.272 A 
HETATM    9  O   UNL     1     -43.239  55.003 -51.392  1.00  0.00    -0.266 OA
HETATM   10  N   UNL     1     -42.806  56.966 -52.513  1.00  0.00    -0.327 N 
HETATM   11  C   UNL     1     -42.869  57.757 -54.824  1.00  0.00     0.083 C 
HETATM   12  C   UNL     1     -42.334  59.000 -55.507  1.00  0.00     0.240 C 
HETATM   13  H   UNL     1     -43.541  57.490 -52.054  1.00  0.00     0.165 HD
ENDROOT
BRANCH   1  14
HETATM   14  C   UNL     1     -43.617  60.873 -54.323  1.00  0.00     0.337 C 
BRANCH  14  15
HETATM   15  C   UNL     1     -43.375  62.353 -54.041  1.00  0.00     0.248 C 
HETATM   16  N   UNL     1     -43.460  62.890 -52.796  1.00  0.00    -0.326 N 
HETATM   17  H   UNL     1     -43.144  63.859 -52.789  1.00  0.00     0.169 HD
HETATM   18  O   UNL     1     -43.027  63.071 -54.987  1.00  0.00    -0.271 OA
BRANCH  16  19
HETATM   19  C   UNL     1     -43.871  62.384 -51.549  1.00  0.00     0.034 A 
HETATM   20  C   UNL     1     -43.056  61.705 -50.644  1.00  0.00     0.030 A 
HETATM   21  C   UNL     1     -43.578  61.254 -49.421  1.00  0.00     0.020 A 
HETATM   22  C   UNL     1     -44.922  61.460 -49.090  1.00  0.00     0.039 A 
HETATM   23  C   UNL     1     -45.747  62.113 -50.008  1.00  0.00     0.020 A 
HETATM   24  C   UNL     1     -45.225  62.563 -51.226  1.00  0.00     0.030 A 
BRANCH  22  25
HETATM   25  C   UNL     1     -45.411  60.961 -47.777  1.00  0.00     0.293 C 
HETATM   26  O   UNL     1     -46.317  60.150 -47.674  1.00  0.00    -0.259 OA
BRANCH  25  27
HETATM   27  O   UNL     1     -44.709  61.520 -46.763  1.00  0.00    -0.318 OA
BRANCH  27  28
HETATM   28  C   UNL     1     -45.482  62.232 -45.782  1.00  0.00     0.174 C 
HETATM   29  C   UNL     1     -45.728  63.655 -46.247  1.00  0.00     0.034 C 
ENDBRANCH  27  28
ENDBRANCH  25  27
ENDBRANCH  22  25
ENDBRANCH  16  19
ENDBRANCH  14  15
ENDBRANCH   1  14
BRANCH   7  30
HETATM   30  C   UNL     1     -40.994  53.829 -53.199  1.00  0.00    -0.002 A 
HETATM   31  C   UNL     1     -40.277  53.309 -52.113  1.00  0.00     0.016 A 
HETATM   32  C   UNL     1     -39.729  52.023 -52.181  1.00  0.00     0.024 A 
HETATM   33  C   UNL     1     -39.891  51.255 -53.331  1.00  0.00     0.034 A 
HETATM   34 CL   UNL     1     -39.210  49.680 -53.411  1.00  0.00    -0.084 Cl
HETATM   35  C   UNL     1     -40.598  51.762 -54.418  1.00  0.00     0.024 A 
HETATM   36  C   UNL     1     -41.146  53.047 -54.354  1.00  0.00     0.016 A 
ENDBRANCH   7  30
TORSDOF 7
ENDMDL
