MODEL 1
REMARK VINA RESULT:      -7.1      0.000      0.000
REMARK  8 active torsions:
REMARK  status: ('A' for Active; 'I' for Inactive)
REMARK    1  A    between atoms: C_3  and  N_4 
REMARK       I    between atoms: N_4  and  C_5 
REMARK    2  A    between atoms: C_5  and  C_6 
REMARK    3  A    between atoms: C_6  and  C_7 
REMARK    4  A    between atoms: C_7  and  C_8 
REMARK    5  A    between atoms: C_8  and  O_9 
REMARK    6  A    between atoms: O_9  and  C_10 
REMARK    7  A    between atoms: C_18  and  C_19 
REMARK    8  A    between atoms: C_22  and  O_23 
ROOT
HETATM    1  N   UNL     1     -40.885  56.374 -50.937  1.00  0.00    -0.327 N 
HETATM    2  C   UNL     1     -41.919  55.815 -50.199  1.00  0.00     0.222 C 
HETATM    3  O   UNL     1     -43.118  55.960 -50.402  1.00  0.00    -0.273 OA
HETATM    4  H   UNL     1     -40.010  55.868 -50.896  1.00  0.00     0.169 HD
ENDROOT
BRANCH   1   5
HETATM    5  C   UNL     1     -41.021  57.277 -52.018  1.00  0.00     0.041 A 
HETATM    6  C   UNL     1     -40.717  58.644 -51.978  1.00  0.00    -0.033 A 
HETATM    7  C   UNL     1     -40.052  59.344 -50.826  1.00  0.00     0.050 C 
HETATM    8  C   UNL     1     -41.008  59.425 -53.108  1.00  0.00     0.046 A 
HETATM    9  C   UNL     1     -41.522  58.858 -54.275  1.00  0.00     0.072 A 
HETATM   10  C   UNL     1     -41.728  57.478 -54.384  1.00  0.00    -0.019 A 
HETATM   11  C   UNL     1     -41.463  56.707 -53.233  1.00  0.00     0.040 A 
BRANCH   9  12
HETATM   12  O   UNL     1     -41.781  59.744 -55.283  1.00  0.00    -0.360 OA
HETATM   13  H   UNL     1     -41.535  60.637 -55.001  1.00  0.00     0.217 HD
ENDBRANCH   9  12
BRANCH  10  14
HETATM   14  C   UNL     1     -42.205  56.839 -55.684  1.00  0.00     0.013 C 
HETATM   15  C   UNL     1     -41.897  55.336 -55.697  1.00  0.00     0.015 C 
HETATM   16  C   UNL     1     -43.691  57.040 -56.019  1.00  0.00     0.015 C 
ENDBRANCH  10  14
ENDBRANCH   1   5
BRANCH   2  17
HETATM   17  C   UNL     1     -41.394  54.892 -49.109  1.00  0.00     0.105 C 
BRANCH  17  18
HETATM   18  C   UNL     1     -40.183  54.065 -49.538  1.00  0.00     0.036 C 
BRANCH  18  19
HETATM   19  C   UNL     1     -40.551  52.802 -50.318  1.00  0.00     0.176 C 
BRANCH  19  20
HETATM   20  O   UNL     1     -39.403  52.424 -51.085  1.00  0.00    -0.350 OA
BRANCH  20  21
HETATM   21  C   UNL     1     -39.608  51.553 -52.114  1.00  0.00     0.086 A 
HETATM   22  C   UNL     1     -39.423  50.175 -52.101  1.00  0.00     0.152 A 
HETATM   23  N   UNL     1     -39.659  49.363 -53.162  1.00  0.00    -0.270 NA
HETATM   24  C   UNL     1     -40.091  49.957 -54.295  1.00  0.00     0.116 A 
HETATM   25  C   UNL     1     -40.302  51.321 -54.414  1.00  0.00     0.022 A 
HETATM   26  C   UNL     1     -40.056  52.124 -53.303  1.00  0.00     0.039 A 
ENDBRANCH  20  21
ENDBRANCH  19  20
ENDBRANCH  18  19
ENDBRANCH  17  18
ENDBRANCH   2  17
TORSDOF 8
ENDMDL
MODEL 2
REMARK VINA RESULT:      -7.0      2.405      6.448
REMARK  8 active torsions:
REMARK  status: ('A' for Active; 'I' for Inactive)
REMARK    1  A    between atoms: C_3  and  N_4 
REMARK       I    between atoms: N_4  and  C_5 
REMARK    2  A    between atoms: C_5  and  C_6 
REMARK    3  A    between atoms: C_6  and  C_7 
REMARK    4  A    between atoms: C_7  and  C_8 
REMARK    5  A    between atoms: C_8  and  O_9 
REMARK    6  A    between atoms: O_9  and  C_10 
REMARK    7  A    between atoms: C_18  and  C_19 
REMARK    8  A    between atoms: C_22  and  O_23 
ROOT
HETATM    1  N   UNL     1     -42.428  55.860 -51.182  1.00  0.00    -0.327 N 
HETATM    2  C   UNL     1     -43.772  55.807 -50.842  1.00  0.00     0.222 C 
HETATM    3  O   UNL     1     -44.391  54.815 -50.477  1.00  0.00    -0.273 OA
HETATM    4  H   UNL     1     -41.997  56.769 -51.079  1.00  0.00     0.169 HD
ENDROOT
BRANCH   1   5
HETATM    5  C   UNL     1     -41.536  54.762 -51.245  1.00  0.00     0.041 A 
HETATM    6  C   UNL     1     -40.922  54.151 -50.145  1.00  0.00    -0.033 A 
HETATM    7  C   UNL     1     -41.229  54.459 -48.706  1.00  0.00     0.050 C 
HETATM    8  C   UNL     1     -39.978  53.138 -50.386  1.00  0.00     0.046 A 
HETATM    9  C   UNL     1     -39.699  52.693 -51.678  1.00  0.00     0.072 A 
HETATM   10  C   UNL     1     -40.381  53.206 -52.788  1.00  0.00    -0.019 A 
HETATM   11  C   UNL     1     -41.302  54.244 -52.538  1.00  0.00     0.040 A 
BRANCH   9  12
HETATM   12  O   UNL     1     -38.741  51.723 -51.761  1.00  0.00    -0.360 OA
HETATM   13  H   UNL     1     -37.874  52.105 -51.561  1.00  0.00     0.217 HD
ENDBRANCH   9  12
BRANCH  10  14
HETATM   14  C   UNL     1     -40.146  52.663 -54.194  1.00  0.00     0.013 C 
HETATM   15  C   UNL     1     -40.942  51.370 -54.418  1.00  0.00     0.015 C 
HETATM   16  C   UNL     1     -40.451  53.635 -55.344  1.00  0.00     0.015 C 
ENDBRANCH  10  14
ENDBRANCH   1   5
BRANCH   2  17
HETATM   17  C   UNL     1     -44.416  57.184 -50.887  1.00  0.00     0.105 C 
BRANCH  17  18
HETATM   18  C   UNL     1     -44.475  57.788 -52.289  1.00  0.00     0.036 C 
BRANCH  18  19
HETATM   19  C   UNL     1     -43.726  59.115 -52.414  1.00  0.00     0.176 C 
BRANCH  19  20
HETATM   20  O   UNL     1     -42.497  58.850 -53.098  1.00  0.00    -0.350 OA
BRANCH  20  21
HETATM   21  C   UNL     1     -41.345  59.048 -52.395  1.00  0.00     0.086 A 
HETATM   22  C   UNL     1     -40.041  58.956 -52.871  1.00  0.00     0.152 A 
HETATM   23  N   UNL     1     -38.936  59.178 -52.116  1.00  0.00    -0.270 NA
HETATM   24  C   UNL     1     -39.142  59.498 -50.820  1.00  0.00     0.116 A 
HETATM   25  C   UNL     1     -40.397  59.610 -50.247  1.00  0.00     0.022 A 
HETATM   26  C   UNL     1     -41.511  59.382 -51.053  1.00  0.00     0.039 A 
ENDBRANCH  20  21
ENDBRANCH  19  20
ENDBRANCH  18  19
ENDBRANCH  17  18
ENDBRANCH   2  17
TORSDOF 8
ENDMDL
MODEL 3
REMARK VINA RESULT:      -7.0      2.527      7.040
REMARK  8 active torsions:
REMARK  status: ('A' for Active; 'I' for Inactive)
REMARK    1  A    between atoms: C_3  and  N_4 
REMARK       I    between atoms: N_4  and  C_5 
REMARK    2  A    between atoms: C_5  and  C_6 
REMARK    3  A    between atoms: C_6  and  C_7 
REMARK    4  A    between atoms: C_7  and  C_8 
REMARK    5  A    between atoms: C_8  and  O_9 
REMARK    6  A    between atoms: O_9  and  C_10 
REMARK    7  A    between atoms: C_18  and  C_19 
REMARK    8  A    between atoms: C_22  and  O_23 
ROOT
HETATM    1  N   UNL     1     -43.621  55.558 -52.509  1.00  0.00    -0.327 N 
HETATM    2  C   UNL     1     -43.495  56.498 -51.496  1.00  0.00     0.222 C 
HETATM    3  O   UNL     1     -42.482  56.741 -50.852  1.00  0.00    -0.273 OA
HETATM    4  H   UNL     1     -44.358  55.745 -53.176  1.00  0.00     0.169 HD
ENDROOT
BRANCH   1   5
HETATM    5  C   UNL     1     -42.624  54.648 -52.937  1.00  0.00     0.041 A 
HETATM    6  C   UNL     1     -42.413  54.238 -54.259  1.00  0.00    -0.033 A 
HETATM    7  C   UNL     1     -43.109  54.812 -55.460  1.00  0.00     0.050 C 
HETATM    8  C   UNL     1     -41.448  53.246 -54.503  1.00  0.00     0.046 A 
HETATM    9  C   UNL     1     -40.663  52.723 -53.475  1.00  0.00     0.072 A 
HETATM   10  C   UNL     1     -40.773  53.196 -52.162  1.00  0.00    -0.019 A 
HETATM   11  C   UNL     1     -41.766  54.168 -51.923  1.00  0.00     0.040 A 
BRANCH   9  12
HETATM   12  O   UNL     1     -39.786  51.747 -53.857  1.00  0.00    -0.360 OA
HETATM   13  H   UNL     1     -39.863  51.597 -54.810  1.00  0.00     0.217 HD
ENDBRANCH   9  12
BRANCH  10  14
HETATM   14  C   UNL     1     -39.857  52.694 -51.050  1.00  0.00     0.013 C 
HETATM   15  C   UNL     1     -39.762  53.724 -49.916  1.00  0.00     0.015 C 
HETATM   16  C   UNL     1     -40.229  51.331 -50.447  1.00  0.00     0.015 C 
ENDBRANCH  10  14
ENDBRANCH   1   5
BRANCH   2  17
HETATM   17  C   UNL     1     -44.776  57.298 -51.312  1.00  0.00     0.105 C 
BRANCH  17  18
HETATM   18  C   UNL     1     -44.862  58.533 -52.206  1.00  0.00     0.036 C 
BRANCH  18  19
HETATM   19  C   UNL     1     -44.546  59.839 -51.476  1.00  0.00     0.176 C 
BRANCH  19  20
HETATM   20  O   UNL     1     -43.485  60.482 -52.191  1.00  0.00    -0.350 OA
BRANCH  20  21
HETATM   21  C   UNL     1     -42.219  60.033 -51.952  1.00  0.00     0.086 A 
HETATM   22  C   UNL     1     -41.322  59.513 -52.878  1.00  0.00     0.152 A 
HETATM   23  N   UNL     1     -40.068  59.094 -52.572  1.00  0.00    -0.270 NA
HETATM   24  C   UNL     1     -39.696  59.189 -51.278  1.00  0.00     0.116 A 
HETATM   25  C   UNL     1     -40.515  59.687 -50.279  1.00  0.00     0.022 A 
HETATM   26  C   UNL     1     -41.794  60.115 -50.628  1.00  0.00     0.039 A 
ENDBRANCH  20  21
ENDBRANCH  19  20
ENDBRANCH  18  19
ENDBRANCH  17  18
ENDBRANCH   2  17
TORSDOF 8
ENDMDL
MODEL 4
REMARK VINA RESULT:      -7.0      2.455      5.695
REMARK  8 active torsions:
REMARK  status: ('A' for Active; 'I' for Inactive)
REMARK    1  A    between atoms: C_3  and  N_4 
REMARK       I    between atoms: N_4  and  C_5 
REMARK    2  A    between atoms: C_5  and  C_6 
REMARK    3  A    between atoms: C_6  and  C_7 
REMARK    4  A    between atoms: C_7  and  C_8 
REMARK    5  A    between atoms: C_8  and  O_9 
REMARK    6  A    between atoms: O_9  and  C_10 
REMARK    7  A    between atoms: C_18  and  C_19 
REMARK    8  A    between atoms: C_22  and  O_23 
ROOT
HETATM    1  N   UNL     1     -41.982  56.359 -51.026  1.00  0.00    -0.327 N 
HETATM    2  C   UNL     1     -41.489  57.624 -51.313  1.00  0.00     0.222 C 
HETATM    3  O   UNL     1     -40.373  57.889 -51.744  1.00  0.00    -0.273 OA
HETATM    4  H   UNL     1     -42.989  56.276 -51.061  1.00  0.00     0.169 HD
ENDROOT
BRANCH   1   5
HETATM    5  C   UNL     1     -41.263  55.142 -51.106  1.00  0.00     0.041 A 
HETATM    6  C   UNL     1     -40.774  54.415 -50.013  1.00  0.00    -0.033 A 
HETATM    7  C   UNL     1     -41.064  54.727 -48.572  1.00  0.00     0.050 C 
HETATM    8  C   UNL     1     -39.988  53.279 -50.267  1.00  0.00     0.046 A 
HETATM    9  C   UNL     1     -39.749  52.832 -51.566  1.00  0.00     0.072 A 
HETATM   10  C   UNL     1     -40.320  53.472 -52.673  1.00  0.00    -0.019 A 
HETATM   11  C   UNL     1     -41.080  54.630 -52.409  1.00  0.00     0.040 A 
BRANCH   9  12
HETATM   12  O   UNL     1     -38.946  51.731 -51.660  1.00  0.00    -0.360 OA
HETATM   13  H   UNL     1     -38.302  51.858 -52.373  1.00  0.00     0.217 HD
ENDBRANCH   9  12
BRANCH  10  14
HETATM   14  C   UNL     1     -40.137  52.938 -54.090  1.00  0.00     0.013 C 
HETATM   15  C   UNL     1     -41.237  51.926 -54.436  1.00  0.00     0.015 C 
HETATM   16  C   UNL     1     -40.076  53.999 -55.200  1.00  0.00     0.015 C 
ENDBRANCH  10  14
ENDBRANCH   1   5
BRANCH   2  17
HETATM   17  C   UNL     1     -42.548  58.697 -51.111  1.00  0.00     0.105 C 
BRANCH  17  18
HETATM   18  C   UNL     1     -43.957  58.248 -51.493  1.00  0.00     0.036 C 
BRANCH  18  19
HETATM   19  C   UNL     1     -44.161  58.092 -53.001  1.00  0.00     0.176 C 
BRANCH  19  20
HETATM   20  O   UNL     1     -44.090  56.694 -53.300  1.00  0.00    -0.350 OA
BRANCH  20  21
HETATM   21  C   UNL     1     -43.687  56.352 -54.557  1.00  0.00     0.086 A 
HETATM   22  C   UNL     1     -43.270  57.208 -55.570  1.00  0.00     0.152 A 
HETATM   23  N   UNL     1     -42.869  56.797 -56.800  1.00  0.00    -0.270 NA
HETATM   24  C   UNL     1     -42.895  55.468 -57.032  1.00  0.00     0.116 A 
HETATM   25  C   UNL     1     -43.299  54.532 -56.095  1.00  0.00     0.022 A 
HETATM   26  C   UNL     1     -43.698  54.988 -54.840  1.00  0.00     0.039 A 
ENDBRANCH  20  21
ENDBRANCH  19  20
ENDBRANCH  18  19
ENDBRANCH  17  18
ENDBRANCH   2  17
TORSDOF 8
ENDMDL
MODEL 5
REMARK VINA RESULT:      -6.9      3.363      5.049
REMARK  8 active torsions:
REMARK  status: ('A' for Active; 'I' for Inactive)
REMARK    1  A    between atoms: C_3  and  N_4 
REMARK       I    between atoms: N_4  and  C_5 
REMARK    2  A    between atoms: C_5  and  C_6 
REMARK    3  A    between atoms: C_6  and  C_7 
REMARK    4  A    between atoms: C_7  and  C_8 
REMARK    5  A    between atoms: C_8  and  O_9 
REMARK    6  A    between atoms: O_9  and  C_10 
REMARK    7  A    between atoms: C_18  and  C_19 
REMARK    8  A    between atoms: C_22  and  O_23 
ROOT
HETATM    1  N   UNL     1     -41.954  56.987 -56.808  1.00  0.00    -0.327 N 
HETATM    2  C   UNL     1     -42.454  56.855 -55.520  1.00  0.00     0.222 C 
HETATM    3  O   UNL     1     -43.601  57.087 -55.158  1.00  0.00    -0.273 OA
HETATM    4  H   UNL     1     -41.151  56.409 -57.015  1.00  0.00     0.169 HD
ENDROOT
BRANCH   1   5
HETATM    5  C   UNL     1     -42.655  57.488 -57.931  1.00  0.00     0.041 A 
HETATM    6  C   UNL     1     -42.595  58.804 -58.406  1.00  0.00    -0.033 A 
HETATM    7  C   UNL     1     -41.658  59.862 -57.894  1.00  0.00     0.050 C 
HETATM    8  C   UNL     1     -43.436  59.167 -59.471  1.00  0.00     0.046 A 
HETATM    9  C   UNL     1     -44.264  58.236 -60.098  1.00  0.00     0.072 A 
HETATM   10  C   UNL     1     -44.261  56.888 -59.720  1.00  0.00    -0.019 A 
HETATM   11  C   UNL     1     -43.438  56.541 -58.629  1.00  0.00     0.040 A 
BRANCH   9  12
HETATM   12  O   UNL     1     -45.044  58.739 -61.101  1.00  0.00    -0.360 OA
HETATM   13  H   UNL     1     -45.770  59.254 -60.720  1.00  0.00     0.217 HD
ENDBRANCH   9  12
BRANCH  10  14
HETATM   14  C   UNL     1     -45.097  55.848 -60.458  1.00  0.00     0.013 C 
HETATM   15  C   UNL     1     -44.733  54.430 -59.996  1.00  0.00     0.015 C 
HETATM   16  C   UNL     1     -46.620  56.023 -60.356  1.00  0.00     0.015 C 
ENDBRANCH  10  14
ENDBRANCH   1   5
BRANCH   2  17
HETATM   17  C   UNL     1     -41.411  56.285 -54.571  1.00  0.00     0.105 C 
BRANCH  17  18
HETATM   18  C   UNL     1     -40.918  54.894 -54.965  1.00  0.00     0.036 C 
BRANCH  18  19
HETATM   19  C   UNL     1     -41.446  53.779 -54.061  1.00  0.00     0.176 C 
BRANCH  19  20
HETATM   20  O   UNL     1     -40.413  53.466 -53.120  1.00  0.00    -0.350 OA
BRANCH  20  21
HETATM   21  C   UNL     1     -40.106  52.147 -52.959  1.00  0.00     0.086 A 
HETATM   22  C   UNL     1     -39.643  51.526 -51.804  1.00  0.00     0.152 A 
HETATM   23  N   UNL     1     -39.367  50.200 -51.710  1.00  0.00    -0.270 NA
HETATM   24  C   UNL     1     -39.552  49.462 -52.825  1.00  0.00     0.116 A 
HETATM   25  C   UNL     1     -40.003  49.984 -54.025  1.00  0.00     0.022 A 
HETATM   26  C   UNL     1     -40.284  51.347 -54.086  1.00  0.00     0.039 A 
ENDBRANCH  20  21
ENDBRANCH  19  20
ENDBRANCH  18  19
ENDBRANCH  17  18
ENDBRANCH   2  17
TORSDOF 8
ENDMDL
MODEL 6
REMARK VINA RESULT:      -6.9      3.452      5.458
REMARK  8 active torsions:
REMARK  status: ('A' for Active; 'I' for Inactive)
REMARK    1  A    between atoms: C_3  and  N_4 
REMARK       I    between atoms: N_4  and  C_5 
REMARK    2  A    between atoms: C_5  and  C_6 
REMARK    3  A    between atoms: C_6  and  C_7 
REMARK    4  A    between atoms: C_7  and  C_8 
REMARK    5  A    between atoms: C_8  and  O_9 
REMARK    6  A    between atoms: O_9  and  C_10 
REMARK    7  A    between atoms: C_18  and  C_19 
REMARK    8  A    between atoms: C_22  and  O_23 
ROOT
HETATM    1  N   UNL     1     -42.407  55.640 -57.297  1.00  0.00    -0.327 N 
HETATM    2  C   UNL     1     -42.754  55.611 -55.954  1.00  0.00     0.222 C 
HETATM    3  O   UNL     1     -43.661  56.240 -55.423  1.00  0.00    -0.273 OA
HETATM    4  H   UNL     1     -41.930  54.814 -57.632  1.00  0.00     0.169 HD
ENDROOT
BRANCH   1   5
HETATM    5  C   UNL     1     -42.986  56.461 -58.294  1.00  0.00     0.041 A 
HETATM    6  C   UNL     1     -43.800  56.014 -59.342  1.00  0.00    -0.033 A 
HETATM    7  C   UNL     1     -44.318  54.612 -59.492  1.00  0.00     0.050 C 
HETATM    8  C   UNL     1     -44.209  56.945 -60.312  1.00  0.00     0.046 A 
HETATM    9  C   UNL     1     -43.881  58.297 -60.210  1.00  0.00     0.072 A 
HETATM   10  C   UNL     1     -43.165  58.792 -59.114  1.00  0.00    -0.019 A 
HETATM   11  C   UNL     1     -42.732  57.845 -58.163  1.00  0.00     0.040 A 
BRANCH   9  12
HETATM   12  O   UNL     1     -44.325  59.078 -61.240  1.00  0.00    -0.360 OA
HETATM   13  H   UNL     1     -43.567  59.461 -61.707  1.00  0.00     0.217 HD
ENDBRANCH   9  12
BRANCH  10  14
HETATM   14  C   UNL     1     -42.878  60.282 -58.951  1.00  0.00     0.013 C 
HETATM   15  C   UNL     1     -42.603  60.625 -57.480  1.00  0.00     0.015 C 
HETATM   16  C   UNL     1     -41.732  60.837 -59.809  1.00  0.00     0.015 C 
ENDBRANCH  10  14
ENDBRANCH   1   5
BRANCH   2  17
HETATM   17  C   UNL     1     -41.913  54.607 -55.180  1.00  0.00     0.105 C 
BRANCH  17  18
HETATM   18  C   UNL     1     -42.508  54.222 -53.827  1.00  0.00     0.036 C 
BRANCH  18  19
HETATM   19  C   UNL     1     -41.461  54.043 -52.727  1.00  0.00     0.176 C 
BRANCH  19  20
HETATM   20  O   UNL     1     -40.295  53.476 -53.334  1.00  0.00    -0.350 OA
BRANCH  20  21
HETATM   21  C   UNL     1     -40.039  52.162 -53.070  1.00  0.00     0.086 A 
HETATM   22  C   UNL     1     -39.691  51.602 -51.847  1.00  0.00     0.152 A 
HETATM   23  N   UNL     1     -39.461  50.278 -51.652  1.00  0.00    -0.270 NA
HETATM   24  C   UNL     1     -39.574  49.478 -52.733  1.00  0.00     0.116 A 
HETATM   25  C   UNL     1     -39.910  49.937 -53.996  1.00  0.00     0.022 A 
HETATM   26  C   UNL     1     -40.147  51.300 -54.159  1.00  0.00     0.039 A 
ENDBRANCH  20  21
ENDBRANCH  19  20
ENDBRANCH  18  19
ENDBRANCH  17  18
ENDBRANCH   2  17
TORSDOF 8
ENDMDL
MODEL 7
REMARK VINA RESULT:      -6.8      3.613      7.990
REMARK  8 active torsions:
REMARK  status: ('A' for Active; 'I' for Inactive)
REMARK    1  A    between atoms: C_3  and  N_4 
REMARK       I    between atoms: N_4  and  C_5 
REMARK    2  A    between atoms: C_5  and  C_6 
REMARK    3  A    between atoms: C_6  and  C_7 
REMARK    4  A    between atoms: C_7  and  C_8 
REMARK    5  A    between atoms: C_8  and  O_9 
REMARK    6  A    between atoms: O_9  and  C_10 
REMARK    7  A    between atoms: C_18  and  C_19 
REMARK    8  A    between atoms: C_22  and  O_23 
ROOT
HETATM    1  N   UNL     1     -41.429  54.589 -55.187  1.00  0.00    -0.327 N 
HETATM    2  C   UNL     1     -42.736  54.695 -55.640  1.00  0.00     0.222 C 
HETATM    3  O   UNL     1     -43.736  54.262 -55.083  1.00  0.00    -0.273 OA
HETATM    4  H   UNL     1     -40.799  55.302 -55.530  1.00  0.00     0.169 HD
ENDROOT
BRANCH   1   5
HETATM    5  C   UNL     1     -40.997  53.893 -54.032  1.00  0.00     0.041 A 
HETATM    6  C   UNL     1     -41.081  54.369 -52.718  1.00  0.00    -0.033 A 
HETATM    7  C   UNL     1     -41.785  55.630 -52.303  1.00  0.00     0.050 C 
HETATM    8  C   UNL     1     -40.509  53.599 -51.692  1.00  0.00     0.046 A 
HETATM    9  C   UNL     1     -39.929  52.356 -51.949  1.00  0.00     0.072 A 
HETATM   10  C   UNL     1     -39.932  51.803 -53.235  1.00  0.00    -0.019 A 
HETATM   11  C   UNL     1     -40.480  52.598 -54.262  1.00  0.00     0.040 A 
BRANCH   9  12
HETATM   12  O   UNL     1     -39.390  51.733 -50.859  1.00  0.00    -0.360 OA
HETATM   13  H   UNL     1     -40.091  51.525 -50.224  1.00  0.00     0.217 HD
ENDBRANCH   9  12
BRANCH  10  14
HETATM   14  C   UNL     1     -39.380  50.407 -53.508  1.00  0.00     0.013 C 
HETATM   15  C   UNL     1     -39.787  49.434 -52.394  1.00  0.00     0.015 C 
HETATM   16  C   UNL     1     -39.764  49.793 -54.863  1.00  0.00     0.015 C 
ENDBRANCH  10  14
ENDBRANCH   1   5
BRANCH   2  17
HETATM   17  C   UNL     1     -42.821  55.516 -56.918  1.00  0.00     0.105 C 
BRANCH  17  18
HETATM   18  C   UNL     1     -43.398  56.915 -56.711  1.00  0.00     0.036 C 
BRANCH  18  19
HETATM   19  C   UNL     1     -42.925  57.932 -57.751  1.00  0.00     0.176 C 
BRANCH  19  20
HETATM   20  O   UNL     1     -44.064  58.302 -58.535  1.00  0.00    -0.350 OA
BRANCH  20  21
HETATM   21  C   UNL     1     -44.565  57.356 -59.381  1.00  0.00     0.086 A 
HETATM   22  C   UNL     1     -43.852  56.554 -60.265  1.00  0.00     0.152 A 
HETATM   23  N   UNL     1     -44.416  55.620 -61.072  1.00  0.00    -0.270 NA
HETATM   24  C   UNL     1     -45.757  55.487 -61.000  1.00  0.00     0.116 A 
HETATM   25  C   UNL     1     -46.559  56.239 -60.158  1.00  0.00     0.022 A 
HETATM   26  C   UNL     1     -45.947  57.185 -59.337  1.00  0.00     0.039 A 
ENDBRANCH  20  21
ENDBRANCH  19  20
ENDBRANCH  18  19
ENDBRANCH  17  18
ENDBRANCH   2  17
TORSDOF 8
ENDMDL
MODEL 8
REMARK VINA RESULT:      -6.8      1.998      2.516
REMARK  8 active torsions:
REMARK  status: ('A' for Active; 'I' for Inactive)
REMARK    1  A    between atoms: C_3  and  N_4 
REMARK       I    between atoms: N_4  and  C_5 
REMARK    2  A    between atoms: C_5  and  C_6 
REMARK    3  A    between atoms: C_6  and  C_7 
REMARK    4  A    between atoms: C_7  and  C_8 
REMARK    5  A    between atoms: C_8  and  O_9 
REMARK    6  A    between atoms: O_9  and  C_10 
REMARK    7  A    between atoms: C_18  and  C_19 
REMARK    8  A    between atoms: C_22  and  O_23 
ROOT
HETATM    1  N   UNL     1     -42.559  56.185 -51.508  1.00  0.00    -0.327 N 
HETATM    2  C   UNL     1     -41.512  56.813 -50.849  1.00  0.00     0.222 C 
HETATM    3  O   UNL     1     -41.169  57.982 -50.978  1.00  0.00    -0.273 OA
HETATM    4  H   UNL     1     -42.947  55.384 -51.026  1.00  0.00     0.169 HD
ENDROOT
BRANCH   1   5
HETATM    5  C   UNL     1     -43.381  56.755 -52.510  1.00  0.00     0.041 A 
HETATM    6  C   UNL     1     -44.469  57.607 -52.280  1.00  0.00    -0.033 A 
HETATM    7  C   UNL     1     -44.847  58.180 -50.943  1.00  0.00     0.050 C 
HETATM    8  C   UNL     1     -45.249  58.003 -53.380  1.00  0.00     0.046 A 
HETATM    9  C   UNL     1     -44.922  57.623 -54.681  1.00  0.00     0.072 A 
HETATM   10  C   UNL     1     -43.775  56.866 -54.953  1.00  0.00    -0.019 A 
HETATM   11  C   UNL     1     -43.018  56.447 -53.840  1.00  0.00     0.040 A 
BRANCH   9  12
HETATM   12  O   UNL     1     -45.786  58.060 -55.646  1.00  0.00    -0.360 OA
HETATM   13  H   UNL     1     -46.398  57.347 -55.880  1.00  0.00     0.217 HD
ENDBRANCH   9  12
BRANCH  10  14
HETATM   14  C   UNL     1     -43.362  56.521 -56.380  1.00  0.00     0.013 C 
HETATM   15  C   UNL     1     -42.433  57.600 -56.953  1.00  0.00     0.015 C 
HETATM   16  C   UNL     1     -42.698  55.149 -56.569  1.00  0.00     0.015 C 
ENDBRANCH  10  14
ENDBRANCH   1   5
BRANCH   2  17
HETATM   17  C   UNL     1     -40.851  55.888 -49.838  1.00  0.00     0.105 C 
BRANCH  17  18
HETATM   18  C   UNL     1     -41.628  54.597 -49.589  1.00  0.00     0.036 C 
BRANCH  18  19
HETATM   19  C   UNL     1     -40.783  53.334 -49.753  1.00  0.00     0.176 C 
BRANCH  19  20
HETATM   20  O   UNL     1     -39.838  53.584 -50.800  1.00  0.00    -0.350 OA
BRANCH  20  21
HETATM   21  C   UNL     1     -39.964  52.838 -51.935  1.00  0.00     0.086 A 
HETATM   22  C   UNL     1     -39.516  51.538 -52.142  1.00  0.00     0.152 A 
HETATM   23  N   UNL     1     -39.686  50.848 -53.298  1.00  0.00    -0.270 NA
HETATM   24  C   UNL     1     -40.324  51.490 -54.299  1.00  0.00     0.116 A 
HETATM   25  C   UNL     1     -40.803  52.785 -54.197  1.00  0.00     0.022 A 
HETATM   26  C   UNL     1     -40.618  53.463 -52.994  1.00  0.00     0.039 A 
ENDBRANCH  20  21
ENDBRANCH  19  20
ENDBRANCH  18  19
ENDBRANCH  17  18
ENDBRANCH   2  17
TORSDOF 8
ENDMDL
MODEL 9
REMARK VINA RESULT:      -6.6      2.225      7.087
REMARK  8 active torsions:
REMARK  status: ('A' for Active; 'I' for Inactive)
REMARK    1  A    between atoms: C_3  and  N_4 
REMARK       I    between atoms: N_4  and  C_5 
REMARK    2  A    between atoms: C_5  and  C_6 
REMARK    3  A    between atoms: C_6  and  C_7 
REMARK    4  A    between atoms: C_7  and  C_8 
REMARK    5  A    between atoms: C_8  and  O_9 
REMARK    6  A    between atoms: O_9  and  C_10 
REMARK    7  A    between atoms: C_18  and  C_19 
REMARK    8  A    between atoms: C_22  and  O_23 
ROOT
HETATM    1  N   UNL     1     -41.056  55.268 -51.892  1.00  0.00    -0.327 N 
HETATM    2  C   UNL     1     -42.366  55.700 -51.743  1.00  0.00     0.222 C 
HETATM    3  O   UNL     1     -43.371  55.126 -52.142  1.00  0.00    -0.273 OA
HETATM    4  H   UNL     1     -40.408  55.621 -51.201  1.00  0.00     0.169 HD
ENDROOT
BRANCH   1   5
HETATM    5  C   UNL     1     -40.629  54.119 -52.602  1.00  0.00     0.041 A 
HETATM    6  C   UNL     1     -40.522  54.018 -53.995  1.00  0.00    -0.033 A 
HETATM    7  C   UNL     1     -40.695  55.160 -54.956  1.00  0.00     0.050 C 
HETATM    8  C   UNL     1     -40.183  52.772 -54.548  1.00  0.00     0.046 A 
HETATM    9  C   UNL     1     -39.889  51.672 -53.744  1.00  0.00     0.072 A 
HETATM   10  C   UNL     1     -39.877  51.773 -52.347  1.00  0.00    -0.019 A 
HETATM   11  C   UNL     1     -40.249  53.018 -51.802  1.00  0.00     0.040 A 
BRANCH   9  12
HETATM   12  O   UNL     1     -39.603  50.520 -54.421  1.00  0.00    -0.360 OA
HETATM   13  H   UNL     1     -39.940  49.760 -53.926  1.00  0.00     0.217 HD
ENDBRANCH   9  12
BRANCH  10  14
HETATM   14  C   UNL     1     -39.471  50.598 -51.463  1.00  0.00     0.013 C 
HETATM   15  C   UNL     1     -40.196  50.659 -50.111  1.00  0.00     0.015 C 
HETATM   16  C   UNL     1     -39.678  49.203 -52.071  1.00  0.00     0.015 C 
ENDBRANCH  10  14
ENDBRANCH   1   5
BRANCH   2  17
HETATM   17  C   UNL     1     -42.443  56.977 -50.919  1.00  0.00     0.105 C 
BRANCH  17  18
HETATM   18  C   UNL     1     -41.083  57.618 -50.654  1.00  0.00     0.036 C 
BRANCH  18  19
HETATM   19  C   UNL     1     -41.092  59.143 -50.769  1.00  0.00     0.176 C 
BRANCH  19  20
HETATM   20  O   UNL     1     -40.558  59.478 -52.054  1.00  0.00    -0.350 OA
BRANCH  20  21
HETATM   21  C   UNL     1     -41.452  59.645 -53.070  1.00  0.00     0.086 A 
HETATM   22  C   UNL     1     -42.431  60.626 -53.177  1.00  0.00     0.152 A 
HETATM   23  N   UNL     1     -43.284  60.742 -54.227  1.00  0.00    -0.270 NA
HETATM   24  C   UNL     1     -43.160  59.827 -55.212  1.00  0.00     0.116 A 
HETATM   25  C   UNL     1     -42.222  58.808 -55.199  1.00  0.00     0.022 A 
HETATM   26  C   UNL     1     -41.358  58.723 -54.110  1.00  0.00     0.039 A 
ENDBRANCH  20  21
ENDBRANCH  19  20
ENDBRANCH  18  19
ENDBRANCH  17  18
ENDBRANCH   2  17
TORSDOF 8
ENDMDL
MODEL 10
REMARK VINA RESULT:      -6.6      3.201      7.020
REMARK  8 active torsions:
REMARK  status: ('A' for Active; 'I' for Inactive)
REMARK    1  A    between atoms: C_3  and  N_4 
REMARK       I    between atoms: N_4  and  C_5 
REMARK    2  A    between atoms: C_5  and  C_6 
REMARK    3  A    between atoms: C_6  and  C_7 
REMARK    4  A    between atoms: C_7  and  C_8 
REMARK    5  A    between atoms: C_8  and  O_9 
REMARK    6  A    between atoms: O_9  and  C_10 
REMARK    7  A    between atoms: C_18  and  C_19 
REMARK    8  A    between atoms: C_22  and  O_23 
ROOT
HETATM    1  N   UNL     1     -44.112  55.717 -53.308  1.00  0.00    -0.327 N 
HETATM    2  C   UNL     1     -43.990  57.086 -53.501  1.00  0.00     0.222 C 
HETATM    3  O   UNL     1     -43.021  57.777 -53.213  1.00  0.00    -0.273 OA
HETATM    4  H   UNL     1     -44.766  55.256 -53.926  1.00  0.00     0.169 HD
ENDROOT
BRANCH   1   5
HETATM    5  C   UNL     1     -43.168  54.873 -52.674  1.00  0.00     0.041 A 
HETATM    6  C   UNL     1     -43.156  54.547 -51.312  1.00  0.00    -0.033 A 
HETATM    7  C   UNL     1     -44.231  54.916 -50.329  1.00  0.00     0.050 C 
HETATM    8  C   UNL     1     -42.087  53.780 -50.820  1.00  0.00     0.046 A 
HETATM    9  C   UNL     1     -41.092  53.288 -51.665  1.00  0.00     0.072 A 
HETATM   10  C   UNL     1     -41.140  53.501 -53.048  1.00  0.00    -0.019 A 
HETATM   11  C   UNL     1     -42.199  54.299 -53.527  1.00  0.00     0.040 A 
BRANCH   9  12
HETATM   12  O   UNL     1     -40.103  52.580 -51.042  1.00  0.00    -0.360 OA
HETATM   13  H   UNL     1     -39.301  53.119 -50.992  1.00  0.00     0.217 HD
ENDBRANCH   9  12
BRANCH  10  14
HETATM   14  C   UNL     1     -40.105  52.891 -53.989  1.00  0.00     0.013 C 
HETATM   15  C   UNL     1     -40.414  51.411 -54.252  1.00  0.00     0.015 C 
HETATM   16  C   UNL     1     -39.930  53.605 -55.338  1.00  0.00     0.015 C 
ENDBRANCH  10  14
ENDBRANCH   1   5
BRANCH   2  17
HETATM   17  C   UNL     1     -45.204  57.661 -54.215  1.00  0.00     0.105 C 
BRANCH  17  18
HETATM   18  C   UNL     1     -44.868  58.804 -55.171  1.00  0.00     0.036 C 
BRANCH  18  19
HETATM   19  C   UNL     1     -45.009  58.429 -56.646  1.00  0.00     0.176 C 
BRANCH  19  20
HETATM   20  O   UNL     1     -44.199  57.270 -56.872  1.00  0.00    -0.350 OA
BRANCH  20  21
HETATM   21  C   UNL     1     -43.446  57.255 -58.009  1.00  0.00     0.086 A 
HETATM   22  C   UNL     1     -43.233  56.179 -58.863  1.00  0.00     0.152 A 
HETATM   23  N   UNL     1     -42.478  56.237 -59.990  1.00  0.00    -0.270 NA
HETATM   24  C   UNL     1     -41.901  57.425 -60.271  1.00  0.00     0.116 A 
HETATM   25  C   UNL     1     -42.046  58.554 -59.484  1.00  0.00     0.022 A 
HETATM   26  C   UNL     1     -42.833  58.461 -58.338  1.00  0.00     0.039 A 
ENDBRANCH  20  21
ENDBRANCH  19  20
ENDBRANCH  18  19
ENDBRANCH  17  18
ENDBRANCH   2  17
TORSDOF 8
ENDMDL
