MODEL 1
REMARK VINA RESULT:     -10.3      0.000      0.000
REMARK  4 active torsions:
REMARK  status: ('A' for Active; 'I' for Inactive)
REMARK    1  A    between atoms: C_2  and  C_3 
REMARK    2  A    between atoms: C_2  and  C_19 
REMARK       I    between atoms: C_3  and  N_4 
REMARK    3  A    between atoms: N_4  and  C_5 
REMARK    4  A    between atoms: C_12  and  C_13 
REMARK       I    between atoms: C_13  and  N_14 
ROOT
HETATM    1  C   UNL     1     -42.161  55.689 -54.870  1.00  0.00     0.230 C 
HETATM    2  N   UNL     1     -41.912  56.445 -56.003  1.00  0.00    -0.327 N 
HETATM    3  O   UNL     1     -43.237  55.168 -54.583  1.00  0.00    -0.272 OA
HETATM    4  H   UNL     1     -40.949  56.670 -56.206  1.00  0.00     0.169 HD
ENDROOT
BRANCH   2   5
HETATM    5  C   UNL     1     -42.865  56.907 -56.935  1.00  0.00     0.035 A 
HETATM    6  C   UNL     1     -43.327  56.132 -58.008  1.00  0.00     0.046 A 
HETATM    7  C   UNL     1     -44.328  56.648 -58.858  1.00  0.00     0.030 A 
HETATM    8  C   UNL     1     -44.808  57.932 -58.628  1.00  0.00     0.063 A 
HETATM    9  C   UNL     1     -45.076  56.169 -59.976  1.00  0.00     0.156 A 
HETATM   10  N   UNL     1     -45.733  58.153 -59.609  1.00  0.00    -0.277 N 
HETATM   11  C   UNL     1     -44.364  58.734 -57.576  1.00  0.00     0.034 A 
HETATM   12  H   UNL     1     -46.279  58.994 -59.759  1.00  0.00     0.189 HD
HETATM   13  N   UNL     1     -45.932  57.112 -60.433  1.00  0.00    -0.168 NA
HETATM   14  C   UNL     1     -43.398  58.185 -56.722  1.00  0.00     0.032 A 
BRANCH   9  15
HETATM   15  C   UNL     1     -45.009  54.837 -60.595  1.00  0.00     0.270 C 
HETATM   16  N   UNL     1     -45.082  53.803 -59.702  1.00  0.00    -0.365 N 
HETATM   17  H   UNL     1     -45.144  54.019 -58.714  1.00  0.00     0.159 HD
HETATM   18  H   UNL     1     -44.999  52.854 -60.031  1.00  0.00     0.159 HD
HETATM   19  O   UNL     1     -44.880  54.629 -61.796  1.00  0.00    -0.266 OA
ENDBRANCH   9  15
ENDBRANCH   2   5
BRANCH   1  20
HETATM   20  C   UNL     1     -40.957  55.537 -53.925  1.00  0.00     0.107 C 
HETATM   21  C   UNL     1     -41.138  56.371 -52.653  1.00  0.00     0.025 C 
BRANCH  20  22
HETATM   22  C   UNL     1     -40.601  54.068 -53.728  1.00  0.00    -0.044 A 
HETATM   23  C   UNL     1     -40.535  53.569 -52.412  1.00  0.00     0.020 A 
HETATM   24  C   UNL     1     -40.215  52.229 -52.140  1.00  0.00    -0.025 A 
HETATM   25  C   UNL     1     -39.962  51.351 -53.214  1.00  0.00    -0.026 A 
HETATM   26  C   UNL     1     -40.143  51.747 -50.823  1.00  0.00     0.012 A 
HETATM   27  C   UNL     1     -40.034  51.842 -54.527  1.00  0.00     0.013 A 
HETATM   28  C   UNL     1     -39.646  50.009 -52.942  1.00  0.00     0.012 A 
HETATM   29  C   UNL     1     -40.350  53.181 -54.782  1.00  0.00     0.009 A 
HETATM   30  C   UNL     1     -39.580  49.543 -51.627  1.00  0.00     0.001 A 
HETATM   31  C   UNL     1     -39.828  50.412 -50.569  1.00  0.00     0.001 A 
ENDBRANCH  20  22
ENDBRANCH   1  20
TORSDOF 4
ENDMDL
MODEL 2
REMARK VINA RESULT:      -9.7      1.615      2.203
REMARK  4 active torsions:
REMARK  status: ('A' for Active; 'I' for Inactive)
REMARK    1  A    between atoms: C_2  and  C_3 
REMARK    2  A    between atoms: C_2  and  C_19 
REMARK       I    between atoms: C_3  and  N_4 
REMARK    3  A    between atoms: N_4  and  C_5 
REMARK    4  A    between atoms: C_12  and  C_13 
REMARK       I    between atoms: C_13  and  N_14 
ROOT
HETATM    1  C   UNL     1     -41.485  56.336 -53.933  1.00  0.00     0.230 C 
HETATM    2  N   UNL     1     -42.607  56.551 -54.714  1.00  0.00    -0.327 N 
HETATM    3  O   UNL     1     -40.323  56.533 -54.284  1.00  0.00    -0.272 OA
HETATM    4  H   UNL     1     -43.505  56.515 -54.253  1.00  0.00     0.169 HD
ENDROOT
BRANCH   2   5
HETATM    5  C   UNL     1     -42.630  56.855 -56.092  1.00  0.00     0.035 A 
HETATM    6  C   UNL     1     -43.137  55.980 -57.062  1.00  0.00     0.046 A 
HETATM    7  C   UNL     1     -43.179  56.388 -58.413  1.00  0.00     0.030 A 
HETATM    8  C   UNL     1     -42.683  57.641 -58.751  1.00  0.00     0.063 A 
HETATM    9  C   UNL     1     -43.658  55.837 -59.639  1.00  0.00     0.156 A 
HETATM   10  N   UNL     1     -42.838  57.738 -60.105  1.00  0.00    -0.277 N 
HETATM   11  C   UNL     1     -42.162  58.533 -57.812  1.00  0.00     0.034 A 
HETATM   12  H   UNL     1     -42.572  58.515 -60.699  1.00  0.00     0.189 HD
HETATM   13  N   UNL     1     -43.432  56.677 -60.675  1.00  0.00    -0.168 NA
HETATM   14  C   UNL     1     -42.167  58.121 -56.473  1.00  0.00     0.032 A 
BRANCH   9  15
HETATM   15  C   UNL     1     -44.340  54.550 -59.838  1.00  0.00     0.270 C 
HETATM   16  N   UNL     1     -44.922  54.412 -61.069  1.00  0.00    -0.365 N 
HETATM   17  H   UNL     1     -44.870  55.186 -61.719  1.00  0.00     0.159 HD
HETATM   18  H   UNL     1     -45.452  53.580 -61.278  1.00  0.00     0.159 HD
HETATM   19  O   UNL     1     -44.420  53.663 -58.996  1.00  0.00    -0.266 OA
ENDBRANCH   9  15
ENDBRANCH   2   5
BRANCH   1  20
HETATM   20  C   UNL     1     -41.779  55.794 -52.524  1.00  0.00     0.107 C 
HETATM   21  C   UNL     1     -43.268  55.911 -52.181  1.00  0.00     0.025 C 
BRANCH  20  22
HETATM   22  C   UNL     1     -41.141  54.424 -52.323  1.00  0.00    -0.044 A 
HETATM   23  C   UNL     1     -41.125  53.531 -53.412  1.00  0.00     0.020 A 
HETATM   24  C   UNL     1     -40.556  52.250 -53.314  1.00  0.00    -0.025 A 
HETATM   25  C   UNL     1     -39.975  51.847 -52.095  1.00  0.00    -0.026 A 
HETATM   26  C   UNL     1     -40.556  51.365 -54.405  1.00  0.00     0.012 A 
HETATM   27  C   UNL     1     -39.982  52.737 -51.010  1.00  0.00     0.013 A 
HETATM   28  C   UNL     1     -39.402  50.568 -51.998  1.00  0.00     0.012 A 
HETATM   29  C   UNL     1     -40.556  54.009 -51.121  1.00  0.00     0.009 A 
HETATM   30  C   UNL     1     -39.407  49.699 -53.092  1.00  0.00     0.001 A 
HETATM   31  C   UNL     1     -39.985  50.098 -54.294  1.00  0.00     0.001 A 
ENDBRANCH  20  22
ENDBRANCH   1  20
TORSDOF 4
ENDMDL
MODEL 3
REMARK VINA RESULT:      -9.5      1.348      2.176
REMARK  4 active torsions:
REMARK  status: ('A' for Active; 'I' for Inactive)
REMARK    1  A    between atoms: C_2  and  C_3 
REMARK    2  A    between atoms: C_2  and  C_19 
REMARK       I    between atoms: C_3  and  N_4 
REMARK    3  A    between atoms: N_4  and  C_5 
REMARK    4  A    between atoms: C_12  and  C_13 
REMARK       I    between atoms: C_13  and  N_14 
ROOT
HETATM    1  C   UNL     1     -42.340  55.963 -53.056  1.00  0.00     0.230 C 
HETATM    2  N   UNL     1     -42.005  56.806 -54.102  1.00  0.00    -0.327 N 
HETATM    3  O   UNL     1     -43.417  55.383 -52.924  1.00  0.00    -0.272 OA
HETATM    4  H   UNL     1     -41.036  57.080 -54.182  1.00  0.00     0.169 HD
ENDROOT
BRANCH   2   5
HETATM    5  C   UNL     1     -42.871  57.296 -55.101  1.00  0.00     0.035 A 
HETATM    6  C   UNL     1     -42.947  56.747 -56.388  1.00  0.00     0.046 A 
HETATM    7  C   UNL     1     -43.886  57.258 -57.309  1.00  0.00     0.030 A 
HETATM    8  C   UNL     1     -44.692  58.323 -56.924  1.00  0.00     0.063 A 
HETATM    9  C   UNL     1     -44.299  56.944 -58.639  1.00  0.00     0.156 A 
HETATM   10  N   UNL     1     -45.466  58.603 -58.014  1.00  0.00    -0.277 N 
HETATM   11  C   UNL     1     -44.636  58.900 -55.655  1.00  0.00     0.034 A 
HETATM   12  H   UNL     1     -46.165  59.332 -58.100  1.00  0.00     0.189 HD
HETATM   13  N   UNL     1     -45.268  57.788 -59.063  1.00  0.00    -0.168 NA
HETATM   14  C   UNL     1     -43.724  58.350 -54.745  1.00  0.00     0.032 A 
BRANCH   9  15
HETATM   15  C   UNL     1     -43.811  55.853 -59.495  1.00  0.00     0.270 C 
HETATM   16  N   UNL     1     -44.404  54.645 -59.250  1.00  0.00    -0.365 N 
HETATM   17  H   UNL     1     -45.087  54.583 -58.506  1.00  0.00     0.159 HD
HETATM   18  H   UNL     1     -44.099  53.830 -59.758  1.00  0.00     0.159 HD
HETATM   19  O   UNL     1     -42.940  55.970 -60.350  1.00  0.00    -0.266 OA
ENDBRANCH   9  15
ENDBRANCH   2   5
BRANCH   1  20
HETATM   20  C   UNL     1     -41.240  55.790 -51.995  1.00  0.00     0.107 C 
HETATM   21  C   UNL     1     -41.624  56.469 -50.677  1.00  0.00     0.025 C 
BRANCH  20  22
HETATM   22  C   UNL     1     -40.794  54.335 -51.905  1.00  0.00    -0.044 A 
HETATM   23  C   UNL     1     -40.695  53.594 -53.099  1.00  0.00     0.020 A 
HETATM   24  C   UNL     1     -40.291  52.249 -53.107  1.00  0.00    -0.025 A 
HETATM   25  C   UNL     1     -39.963  51.621 -51.888  1.00  0.00    -0.026 A 
HETATM   26  C   UNL     1     -40.207  51.518 -54.304  1.00  0.00     0.012 A 
HETATM   27  C   UNL     1     -40.052  52.359 -50.697  1.00  0.00     0.013 A 
HETATM   28  C   UNL     1     -39.554  50.277 -51.897  1.00  0.00     0.012 A 
HETATM   29  C   UNL     1     -40.461  53.697 -50.704  1.00  0.00     0.009 A 
HETATM   30  C   UNL     1     -39.473  49.563 -53.095  1.00  0.00     0.001 A 
HETATM   31  C   UNL     1     -39.800  50.184 -54.297  1.00  0.00     0.001 A 
ENDBRANCH  20  22
ENDBRANCH   1  20
TORSDOF 4
ENDMDL
MODEL 4
REMARK VINA RESULT:      -9.4      1.729      2.846
REMARK  4 active torsions:
REMARK  status: ('A' for Active; 'I' for Inactive)
REMARK    1  A    between atoms: C_2  and  C_3 
REMARK    2  A    between atoms: C_2  and  C_19 
REMARK       I    between atoms: C_3  and  N_4 
REMARK    3  A    between atoms: N_4  and  C_5 
REMARK    4  A    between atoms: C_12  and  C_13 
REMARK       I    between atoms: C_13  and  N_14 
ROOT
HETATM    1  C   UNL     1     -42.325  55.727 -55.585  1.00  0.00     0.230 C 
HETATM    2  N   UNL     1     -42.165  56.212 -56.872  1.00  0.00    -0.327 N 
HETATM    3  O   UNL     1     -43.319  55.141 -55.162  1.00  0.00    -0.272 OA
HETATM    4  H   UNL     1     -41.241  56.518 -57.140  1.00  0.00     0.169 HD
ENDROOT
BRANCH   2   5
HETATM    5  C   UNL     1     -43.156  56.289 -57.873  1.00  0.00     0.035 A 
HETATM    6  C   UNL     1     -44.235  57.183 -57.818  1.00  0.00     0.046 A 
HETATM    7  C   UNL     1     -45.149  57.239 -58.892  1.00  0.00     0.030 A 
HETATM    8  C   UNL     1     -44.974  56.375 -59.966  1.00  0.00     0.063 A 
HETATM    9  C   UNL     1     -46.293  58.022 -59.230  1.00  0.00     0.156 A 
HETATM   10  N   UNL     1     -46.006  56.645 -60.819  1.00  0.00    -0.277 N 
HETATM   11  C   UNL     1     -43.917  55.467 -60.050  1.00  0.00     0.034 A 
HETATM   12  H   UNL     1     -46.205  56.195 -61.705  1.00  0.00     0.189 HD
HETATM   13  N   UNL     1     -46.816  57.638 -60.417  1.00  0.00    -0.168 NA
HETATM   14  C   UNL     1     -43.001  55.457 -58.990  1.00  0.00     0.032 A 
BRANCH   9  15
HETATM   15  C   UNL     1     -46.877  59.133 -58.464  1.00  0.00     0.270 C 
HETATM   16  N   UNL     1     -47.542  58.743 -57.334  1.00  0.00    -0.365 N 
HETATM   17  H   UNL     1     -47.609  57.754 -57.129  1.00  0.00     0.159 HD
HETATM   18  H   UNL     1     -48.014  59.433 -56.772  1.00  0.00     0.159 HD
HETATM   19  O   UNL     1     -46.812  60.315 -58.785  1.00  0.00    -0.266 OA
ENDBRANCH   9  15
ENDBRANCH   2   5
BRANCH   1  20
HETATM   20  C   UNL     1     -41.131  55.987 -54.651  1.00  0.00     0.107 C 
HETATM   21  C   UNL     1     -41.310  57.289 -53.865  1.00  0.00     0.025 C 
BRANCH  20  22
HETATM   22  C   UNL     1     -40.795  54.743 -53.837  1.00  0.00    -0.044 A 
HETATM   23  C   UNL     1     -40.523  53.546 -54.530  1.00  0.00     0.020 A 
HETATM   24  C   UNL     1     -40.204  52.355 -53.858  1.00  0.00    -0.025 A 
HETATM   25  C   UNL     1     -40.143  52.354 -52.450  1.00  0.00    -0.026 A 
HETATM   26  C   UNL     1     -39.945  51.167 -54.561  1.00  0.00     0.012 A 
HETATM   27  C   UNL     1     -40.405  53.545 -51.756  1.00  0.00     0.013 A 
HETATM   28  C   UNL     1     -39.819  51.163 -51.779  1.00  0.00     0.012 A 
HETATM   29  C   UNL     1     -40.725  54.725 -52.439  1.00  0.00     0.009 A 
HETATM   30  C   UNL     1     -39.562  49.989 -52.490  1.00  0.00     0.001 A 
HETATM   31  C   UNL     1     -39.626  49.991 -53.881  1.00  0.00     0.001 A 
ENDBRANCH  20  22
ENDBRANCH   1  20
TORSDOF 4
ENDMDL
MODEL 5
REMARK VINA RESULT:      -9.3      1.696      2.034
REMARK  4 active torsions:
REMARK  status: ('A' for Active; 'I' for Inactive)
REMARK    1  A    between atoms: C_2  and  C_3 
REMARK    2  A    between atoms: C_2  and  C_19 
REMARK       I    between atoms: C_3  and  N_4 
REMARK    3  A    between atoms: N_4  and  C_5 
REMARK    4  A    between atoms: C_12  and  C_13 
REMARK       I    between atoms: C_13  and  N_14 
ROOT
HETATM    1  C   UNL     1     -41.798  56.847 -53.310  1.00  0.00     0.230 C 
HETATM    2  N   UNL     1     -43.033  56.523 -53.846  1.00  0.00    -0.327 N 
HETATM    3  O   UNL     1     -41.095  57.794 -53.660  1.00  0.00    -0.272 OA
HETATM    4  H   UNL     1     -43.582  55.831 -53.357  1.00  0.00     0.169 HD
ENDROOT
BRANCH   2   5
HETATM    5  C   UNL     1     -43.630  57.090 -54.992  1.00  0.00     0.035 A 
HETATM    6  C   UNL     1     -43.200  56.815 -56.297  1.00  0.00     0.046 A 
HETATM    7  C   UNL     1     -43.893  57.377 -57.391  1.00  0.00     0.030 A 
HETATM    8  C   UNL     1     -44.968  58.220 -57.142  1.00  0.00     0.063 A 
HETATM    9  C   UNL     1     -43.810  57.293 -58.814  1.00  0.00     0.156 A 
HETATM   10  N   UNL     1     -45.410  58.615 -58.373  1.00  0.00    -0.277 N 
HETATM   11  C   UNL     1     -45.417  58.524 -55.856  1.00  0.00     0.034 A 
HETATM   12  H   UNL     1     -46.177  59.246 -58.577  1.00  0.00     0.189 HD
HETATM   13  N   UNL     1     -44.746  58.070 -59.405  1.00  0.00    -0.168 NA
HETATM   14  C   UNL     1     -44.738  57.924 -54.787  1.00  0.00     0.032 A 
BRANCH   9  15
HETATM   15  C   UNL     1     -42.881  56.479 -59.612  1.00  0.00     0.270 C 
HETATM   16  N   UNL     1     -41.660  57.061 -59.813  1.00  0.00    -0.365 N 
HETATM   17  H   UNL     1     -41.498  57.989 -59.439  1.00  0.00     0.159 HD
HETATM   18  H   UNL     1     -40.976  56.596 -60.388  1.00  0.00     0.159 HD
HETATM   19  O   UNL     1     -43.146  55.381 -60.088  1.00  0.00    -0.266 OA
ENDBRANCH   9  15
ENDBRANCH   2   5
BRANCH   1  20
HETATM   20  C   UNL     1     -41.314  55.900 -52.200  1.00  0.00     0.107 C 
HETATM   21  C   UNL     1     -42.290  55.880 -51.019  1.00  0.00     0.025 C 
BRANCH  20  22
HETATM   22  C   UNL     1     -40.914  54.546 -52.774  1.00  0.00    -0.044 A 
HETATM   23  C   UNL     1     -40.580  53.514 -51.874  1.00  0.00     0.020 A 
HETATM   24  C   UNL     1     -40.202  52.236 -52.317  1.00  0.00    -0.025 A 
HETATM   25  C   UNL     1     -40.164  51.970 -53.701  1.00  0.00    -0.026 A 
HETATM   26  C   UNL     1     -39.860  51.219 -51.410  1.00  0.00     0.012 A 
HETATM   27  C   UNL     1     -40.505  52.993 -54.600  1.00  0.00     0.013 A 
HETATM   28  C   UNL     1     -39.790  50.690 -54.144  1.00  0.00     0.012 A 
HETATM   29  C   UNL     1     -40.876  54.263 -54.144  1.00  0.00     0.009 A 
HETATM   30  C   UNL     1     -39.456  49.688 -53.230  1.00  0.00     0.001 A 
HETATM   31  C   UNL     1     -39.490  49.954 -51.864  1.00  0.00     0.001 A 
ENDBRANCH  20  22
ENDBRANCH   1  20
TORSDOF 4
ENDMDL
MODEL 6
REMARK VINA RESULT:      -9.2      1.720      2.570
REMARK  4 active torsions:
REMARK  status: ('A' for Active; 'I' for Inactive)
REMARK    1  A    between atoms: C_2  and  C_3 
REMARK    2  A    between atoms: C_2  and  C_19 
REMARK       I    between atoms: C_3  and  N_4 
REMARK    3  A    between atoms: N_4  and  C_5 
REMARK    4  A    between atoms: C_12  and  C_13 
REMARK       I    between atoms: C_13  and  N_14 
ROOT
HETATM    1  C   UNL     1     -42.331  55.726 -55.148  1.00  0.00     0.230 C 
HETATM    2  N   UNL     1     -42.006  56.189 -56.412  1.00  0.00    -0.327 N 
HETATM    3  O   UNL     1     -43.448  55.359 -54.789  1.00  0.00    -0.272 OA
HETATM    4  H   UNL     1     -41.025  56.295 -56.627  1.00  0.00     0.169 HD
ENDROOT
BRANCH   2   5
HETATM    5  C   UNL     1     -42.905  56.496 -57.455  1.00  0.00     0.035 A 
HETATM    6  C   UNL     1     -43.811  57.563 -57.396  1.00  0.00     0.046 A 
HETATM    7  C   UNL     1     -44.634  57.839 -58.510  1.00  0.00     0.030 A 
HETATM    8  C   UNL     1     -44.548  57.019 -59.627  1.00  0.00     0.063 A 
HETATM    9  C   UNL     1     -45.601  58.832 -58.854  1.00  0.00     0.156 A 
HETATM   10  N   UNL     1     -45.463  57.514 -60.512  1.00  0.00    -0.277 N 
HETATM   11  C   UNL     1     -43.664  55.942 -59.715  1.00  0.00     0.034 A 
HETATM   12  H   UNL     1     -45.682  57.155 -61.434  1.00  0.00     0.189 HD
HETATM   13  N   UNL     1     -46.109  58.613 -60.089  1.00  0.00    -0.168 NA
HETATM   14  C   UNL     1     -42.830  55.711 -58.613  1.00  0.00     0.032 A 
BRANCH   9  15
HETATM   15  C   UNL     1     -46.027  59.986 -58.049  1.00  0.00     0.270 C 
HETATM   16  N   UNL     1     -46.835  59.662 -56.994  1.00  0.00    -0.365 N 
HETATM   17  H   UNL     1     -47.097  58.693 -56.865  1.00  0.00     0.159 HD
HETATM   18  H   UNL     1     -47.213  60.394 -56.414  1.00  0.00     0.159 HD
HETATM   19  O   UNL     1     -45.723  61.151 -58.281  1.00  0.00    -0.266 OA
ENDBRANCH   9  15
ENDBRANCH   2   5
BRANCH   1  20
HETATM   20  C   UNL     1     -41.159  55.705 -54.153  1.00  0.00     0.107 C 
HETATM   21  C   UNL     1     -41.432  56.613 -52.950  1.00  0.00     0.025 C 
BRANCH  20  22
HETATM   22  C   UNL     1     -40.733  54.275 -53.841  1.00  0.00    -0.044 A 
HETATM   23  C   UNL     1     -40.714  53.865 -52.493  1.00  0.00     0.020 A 
HETATM   24  C   UNL     1     -40.336  52.565 -52.118  1.00  0.00    -0.025 A 
HETATM   25  C   UNL     1     -39.974  51.638 -53.116  1.00  0.00    -0.026 A 
HETATM   26  C   UNL     1     -40.311  52.172 -50.770  1.00  0.00     0.012 A 
HETATM   27  C   UNL     1     -39.999  52.040 -54.460  1.00  0.00     0.013 A 
HETATM   28  C   UNL     1     -39.600  50.337 -52.740  1.00  0.00     0.012 A 
HETATM   29  C   UNL     1     -40.375  53.340 -54.819  1.00  0.00     0.009 A 
HETATM   30  C   UNL     1     -39.583  49.959 -51.396  1.00  0.00     0.001 A 
HETATM   31  C   UNL     1     -39.937  50.877 -50.411  1.00  0.00     0.001 A 
ENDBRANCH  20  22
ENDBRANCH   1  20
TORSDOF 4
ENDMDL
MODEL 7
REMARK VINA RESULT:      -9.1      4.248      5.580
REMARK  4 active torsions:
REMARK  status: ('A' for Active; 'I' for Inactive)
REMARK    1  A    between atoms: C_2  and  C_3 
REMARK    2  A    between atoms: C_2  and  C_19 
REMARK       I    between atoms: C_3  and  N_4 
REMARK    3  A    between atoms: N_4  and  C_5 
REMARK    4  A    between atoms: C_12  and  C_13 
REMARK       I    between atoms: C_13  and  N_14 
ROOT
HETATM    1  C   UNL     1     -41.624  56.247 -50.622  1.00  0.00     0.230 C 
HETATM    2  N   UNL     1     -41.042  57.414 -51.087  1.00  0.00    -0.327 N 
HETATM    3  O   UNL     1     -42.832  56.057 -50.488  1.00  0.00    -0.272 OA
HETATM    4  H   UNL     1     -40.058  57.382 -51.311  1.00  0.00     0.169 HD
ENDROOT
BRANCH   2   5
HETATM    5  C   UNL     1     -41.690  58.646 -51.320  1.00  0.00     0.035 A 
HETATM    6  C   UNL     1     -42.484  58.893 -52.448  1.00  0.00     0.046 A 
HETATM    7  C   UNL     1     -43.148  60.133 -52.574  1.00  0.00     0.030 A 
HETATM    8  C   UNL     1     -42.968  61.093 -51.586  1.00  0.00     0.063 A 
HETATM    9  C   UNL     1     -44.057  60.723 -53.502  1.00  0.00     0.156 A 
HETATM   10  N   UNL     1     -43.705  62.170 -51.990  1.00  0.00    -0.277 N 
HETATM   11  C   UNL     1     -42.178  60.883 -50.454  1.00  0.00     0.034 A 
HETATM   12  H   UNL     1     -43.799  63.061 -51.517  1.00  0.00     0.189 HD
HETATM   13  N   UNL     1     -44.385  61.983 -53.133  1.00  0.00    -0.168 NA
HETATM   14  C   UNL     1     -41.560  59.631 -50.333  1.00  0.00     0.032 A 
BRANCH   9  15
HETATM   15  C   UNL     1     -44.634  60.108 -54.707  1.00  0.00     0.270 C 
HETATM   16  N   UNL     1     -45.972  60.342 -54.867  1.00  0.00    -0.365 N 
HETATM   17  H   UNL     1     -46.459  60.875 -54.156  1.00  0.00     0.159 HD
HETATM   18  H   UNL     1     -46.461  59.922 -55.640  1.00  0.00     0.159 HD
HETATM   19  O   UNL     1     -44.009  59.425 -55.511  1.00  0.00    -0.266 OA
ENDBRANCH   9  15
ENDBRANCH   2   5
BRANCH   1  20
HETATM   20  C   UNL     1     -40.626  55.140 -50.245  1.00  0.00     0.107 C 
HETATM   21  C   UNL     1     -40.905  54.591 -48.843  1.00  0.00     0.025 C 
BRANCH  20  22
HETATM   22  C   UNL     1     -40.501  54.113 -51.364  1.00  0.00    -0.044 A 
HETATM   23  C   UNL     1     -40.111  52.802 -51.025  1.00  0.00     0.020 A 
HETATM   24  C   UNL     1     -39.974  51.794 -51.993  1.00  0.00    -0.025 A 
HETATM   25  C   UNL     1     -40.243  52.096 -53.344  1.00  0.00    -0.026 A 
HETATM   26  C   UNL     1     -39.574  50.494 -51.643  1.00  0.00     0.012 A 
HETATM   27  C   UNL     1     -40.640  53.398 -53.685  1.00  0.00     0.013 A 
HETATM   28  C   UNL     1     -40.110  51.086 -54.311  1.00  0.00     0.012 A 
HETATM   29  C   UNL     1     -40.769  54.393 -52.709  1.00  0.00     0.009 A 
HETATM   30  C   UNL     1     -39.713  49.797 -53.948  1.00  0.00     0.001 A 
HETATM   31  C   UNL     1     -39.444  49.502 -52.615  1.00  0.00     0.001 A 
ENDBRANCH  20  22
ENDBRANCH   1  20
TORSDOF 4
ENDMDL
MODEL 8
REMARK VINA RESULT:      -9.1      2.070      2.552
REMARK  4 active torsions:
REMARK  status: ('A' for Active; 'I' for Inactive)
REMARK    1  A    between atoms: C_2  and  C_3 
REMARK    2  A    between atoms: C_2  and  C_19 
REMARK       I    between atoms: C_3  and  N_4 
REMARK    3  A    between atoms: N_4  and  C_5 
REMARK    4  A    between atoms: C_12  and  C_13 
REMARK       I    between atoms: C_13  and  N_14 
ROOT
HETATM    1  C   UNL     1     -41.313  57.322 -53.487  1.00  0.00     0.230 C 
HETATM    2  N   UNL     1     -42.338  57.518 -54.396  1.00  0.00    -0.327 N 
HETATM    3  O   UNL     1     -40.236  57.917 -53.487  1.00  0.00    -0.272 OA
HETATM    4  H   UNL     1     -43.230  57.095 -54.185  1.00  0.00     0.169 HD
ENDROOT
BRANCH   2   5
HETATM    5  C   UNL     1     -42.282  58.286 -55.578  1.00  0.00     0.035 A 
HETATM    6  C   UNL     1     -42.405  57.731 -56.859  1.00  0.00     0.046 A 
HETATM    7  C   UNL     1     -42.399  58.579 -57.988  1.00  0.00     0.030 A 
HETATM    8  C   UNL     1     -42.236  59.946 -57.800  1.00  0.00     0.063 A 
HETATM    9  C   UNL     1     -42.555  58.416 -59.398  1.00  0.00     0.156 A 
HETATM   10  N   UNL     1     -42.250  60.488 -59.054  1.00  0.00    -0.277 N 
HETATM   11  C   UNL     1     -42.101  60.530 -56.539  1.00  0.00     0.034 A 
HETATM   12  H   UNL     1     -42.144  61.465 -59.301  1.00  0.00     0.189 HD
HETATM   13  N   UNL     1     -42.452  59.602 -60.042  1.00  0.00    -0.168 NA
HETATM   14  C   UNL     1     -42.149  59.673 -55.432  1.00  0.00     0.032 A 
BRANCH   9  15
HETATM   15  C   UNL     1     -42.822  57.171 -60.133  1.00  0.00     0.270 C 
HETATM   16  N   UNL     1     -44.092  57.079 -60.631  1.00  0.00    -0.365 N 
HETATM   17  H   UNL     1     -44.743  57.832 -60.441  1.00  0.00     0.159 HD
HETATM   18  H   UNL     1     -44.379  56.240 -61.110  1.00  0.00     0.159 HD
HETATM   19  O   UNL     1     -42.012  56.264 -60.290  1.00  0.00    -0.266 OA
ENDBRANCH   9  15
ENDBRANCH   2   5
BRANCH   1  20
HETATM   20  C   UNL     1     -41.597  56.250 -52.422  1.00  0.00     0.107 C 
HETATM   21  C   UNL     1     -43.034  56.350 -51.900  1.00  0.00     0.025 C 
BRANCH  20  22
HETATM   22  C   UNL     1     -41.140  54.876 -52.895  1.00  0.00    -0.044 A 
HETATM   23  C   UNL     1     -40.759  53.929 -51.923  1.00  0.00     0.020 A 
HETATM   24  C   UNL     1     -40.327  52.639 -52.271  1.00  0.00    -0.025 A 
HETATM   25  C   UNL     1     -40.282  52.273 -53.632  1.00  0.00    -0.026 A 
HETATM   26  C   UNL     1     -39.940  51.709 -51.293  1.00  0.00     0.012 A 
HETATM   27  C   UNL     1     -40.668  53.210 -54.603  1.00  0.00     0.013 A 
HETATM   28  C   UNL     1     -39.854  50.981 -53.980  1.00  0.00     0.012 A 
HETATM   29  C   UNL     1     -41.093  54.493 -54.241  1.00  0.00     0.009 A 
HETATM   30  C   UNL     1     -39.474  50.065 -52.996  1.00  0.00     0.001 A 
HETATM   31  C   UNL     1     -39.516  50.430 -51.653  1.00  0.00     0.001 A 
ENDBRANCH  20  22
ENDBRANCH   1  20
TORSDOF 4
ENDMDL
MODEL 9
REMARK VINA RESULT:      -9.0      2.787      3.992
REMARK  4 active torsions:
REMARK  status: ('A' for Active; 'I' for Inactive)
REMARK    1  A    between atoms: C_2  and  C_3 
REMARK    2  A    between atoms: C_2  and  C_19 
REMARK       I    between atoms: C_3  and  N_4 
REMARK    3  A    between atoms: N_4  and  C_5 
REMARK    4  A    between atoms: C_12  and  C_13 
REMARK       I    between atoms: C_13  and  N_14 
ROOT
HETATM    1  C   UNL     1     -41.537  56.910 -53.294  1.00  0.00     0.230 C 
HETATM    2  N   UNL     1     -42.624  56.878 -54.151  1.00  0.00    -0.327 N 
HETATM    3  O   UNL     1     -40.440  57.401 -53.552  1.00  0.00    -0.272 OA
HETATM    4  H   UNL     1     -43.513  56.602 -53.760  1.00  0.00     0.169 HD
ENDROOT
BRANCH   2   5
HETATM    5  C   UNL     1     -42.631  57.230 -55.517  1.00  0.00     0.035 A 
HETATM    6  C   UNL     1     -42.293  58.508 -55.982  1.00  0.00     0.046 A 
HETATM    7  C   UNL     1     -42.266  58.759 -57.371  1.00  0.00     0.030 A 
HETATM    8  C   UNL     1     -42.612  57.736 -58.244  1.00  0.00     0.063 A 
HETATM    9  C   UNL     1     -41.927  59.863 -58.210  1.00  0.00     0.156 A 
HETATM   10  N   UNL     1     -42.514  58.279 -59.494  1.00  0.00    -0.277 N 
HETATM   11  C   UNL     1     -42.963  56.455 -57.816  1.00  0.00     0.034 A 
HETATM   12  H   UNL     1     -42.706  57.822 -60.378  1.00  0.00     0.189 HD
HETATM   13  N   UNL     1     -42.094  59.554 -59.516  1.00  0.00    -0.168 NA
HETATM   14  C   UNL     1     -42.944  56.218 -56.435  1.00  0.00     0.032 A 
BRANCH   9  15
HETATM   15  C   UNL     1     -41.429  61.184 -57.797  1.00  0.00     0.270 C 
HETATM   16  N   UNL     1     -42.287  61.875 -56.988  1.00  0.00    -0.365 N 
HETATM   17  H   UNL     1     -43.183  61.458 -56.762  1.00  0.00     0.159 HD
HETATM   18  H   UNL     1     -42.050  62.809 -56.693  1.00  0.00     0.159 HD
HETATM   19  O   UNL     1     -40.356  61.666 -58.142  1.00  0.00    -0.266 OA
ENDBRANCH   9  15
ENDBRANCH   2   5
BRANCH   1  20
HETATM   20  C   UNL     1     -41.779  56.248 -51.927  1.00  0.00     0.107 C 
HETATM   21  C   UNL     1     -43.248  56.360 -51.506  1.00  0.00     0.025 C 
BRANCH  20  22
HETATM   22  C   UNL     1     -41.164  54.854 -51.879  1.00  0.00    -0.044 A 
HETATM   23  C   UNL     1     -41.181  54.077 -53.054  1.00  0.00     0.020 A 
HETATM   24  C   UNL     1     -40.635  52.784 -53.099  1.00  0.00    -0.025 A 
HETATM   25  C   UNL     1     -40.041  52.248 -51.938  1.00  0.00    -0.026 A 
HETATM   26  C   UNL     1     -40.669  52.016 -54.274  1.00  0.00     0.012 A 
HETATM   27  C   UNL     1     -40.013  53.022 -50.768  1.00  0.00     0.013 A 
HETATM   28  C   UNL     1     -39.490  50.956 -51.984  1.00  0.00     0.012 A 
HETATM   29  C   UNL     1     -40.566  54.308 -50.737  1.00  0.00     0.009 A 
HETATM   30  C   UNL     1     -39.529  50.205 -53.160  1.00  0.00     0.001 A 
HETATM   31  C   UNL     1     -40.119  50.735 -54.304  1.00  0.00     0.001 A 
ENDBRANCH  20  22
ENDBRANCH   1  20
TORSDOF 4
ENDMDL
MODEL 10
REMARK VINA RESULT:      -9.0      4.628      6.334
REMARK  4 active torsions:
REMARK  status: ('A' for Active; 'I' for Inactive)
REMARK    1  A    between atoms: C_2  and  C_3 
REMARK    2  A    between atoms: C_2  and  C_19 
REMARK       I    between atoms: C_3  and  N_4 
REMARK    3  A    between atoms: N_4  and  C_5 
REMARK    4  A    between atoms: C_12  and  C_13 
REMARK       I    between atoms: C_13  and  N_14 
ROOT
HETATM    1  C   UNL     1     -42.461  56.035 -51.457  1.00  0.00     0.230 C 
HETATM    2  N   UNL     1     -42.416  57.254 -52.112  1.00  0.00    -0.327 N 
HETATM    3  O   UNL     1     -43.485  55.450 -51.109  1.00  0.00    -0.272 OA
HETATM    4  H   UNL     1     -41.526  57.541 -52.493  1.00  0.00     0.169 HD
ENDROOT
BRANCH   2   5
HETATM    5  C   UNL     1     -43.499  58.128 -52.343  1.00  0.00     0.035 A 
HETATM    6  C   UNL     1     -44.071  58.922 -51.339  1.00  0.00     0.046 A 
HETATM    7  C   UNL     1     -45.113  59.816 -51.667  1.00  0.00     0.030 A 
HETATM    8  C   UNL     1     -45.570  59.860 -52.979  1.00  0.00     0.063 A 
HETATM    9  C   UNL     1     -45.882  60.798 -50.974  1.00  0.00     0.156 A 
HETATM   10  N   UNL     1     -46.575  60.785 -52.980  1.00  0.00    -0.277 N 
HETATM   11  C   UNL     1     -45.030  59.077 -54.000  1.00  0.00     0.034 A 
HETATM   12  H   UNL     1     -47.147  61.069 -53.767  1.00  0.00     0.189 HD
HETATM   13  N   UNL     1     -46.786  61.381 -51.795  1.00  0.00    -0.168 NA
HETATM   14  C   UNL     1     -43.971  58.226 -53.658  1.00  0.00     0.032 A 
BRANCH   9  15
HETATM   15  C   UNL     1     -45.758  61.205 -49.567  1.00  0.00     0.270 C 
HETATM   16  N   UNL     1     -45.497  62.536 -49.392  1.00  0.00    -0.365 N 
HETATM   17  H   UNL     1     -45.381  63.119 -50.213  1.00  0.00     0.159 HD
HETATM   18  H   UNL     1     -45.350  62.897 -48.463  1.00  0.00     0.159 HD
HETATM   19  O   UNL     1     -45.855  60.447 -48.608  1.00  0.00    -0.266 OA
ENDBRANCH   9  15
ENDBRANCH   2   5
BRANCH   1  20
HETATM   20  C   UNL     1     -41.085  55.420 -51.154  1.00  0.00     0.107 C 
HETATM   21  C   UNL     1     -40.905  55.166 -49.654  1.00  0.00     0.025 C 
BRANCH  20  22
HETATM   22  C   UNL     1     -40.796  54.245 -52.080  1.00  0.00    -0.044 A 
HETATM   23  C   UNL     1     -40.383  53.028 -51.503  1.00  0.00     0.020 A 
HETATM   24  C   UNL     1     -40.098  51.895 -52.283  1.00  0.00    -0.025 A 
HETATM   25  C   UNL     1     -40.238  51.971 -53.684  1.00  0.00    -0.026 A 
HETATM   26  C   UNL     1     -39.676  50.691 -51.696  1.00  0.00     0.012 A 
HETATM   27  C   UNL     1     -40.657  53.179 -54.262  1.00  0.00     0.013 A 
HETATM   28  C   UNL     1     -39.957  50.836 -54.463  1.00  0.00     0.012 A 
HETATM   29  C   UNL     1     -40.934  54.301 -53.472  1.00  0.00     0.009 A 
HETATM   30  C   UNL     1     -39.541  49.644 -53.866  1.00  0.00     0.001 A 
HETATM   31  C   UNL     1     -39.400  49.572 -52.482  1.00  0.00     0.001 A 
ENDBRANCH  20  22
ENDBRANCH   1  20
TORSDOF 4
ENDMDL
