MODEL 1
REMARK VINA RESULT:      -8.2      0.000      0.000
REMARK  6 active torsions:
REMARK  status: ('A' for Active; 'I' for Inactive)
REMARK    1  A    between atoms: C_2  and  C_3 
REMARK    2  A    between atoms: C_3  and  N_4 
REMARK       I    between atoms: N_4  and  C_5 
REMARK    3  A    between atoms: C_5  and  C_6 
REMARK    4  A    between atoms: C_8  and  N_9 
REMARK       I    between atoms: N_9  and  C_10 
REMARK    5  A    between atoms: C_10  and  C_11 
REMARK    6  A    between atoms: C_15  and  C_16 
ROOT
HETATM    1  N   UNL     1     -43.892  58.208 -50.973  1.00  0.00    -0.322 N 
HETATM    2  C   UNL     1     -42.544  58.191 -51.279  1.00  0.00     0.274 C 
HETATM    3  O   UNL     1     -41.855  59.185 -51.478  1.00  0.00    -0.266 OA
HETATM    4  H   UNL     1     -44.289  57.349 -50.620  1.00  0.00     0.169 HD
ENDROOT
BRANCH   1   5
HETATM    5  C   UNL     1     -44.759  59.321 -51.023  1.00  0.00     0.036 A 
HETATM    6  C   UNL     1     -45.048  60.119 -49.912  1.00  0.00     0.046 A 
HETATM    7  C   UNL     1     -45.894  61.231 -50.036  1.00  0.00     0.034 A 
HETATM    8  C   UNL     1     -46.437  61.553 -51.285  1.00  0.00     0.017 A 
HETATM    9  C   UNL     1     -46.147  60.764 -52.397  1.00  0.00     0.003 A 
HETATM   10  C   UNL     1     -45.307  59.656 -52.266  1.00  0.00     0.029 A 
BRANCH   7  11
HETATM   11  C   UNL     1     -46.188  62.130 -48.883  1.00  0.00     0.251 C 
HETATM   12  N   UNL     1     -45.150  62.371 -48.006  1.00  0.00    -0.357 N 
HETATM   13  H   UNL     1     -44.297  61.831 -48.073  1.00  0.00     0.162 HD
HETATM   14  O   UNL     1     -47.311  62.599 -48.746  1.00  0.00    -0.268 OA
BRANCH  12  15
HETATM   15  C   UNL     1     -45.313  63.234 -46.854  1.00  0.00     0.122 C 
BRANCH  15  16
HETATM   16  C   UNL     1     -45.202  62.483 -45.528  1.00  0.00     0.015 C 
HETATM   17  C   UNL     1     -44.795  61.028 -45.711  1.00  0.00     0.006 C 
ENDBRANCH  15  16
ENDBRANCH  12  15
ENDBRANCH   7  11
ENDBRANCH   1   5
BRANCH   2  18
HETATM   18  C   UNL     1     -41.962  56.873 -51.323  1.00  0.00     0.120 A 
HETATM   19  N   UNL     1     -41.271  56.362 -50.260  1.00  0.00    -0.272 N 
HETATM   20  H   UNL     1     -41.116  56.813 -49.362  1.00  0.00     0.189 HD
HETATM   21  N   UNL     1     -40.748  55.148 -50.473  1.00  0.00    -0.174 NA
HETATM   22  C   UNL     1     -41.083  54.848 -51.739  1.00  0.00     0.089 A 
HETATM   23  C   UNL     1     -41.867  55.899 -52.298  1.00  0.00     0.071 A 
BRANCH  22  24
HETATM   24  C   UNL     1     -40.627  53.610 -52.383  1.00  0.00    -0.006 A 
HETATM   25  C   UNL     1     -40.883  53.386 -53.744  1.00  0.00     0.014 A 
HETATM   26  C   UNL     1     -40.491  52.196 -54.365  1.00  0.00     0.007 A 
HETATM   27  C   UNL     1     -39.829  51.204 -53.638  1.00  0.00    -0.062 A 
HETATM   28  C   UNL     1     -39.409  49.920 -54.288  1.00  0.00     0.048 C 
HETATM   29  C   UNL     1     -39.555  51.426 -52.284  1.00  0.00     0.007 A 
HETATM   30  C   UNL     1     -39.951  52.616 -51.662  1.00  0.00     0.014 A 
ENDBRANCH  22  24
ENDBRANCH   2  18
TORSDOF 6
ENDMDL
MODEL 2
REMARK VINA RESULT:      -7.6      2.332      3.688
REMARK  6 active torsions:
REMARK  status: ('A' for Active; 'I' for Inactive)
REMARK    1  A    between atoms: C_2  and  C_3 
REMARK    2  A    between atoms: C_3  and  N_4 
REMARK       I    between atoms: N_4  and  C_5 
REMARK    3  A    between atoms: C_5  and  C_6 
REMARK    4  A    between atoms: C_8  and  N_9 
REMARK       I    between atoms: N_9  and  C_10 
REMARK    5  A    between atoms: C_10  and  C_11 
REMARK    6  A    between atoms: C_15  and  C_16 
ROOT
HETATM    1  N   UNL     1     -43.991  58.775 -50.774  1.00  0.00    -0.322 N 
HETATM    2  C   UNL     1     -42.755  58.654 -51.381  1.00  0.00     0.274 C 
HETATM    3  O   UNL     1     -42.114  59.582 -51.862  1.00  0.00    -0.266 OA
HETATM    4  H   UNL     1     -44.310  57.986 -50.230  1.00  0.00     0.169 HD
ENDROOT
BRANCH   1   5
HETATM    5  C   UNL     1     -44.823  59.915 -50.762  1.00  0.00     0.036 A 
HETATM    6  C   UNL     1     -45.653  60.271 -51.829  1.00  0.00     0.046 A 
HETATM    7  C   UNL     1     -46.480  61.400 -51.742  1.00  0.00     0.034 A 
HETATM    8  C   UNL     1     -46.487  62.165 -50.570  1.00  0.00     0.017 A 
HETATM    9  C   UNL     1     -45.667  61.811 -49.500  1.00  0.00     0.003 A 
HETATM   10  C   UNL     1     -44.843  60.688 -49.595  1.00  0.00     0.029 A 
BRANCH   7  11
HETATM   11  C   UNL     1     -47.410  61.783 -52.843  1.00  0.00     0.251 C 
HETATM   12  N   UNL     1     -48.731  61.980 -52.498  1.00  0.00    -0.357 N 
HETATM   13  H   UNL     1     -49.056  61.718 -51.576  1.00  0.00     0.162 HD
HETATM   14  O   UNL     1     -46.988  61.891 -53.988  1.00  0.00    -0.268 OA
BRANCH  12  15
HETATM   15  C   UNL     1     -49.725  62.362 -53.480  1.00  0.00     0.122 C 
BRANCH  15  16
HETATM   16  C   UNL     1     -51.106  61.780 -53.185  1.00  0.00     0.015 C 
HETATM   17  C   UNL     1     -51.994  62.741 -52.408  1.00  0.00     0.006 C 
ENDBRANCH  15  16
ENDBRANCH  12  15
ENDBRANCH   7  11
ENDBRANCH   1   5
BRANCH   2  18
HETATM   18  C   UNL     1     -42.227  57.314 -51.391  1.00  0.00     0.120 A 
HETATM   19  N   UNL     1     -41.747  56.728 -50.252  1.00  0.00    -0.272 N 
HETATM   20  H   UNL     1     -41.728  57.135 -49.321  1.00  0.00     0.189 HD
HETATM   21  N   UNL     1     -41.244  55.500 -50.434  1.00  0.00    -0.174 NA
HETATM   22  C   UNL     1     -41.371  55.268 -51.750  1.00  0.00     0.089 A 
HETATM   23  C   UNL     1     -42.007  56.376 -52.382  1.00  0.00     0.071 A 
BRANCH  22  24
HETATM   24  C   UNL     1     -40.862  54.038 -52.368  1.00  0.00    -0.006 A 
HETATM   25  C   UNL     1     -41.064  53.796 -53.735  1.00  0.00     0.014 A 
HETATM   26  C   UNL     1     -40.621  52.613 -54.332  1.00  0.00     0.007 A 
HETATM   27  C   UNL     1     -39.960  51.643 -53.573  1.00  0.00    -0.062 A 
HETATM   28  C   UNL     1     -39.485  50.365 -54.198  1.00  0.00     0.048 C 
HETATM   29  C   UNL     1     -39.740  51.882 -52.213  1.00  0.00     0.007 A 
HETATM   30  C   UNL     1     -40.186  53.067 -51.615  1.00  0.00     0.014 A 
ENDBRANCH  22  24
ENDBRANCH   2  18
TORSDOF 6
ENDMDL
MODEL 3
REMARK VINA RESULT:      -7.4     18.488     20.985
REMARK  6 active torsions:
REMARK  status: ('A' for Active; 'I' for Inactive)
REMARK    1  A    between atoms: C_2  and  C_3 
REMARK    2  A    between atoms: C_3  and  N_4 
REMARK       I    between atoms: N_4  and  C_5 
REMARK    3  A    between atoms: C_5  and  C_6 
REMARK    4  A    between atoms: C_8  and  N_9 
REMARK       I    between atoms: N_9  and  C_10 
REMARK    5  A    between atoms: C_10  and  C_11 
REMARK    6  A    between atoms: C_15  and  C_16 
ROOT
HETATM    1  N   UNL     1     -36.506  40.954 -56.634  1.00  0.00    -0.322 N 
HETATM    2  C   UNL     1     -37.360  41.126 -55.560  1.00  0.00     0.274 C 
HETATM    3  O   UNL     1     -38.579  41.224 -55.640  1.00  0.00    -0.266 OA
HETATM    4  H   UNL     1     -35.560  40.670 -56.421  1.00  0.00     0.169 HD
ENDROOT
BRANCH   1   5
HETATM    5  C   UNL     1     -36.834  41.051 -58.003  1.00  0.00     0.036 A 
HETATM    6  C   UNL     1     -37.095  39.940 -58.811  1.00  0.00     0.046 A 
HETATM    7  C   UNL     1     -37.447  40.108 -60.158  1.00  0.00     0.034 A 
HETATM    8  C   UNL     1     -37.555  41.397 -60.692  1.00  0.00     0.017 A 
HETATM    9  C   UNL     1     -37.302  42.508 -59.889  1.00  0.00     0.003 A 
HETATM   10  C   UNL     1     -36.949  42.335 -58.549  1.00  0.00     0.029 A 
BRANCH   7  11
HETATM   11  C   UNL     1     -37.775  38.948 -61.036  1.00  0.00     0.251 C 
HETATM   12  N   UNL     1     -38.996  38.340 -60.829  1.00  0.00    -0.357 N 
HETATM   13  H   UNL     1     -39.549  38.583 -60.017  1.00  0.00     0.162 HD
HETATM   14  O   UNL     1     -36.968  38.572 -61.878  1.00  0.00    -0.268 OA
BRANCH  12  15
HETATM   15  C   UNL     1     -39.429  37.210 -61.625  1.00  0.00     0.122 C 
BRANCH  15  16
HETATM   16  C   UNL     1     -40.364  37.609 -62.766  1.00  0.00     0.015 C 
HETATM   17  C   UNL     1     -41.682  38.185 -62.269  1.00  0.00     0.006 C 
ENDBRANCH  15  16
ENDBRANCH  12  15
ENDBRANCH   7  11
ENDBRANCH   1   5
BRANCH   2  18
HETATM   18  C   UNL     1     -36.703  41.158 -54.278  1.00  0.00     0.120 A 
HETATM   19  N   UNL     1     -36.505  42.332 -53.607  1.00  0.00    -0.272 N 
HETATM   20  H   UNL     1     -36.798  43.259 -53.904  1.00  0.00     0.189 HD
HETATM   21  N   UNL     1     -35.836  42.203 -52.454  1.00  0.00    -0.174 NA
HETATM   22  C   UNL     1     -35.556  40.893 -52.365  1.00  0.00     0.089 A 
HETATM   23  C   UNL     1     -36.106  40.199 -53.482  1.00  0.00     0.071 A 
BRANCH  22  24
HETATM   24  C   UNL     1     -34.757  40.349 -51.260  1.00  0.00    -0.006 A 
HETATM   25  C   UNL     1     -33.447  40.801 -51.045  1.00  0.00     0.014 A 
HETATM   26  C   UNL     1     -32.657  40.267 -50.023  1.00  0.00     0.007 A 
HETATM   27  C   UNL     1     -33.164  39.268 -49.187  1.00  0.00    -0.062 A 
HETATM   28  C   UNL     1     -32.327  38.680 -48.091  1.00  0.00     0.048 C 
HETATM   29  C   UNL     1     -34.475  38.822 -49.383  1.00  0.00     0.007 A 
HETATM   30  C   UNL     1     -35.264  39.357 -50.409  1.00  0.00     0.014 A 
ENDBRANCH  22  24
ENDBRANCH   2  18
TORSDOF 6
ENDMDL
MODEL 4
REMARK VINA RESULT:      -7.4      2.979      3.836
REMARK  6 active torsions:
REMARK  status: ('A' for Active; 'I' for Inactive)
REMARK    1  A    between atoms: C_2  and  C_3 
REMARK    2  A    between atoms: C_3  and  N_4 
REMARK       I    between atoms: N_4  and  C_5 
REMARK    3  A    between atoms: C_5  and  C_6 
REMARK    4  A    between atoms: C_8  and  N_9 
REMARK       I    between atoms: N_9  and  C_10 
REMARK    5  A    between atoms: C_10  and  C_11 
REMARK    6  A    between atoms: C_15  and  C_16 
ROOT
HETATM    1  N   UNL     1     -43.900  58.338 -52.979  1.00  0.00    -0.322 N 
HETATM    2  C   UNL     1     -42.925  58.233 -52.004  1.00  0.00     0.274 C 
HETATM    3  O   UNL     1     -42.594  59.134 -51.242  1.00  0.00    -0.266 OA
HETATM    4  H   UNL     1     -44.229  57.474 -53.387  1.00  0.00     0.169 HD
ENDROOT
BRANCH   1   5
HETATM    5  C   UNL     1     -44.546  59.516 -53.410  1.00  0.00     0.036 A 
HETATM    6  C   UNL     1     -45.668  60.054 -52.771  1.00  0.00     0.046 A 
HETATM    7  C   UNL     1     -46.244  61.247 -53.232  1.00  0.00     0.034 A 
HETATM    8  C   UNL     1     -45.681  61.912 -54.326  1.00  0.00     0.017 A 
HETATM    9  C   UNL     1     -44.559  61.384 -54.962  1.00  0.00     0.003 A 
HETATM   10  C   UNL     1     -43.992  60.194 -54.502  1.00  0.00     0.029 A 
BRANCH   7  11
HETATM   11  C   UNL     1     -47.413  61.872 -52.548  1.00  0.00     0.251 C 
HETATM   12  N   UNL     1     -48.598  61.907 -53.253  1.00  0.00    -0.357 N 
HETATM   13  H   UNL     1     -48.607  61.663 -54.235  1.00  0.00     0.162 HD
HETATM   14  O   UNL     1     -47.284  62.335 -51.420  1.00  0.00    -0.268 OA
BRANCH  12  15
HETATM   15  C   UNL     1     -49.802  62.482 -52.689  1.00  0.00     0.122 C 
BRANCH  15  16
HETATM   16  C   UNL     1     -51.067  61.729 -53.097  1.00  0.00     0.015 C 
HETATM   17  C   UNL     1     -52.339  62.424 -52.631  1.00  0.00     0.006 C 
ENDBRANCH  15  16
ENDBRANCH  12  15
ENDBRANCH   7  11
ENDBRANCH   1   5
BRANCH   2  18
HETATM   18  C   UNL     1     -42.312  56.932 -51.914  1.00  0.00     0.120 A 
HETATM   19  N   UNL     1     -41.605  56.552 -50.808  1.00  0.00    -0.272 N 
HETATM   20  H   UNL     1     -41.455  57.100 -49.964  1.00  0.00     0.189 HD
HETATM   21  N   UNL     1     -41.054  55.335 -50.896  1.00  0.00    -0.174 NA
HETATM   22  C   UNL     1     -41.388  54.895 -52.120  1.00  0.00     0.089 A 
HETATM   23  C   UNL     1     -42.200  55.862 -52.781  1.00  0.00     0.071 A 
BRANCH  22  24
HETATM   24  C   UNL     1     -40.906  53.607 -52.634  1.00  0.00    -0.006 A 
HETATM   25  C   UNL     1     -40.090  52.789 -51.839  1.00  0.00     0.014 A 
HETATM   26  C   UNL     1     -39.590  51.578 -52.326  1.00  0.00     0.007 A 
HETATM   27  C   UNL     1     -39.898  51.156 -53.622  1.00  0.00    -0.062 A 
HETATM   28  C   UNL     1     -39.363  49.863 -54.160  1.00  0.00     0.048 C 
HETATM   29  C   UNL     1     -40.724  51.958 -54.416  1.00  0.00     0.007 A 
HETATM   30  C   UNL     1     -41.223  53.172 -53.928  1.00  0.00     0.014 A 
ENDBRANCH  22  24
ENDBRANCH   2  18
TORSDOF 6
ENDMDL
MODEL 5
REMARK VINA RESULT:      -7.2     18.641     20.923
REMARK  6 active torsions:
REMARK  status: ('A' for Active; 'I' for Inactive)
REMARK    1  A    between atoms: C_2  and  C_3 
REMARK    2  A    between atoms: C_3  and  N_4 
REMARK       I    between atoms: N_4  and  C_5 
REMARK    3  A    between atoms: C_5  and  C_6 
REMARK    4  A    between atoms: C_8  and  N_9 
REMARK       I    between atoms: N_9  and  C_10 
REMARK    5  A    between atoms: C_10  and  C_11 
REMARK    6  A    between atoms: C_15  and  C_16 
ROOT
HETATM    1  N   UNL     1     -34.249  39.824 -51.269  1.00  0.00    -0.322 N 
HETATM    2  C   UNL     1     -34.519  41.153 -51.541  1.00  0.00     0.274 C 
HETATM    3  O   UNL     1     -34.326  42.082 -50.765  1.00  0.00    -0.266 OA
HETATM    4  H   UNL     1     -34.245  39.191 -52.057  1.00  0.00     0.169 HD
ENDROOT
BRANCH   1   5
HETATM    5  C   UNL     1     -33.899  39.268 -50.021  1.00  0.00     0.036 A 
HETATM    6  C   UNL     1     -32.661  39.478 -49.407  1.00  0.00     0.046 A 
HETATM    7  C   UNL     1     -32.387  38.921 -48.149  1.00  0.00     0.034 A 
HETATM    8  C   UNL     1     -33.367  38.166 -47.497  1.00  0.00     0.017 A 
HETATM    9  C   UNL     1     -34.606  37.958 -48.101  1.00  0.00     0.003 A 
HETATM   10  C   UNL     1     -34.872  38.512 -49.355  1.00  0.00     0.029 A 
BRANCH   7  11
HETATM   11  C   UNL     1     -31.094  39.162 -47.446  1.00  0.00     0.251 C 
HETATM   12  N   UNL     1     -30.983  38.663 -46.164  1.00  0.00    -0.357 N 
HETATM   13  H   UNL     1     -31.801  38.300 -45.693  1.00  0.00     0.162 HD
HETATM   14  O   UNL     1     -30.203  39.791 -48.005  1.00  0.00    -0.268 OA
BRANCH  12  15
HETATM   15  C   UNL     1     -29.773  38.828 -45.386  1.00  0.00     0.122 C 
BRANCH  15  16
HETATM   16  C   UNL     1     -29.993  39.641 -44.111  1.00  0.00     0.015 C 
HETATM   17  C   UNL     1     -29.967  41.142 -44.360  1.00  0.00     0.006 C 
ENDBRANCH  15  16
ENDBRANCH  12  15
ENDBRANCH   7  11
ENDBRANCH   1   5
BRANCH   2  18
HETATM   18  C   UNL     1     -35.037  41.395 -52.864  1.00  0.00     0.120 A 
HETATM   19  N   UNL     1     -35.399  42.650 -53.269  1.00  0.00    -0.272 N 
HETATM   20  H   UNL     1     -35.330  43.507 -52.727  1.00  0.00     0.189 HD
HETATM   21  N   UNL     1     -35.910  42.705 -54.505  1.00  0.00    -0.174 NA
HETATM   22  C   UNL     1     -35.911  41.432 -54.933  1.00  0.00     0.089 A 
HETATM   23  C   UNL     1     -35.347  40.582 -53.937  1.00  0.00     0.071 A 
BRANCH  22  24
HETATM   24  C   UNL     1     -36.470  41.058 -56.237  1.00  0.00    -0.006 A 
HETATM   25  C   UNL     1     -37.212  39.875 -56.377  1.00  0.00     0.014 A 
HETATM   26  C   UNL     1     -37.719  39.483 -57.619  1.00  0.00     0.007 A 
HETATM   27  C   UNL     1     -37.498  40.270 -58.753  1.00  0.00    -0.062 A 
HETATM   28  C   UNL     1     -38.029  39.859 -60.093  1.00  0.00     0.048 C 
HETATM   29  C   UNL     1     -36.773  41.459 -58.621  1.00  0.00     0.007 A 
HETATM   30  C   UNL     1     -36.264  41.849 -57.376  1.00  0.00     0.014 A 
ENDBRANCH  22  24
ENDBRANCH   2  18
TORSDOF 6
ENDMDL
MODEL 6
REMARK VINA RESULT:      -7.2      6.506      8.868
REMARK  6 active torsions:
REMARK  status: ('A' for Active; 'I' for Inactive)
REMARK    1  A    between atoms: C_2  and  C_3 
REMARK    2  A    between atoms: C_3  and  N_4 
REMARK       I    between atoms: N_4  and  C_5 
REMARK    3  A    between atoms: C_5  and  C_6 
REMARK    4  A    between atoms: C_8  and  N_9 
REMARK       I    between atoms: N_9  and  C_10 
REMARK    5  A    between atoms: C_10  and  C_11 
REMARK    6  A    between atoms: C_15  and  C_16 
ROOT
HETATM    1  N   UNL     1     -44.168  57.488 -56.804  1.00  0.00    -0.322 N 
HETATM    2  C   UNL     1     -42.840  57.123 -56.918  1.00  0.00     0.274 C 
HETATM    3  O   UNL     1     -42.107  57.417 -57.856  1.00  0.00    -0.266 OA
HETATM    4  H   UNL     1     -44.595  57.374 -55.896  1.00  0.00     0.169 HD
ENDROOT
BRANCH   1   5
HETATM    5  C   UNL     1     -44.973  58.081 -57.801  1.00  0.00     0.036 A 
HETATM    6  C   UNL     1     -45.692  57.343 -58.746  1.00  0.00     0.046 A 
HETATM    7  C   UNL     1     -46.499  57.993 -59.690  1.00  0.00     0.034 A 
HETATM    8  C   UNL     1     -46.600  59.389 -59.674  1.00  0.00     0.017 A 
HETATM    9  C   UNL     1     -45.890  60.129 -58.730  1.00  0.00     0.003 A 
HETATM   10  C   UNL     1     -45.085  59.476 -57.795  1.00  0.00     0.029 A 
BRANCH   7  11
HETATM   11  C   UNL     1     -47.315  57.236 -60.683  1.00  0.00     0.251 C 
HETATM   12  N   UNL     1     -47.757  57.937 -61.786  1.00  0.00    -0.357 N 
HETATM   13  H   UNL     1     -47.657  58.943 -61.816  1.00  0.00     0.162 HD
HETATM   14  O   UNL     1     -47.573  56.054 -60.487  1.00  0.00    -0.268 OA
BRANCH  12  15
HETATM   15  C   UNL     1     -48.550  57.306 -62.821  1.00  0.00     0.122 C 
BRANCH  15  16
HETATM   16  C   UNL     1     -49.809  58.097 -63.171  1.00  0.00     0.015 C 
HETATM   17  C   UNL     1     -49.802  59.501 -62.584  1.00  0.00     0.006 C 
ENDBRANCH  15  16
ENDBRANCH  12  15
ENDBRANCH   7  11
ENDBRANCH   1   5
BRANCH   2  18
HETATM   18  C   UNL     1     -42.335  56.364 -55.801  1.00  0.00     0.120 A 
HETATM   19  N   UNL     1     -41.971  56.971 -54.632  1.00  0.00    -0.272 N 
HETATM   20  H   UNL     1     -42.030  57.963 -54.418  1.00  0.00     0.189 HD
HETATM   21  N   UNL     1     -41.474  56.138 -53.709  1.00  0.00    -0.174 NA
HETATM   22  C   UNL     1     -41.485  54.931 -54.295  1.00  0.00     0.089 A 
HETATM   23  C   UNL     1     -42.042  55.028 -55.604  1.00  0.00     0.071 A 
BRANCH  22  24
HETATM   24  C   UNL     1     -40.942  53.743 -53.624  1.00  0.00    -0.006 A 
HETATM   25  C   UNL     1     -40.751  53.742 -52.234  1.00  0.00     0.014 A 
HETATM   26  C   UNL     1     -40.199  52.635 -51.583  1.00  0.00     0.007 A 
HETATM   27  C   UNL     1     -39.827  51.501 -52.309  1.00  0.00    -0.062 A 
HETATM   28  C   UNL     1     -39.227  50.309 -51.625  1.00  0.00     0.048 C 
HETATM   29  C   UNL     1     -40.028  51.487 -53.693  1.00  0.00     0.007 A 
HETATM   30  C   UNL     1     -40.580  52.597 -54.344  1.00  0.00     0.014 A 
ENDBRANCH  22  24
ENDBRANCH   2  18
TORSDOF 6
ENDMDL
MODEL 7
REMARK VINA RESULT:      -7.2      2.306     10.226
REMARK  6 active torsions:
REMARK  status: ('A' for Active; 'I' for Inactive)
REMARK    1  A    between atoms: C_2  and  C_3 
REMARK    2  A    between atoms: C_3  and  N_4 
REMARK       I    between atoms: N_4  and  C_5 
REMARK    3  A    between atoms: C_5  and  C_6 
REMARK    4  A    between atoms: C_8  and  N_9 
REMARK       I    between atoms: N_9  and  C_10 
REMARK    5  A    between atoms: C_10  and  C_11 
REMARK    6  A    between atoms: C_15  and  C_16 
ROOT
HETATM    1  N   UNL     1     -43.259  57.468 -52.128  1.00  0.00    -0.322 N 
HETATM    2  C   UNL     1     -42.711  58.720 -52.336  1.00  0.00     0.274 C 
HETATM    3  O   UNL     1     -41.898  58.996 -53.212  1.00  0.00    -0.266 OA
HETATM    4  H   UNL     1     -44.069  57.421 -51.527  1.00  0.00     0.169 HD
ENDROOT
BRANCH   1   5
HETATM    5  C   UNL     1     -42.859  56.257 -52.731  1.00  0.00     0.036 A 
HETATM    6  C   UNL     1     -41.874  55.421 -52.196  1.00  0.00     0.046 A 
HETATM    7  C   UNL     1     -41.544  54.214 -52.828  1.00  0.00     0.034 A 
HETATM    8  C   UNL     1     -42.220  53.834 -53.993  1.00  0.00     0.017 A 
HETATM    9  C   UNL     1     -43.208  54.660 -54.527  1.00  0.00     0.003 A 
HETATM   10  C   UNL     1     -43.529  55.863 -53.895  1.00  0.00     0.029 A 
BRANCH   7  11
HETATM   11  C   UNL     1     -40.531  53.278 -52.260  1.00  0.00     0.251 C 
HETATM   12  N   UNL     1     -40.319  52.102 -52.949  1.00  0.00    -0.357 N 
HETATM   13  H   UNL     1     -40.942  51.840 -53.702  1.00  0.00     0.162 HD
HETATM   14  O   UNL     1     -39.948  53.567 -51.222  1.00  0.00    -0.268 OA
BRANCH  12  15
HETATM   15  C   UNL     1     -39.354  51.120 -52.499  1.00  0.00     0.122 C 
BRANCH  15  16
HETATM   16  C   UNL     1     -39.529  49.761 -53.176  1.00  0.00     0.015 C 
HETATM   17  C   UNL     1     -39.909  49.882 -54.644  1.00  0.00     0.006 C 
ENDBRANCH  15  16
ENDBRANCH  12  15
ENDBRANCH   7  11
ENDBRANCH   1   5
BRANCH   2  18
HETATM   18  C   UNL     1     -43.196  59.738 -51.438  1.00  0.00     0.120 A 
HETATM   19  N   UNL     1     -42.498  60.894 -51.227  1.00  0.00    -0.272 N 
HETATM   20  H   UNL     1     -41.623  61.165 -51.666  1.00  0.00     0.189 HD
HETATM   21  N   UNL     1     -43.053  61.717 -50.328  1.00  0.00    -0.174 NA
HETATM   22  C   UNL     1     -44.152  61.072 -49.905  1.00  0.00     0.089 A 
HETATM   23  C   UNL     1     -44.289  59.834 -50.598  1.00  0.00     0.071 A 
BRANCH  22  24
HETATM   24  C   UNL     1     -45.008  61.621 -48.846  1.00  0.00    -0.006 A 
HETATM   25  C   UNL     1     -46.113  62.422 -49.174  1.00  0.00     0.014 A 
HETATM   26  C   UNL     1     -46.916  62.986 -48.178  1.00  0.00     0.007 A 
HETATM   27  C   UNL     1     -46.633  62.758 -46.829  1.00  0.00    -0.062 A 
HETATM   28  C   UNL     1     -47.481  63.361 -45.750  1.00  0.00     0.048 C 
HETATM   29  C   UNL     1     -45.543  61.948 -46.493  1.00  0.00     0.007 A 
HETATM   30  C   UNL     1     -44.738  61.385 -47.491  1.00  0.00     0.014 A 
ENDBRANCH  22  24
ENDBRANCH   2  18
TORSDOF 6
ENDMDL
MODEL 8
REMARK VINA RESULT:      -7.1      2.102      4.150
REMARK  6 active torsions:
REMARK  status: ('A' for Active; 'I' for Inactive)
REMARK    1  A    between atoms: C_2  and  C_3 
REMARK    2  A    between atoms: C_3  and  N_4 
REMARK       I    between atoms: N_4  and  C_5 
REMARK    3  A    between atoms: C_5  and  C_6 
REMARK    4  A    between atoms: C_8  and  N_9 
REMARK       I    between atoms: N_9  and  C_10 
REMARK    5  A    between atoms: C_10  and  C_11 
REMARK    6  A    between atoms: C_15  and  C_16 
ROOT
HETATM    1  N   UNL     1     -43.047  58.795 -50.948  1.00  0.00    -0.322 N 
HETATM    2  C   UNL     1     -41.740  58.466 -51.254  1.00  0.00     0.274 C 
HETATM    3  O   UNL     1     -40.838  59.274 -51.445  1.00  0.00    -0.266 OA
HETATM    4  H   UNL     1     -43.634  58.049 -50.602  1.00  0.00     0.169 HD
ENDROOT
BRANCH   1   5
HETATM    5  C   UNL     1     -43.631  60.080 -50.988  1.00  0.00     0.036 A 
HETATM    6  C   UNL     1     -44.323  60.574 -52.097  1.00  0.00     0.046 A 
HETATM    7  C   UNL     1     -44.907  61.848 -52.061  1.00  0.00     0.034 A 
HETATM    8  C   UNL     1     -44.811  62.622 -50.900  1.00  0.00     0.017 A 
HETATM    9  C   UNL     1     -44.128  62.132 -49.788  1.00  0.00     0.003 A 
HETATM   10  C   UNL     1     -43.546  60.863 -49.831  1.00  0.00     0.029 A 
BRANCH   7  11
HETATM   11  C   UNL     1     -45.690  62.388 -53.210  1.00  0.00     0.251 C 
HETATM   12  N   UNL     1     -45.302  61.983 -54.470  1.00  0.00    -0.357 N 
HETATM   13  H   UNL     1     -44.434  61.478 -54.592  1.00  0.00     0.162 HD
HETATM   14  O   UNL     1     -46.616  63.164 -53.006  1.00  0.00    -0.268 OA
BRANCH  12  15
HETATM   15  C   UNL     1     -45.992  62.435 -55.661  1.00  0.00     0.122 C 
BRANCH  15  16
HETATM   16  C   UNL     1     -46.456  61.284 -56.552  1.00  0.00     0.015 C 
HETATM   17  C   UNL     1     -45.631  60.021 -56.356  1.00  0.00     0.006 C 
ENDBRANCH  15  16
ENDBRANCH  12  15
ENDBRANCH   7  11
ENDBRANCH   1   5
BRANCH   2  18
HETATM   18  C   UNL     1     -41.482  57.049 -51.310  1.00  0.00     0.120 A 
HETATM   19  N   UNL     1     -41.295  56.313 -50.174  1.00  0.00    -0.272 N 
HETATM   20  H   UNL     1     -41.335  56.652 -49.216  1.00  0.00     0.189 HD
HETATM   21  N   UNL     1     -41.014  55.022 -50.393  1.00  0.00    -0.174 NA
HETATM   22  C   UNL     1     -40.989  54.898 -51.729  1.00  0.00     0.089 A 
HETATM   23  C   UNL     1     -41.302  56.147 -52.341  1.00  0.00     0.071 A 
BRANCH  22  24
HETATM   24  C   UNL     1     -40.639  53.629 -52.379  1.00  0.00    -0.006 A 
HETATM   25  C   UNL     1     -39.957  52.633 -51.665  1.00  0.00     0.014 A 
HETATM   26  C   UNL     1     -39.581  51.435 -52.278  1.00  0.00     0.007 A 
HETATM   27  C   UNL     1     -39.882  51.204 -53.623  1.00  0.00    -0.062 A 
HETATM   28  C   UNL     1     -39.480  49.926 -54.296  1.00  0.00     0.048 C 
HETATM   29  C   UNL     1     -40.577  52.185 -54.339  1.00  0.00     0.007 A 
HETATM   30  C   UNL     1     -40.951  53.386 -53.724  1.00  0.00     0.014 A 
ENDBRANCH  22  24
ENDBRANCH   2  18
TORSDOF 6
ENDMDL
MODEL 9
REMARK VINA RESULT:      -7.0      5.488      9.912
REMARK  6 active torsions:
REMARK  status: ('A' for Active; 'I' for Inactive)
REMARK    1  A    between atoms: C_2  and  C_3 
REMARK    2  A    between atoms: C_3  and  N_4 
REMARK       I    between atoms: N_4  and  C_5 
REMARK    3  A    between atoms: C_5  and  C_6 
REMARK    4  A    between atoms: C_8  and  N_9 
REMARK       I    between atoms: N_9  and  C_10 
REMARK    5  A    between atoms: C_10  and  C_11 
REMARK    6  A    between atoms: C_15  and  C_16 
ROOT
HETATM    1  N   UNL     1     -42.334  56.134 -53.978  1.00  0.00    -0.322 N 
HETATM    2  C   UNL     1     -41.863  55.786 -55.230  1.00  0.00     0.274 C 
HETATM    3  O   UNL     1     -41.030  54.915 -55.451  1.00  0.00    -0.266 OA
HETATM    4  H   UNL     1     -43.167  56.705 -53.947  1.00  0.00     0.169 HD
ENDROOT
BRANCH   1   5
HETATM    5  C   UNL     1     -41.824  55.710 -52.732  1.00  0.00     0.036 A 
HETATM    6  C   UNL     1     -41.383  54.406 -52.486  1.00  0.00     0.046 A 
HETATM    7  C   UNL     1     -40.857  54.057 -51.234  1.00  0.00     0.034 A 
HETATM    8  C   UNL     1     -40.756  55.027 -50.230  1.00  0.00     0.017 A 
HETATM    9  C   UNL     1     -41.188  56.330 -50.471  1.00  0.00     0.003 A 
HETATM   10  C   UNL     1     -41.714  56.670 -51.719  1.00  0.00     0.029 A 
BRANCH   7  11
HETATM   11  C   UNL     1     -40.336  52.689 -50.952  1.00  0.00     0.251 C 
HETATM   12  N   UNL     1     -39.804  51.996 -52.020  1.00  0.00    -0.357 N 
HETATM   13  H   UNL     1     -39.919  52.353 -52.960  1.00  0.00     0.162 HD
HETATM   14  O   UNL     1     -40.409  52.229 -49.818  1.00  0.00    -0.268 OA
BRANCH  12  15
HETATM   15  C   UNL     1     -39.260  50.662 -51.867  1.00  0.00     0.122 C 
BRANCH  15  16
HETATM   16  C   UNL     1     -39.843  49.664 -52.867  1.00  0.00     0.015 C 
HETATM   17  C   UNL     1     -39.670  50.113 -54.311  1.00  0.00     0.006 C 
ENDBRANCH  15  16
ENDBRANCH  12  15
ENDBRANCH   7  11
ENDBRANCH   1   5
BRANCH   2  18
HETATM   18  C   UNL     1     -42.459  56.525 -56.315  1.00  0.00     0.120 A 
HETATM   19  N   UNL     1     -43.575  56.068 -56.960  1.00  0.00    -0.272 N 
HETATM   20  H   UNL     1     -44.094  55.220 -56.751  1.00  0.00     0.189 HD
HETATM   21  N   UNL     1     -43.978  56.839 -57.978  1.00  0.00    -0.174 NA
HETATM   22  C   UNL     1     -43.081  57.838 -58.028  1.00  0.00     0.089 A 
HETATM   23  C   UNL     1     -42.124  57.687 -56.982  1.00  0.00     0.071 A 
BRANCH  22  24
HETATM   24  C   UNL     1     -43.134  58.869 -59.071  1.00  0.00    -0.006 A 
HETATM   25  C   UNL     1     -42.172  58.895 -60.091  1.00  0.00     0.014 A 
HETATM   26  C   UNL     1     -42.183  59.893 -61.069  1.00  0.00     0.007 A 
HETATM   27  C   UNL     1     -43.164  60.888 -61.052  1.00  0.00    -0.062 A 
HETATM   28  C   UNL     1     -43.185  61.969 -62.091  1.00  0.00     0.048 C 
HETATM   29  C   UNL     1     -44.138  60.862 -60.048  1.00  0.00     0.007 A 
HETATM   30  C   UNL     1     -44.123  59.863 -59.067  1.00  0.00     0.014 A 
ENDBRANCH  22  24
ENDBRANCH   2  18
TORSDOF 6
ENDMDL
MODEL 10
REMARK VINA RESULT:      -6.9      5.395      9.889
REMARK  6 active torsions:
REMARK  status: ('A' for Active; 'I' for Inactive)
REMARK    1  A    between atoms: C_2  and  C_3 
REMARK    2  A    between atoms: C_3  and  N_4 
REMARK       I    between atoms: N_4  and  C_5 
REMARK    3  A    between atoms: C_5  and  C_6 
REMARK    4  A    between atoms: C_8  and  N_9 
REMARK       I    between atoms: N_9  and  C_10 
REMARK    5  A    between atoms: C_10  and  C_11 
REMARK    6  A    between atoms: C_15  and  C_16 
ROOT
HETATM    1  N   UNL     1     -42.334  55.914 -53.715  1.00  0.00    -0.322 N 
HETATM    2  C   UNL     1     -41.792  55.778 -54.979  1.00  0.00     0.274 C 
HETATM    3  O   UNL     1     -40.797  55.114 -55.250  1.00  0.00    -0.266 OA
HETATM    4  H   UNL     1     -43.266  56.301 -53.659  1.00  0.00     0.169 HD
ENDROOT
BRANCH   1   5
HETATM    5  C   UNL     1     -41.761  55.494 -52.495  1.00  0.00     0.036 A 
HETATM    6  C   UNL     1     -41.363  54.177 -52.248  1.00  0.00     0.046 A 
HETATM    7  C   UNL     1     -40.770  53.831 -51.025  1.00  0.00     0.034 A 
HETATM    8  C   UNL     1     -40.558  54.816 -50.054  1.00  0.00     0.017 A 
HETATM    9  C   UNL     1     -40.947  56.132 -50.298  1.00  0.00     0.003 A 
HETATM   10  C   UNL     1     -41.540  56.469 -51.516  1.00  0.00     0.029 A 
BRANCH   7  11
HETATM   11  C   UNL     1     -40.292  52.446 -50.745  1.00  0.00     0.251 C 
HETATM   12  N   UNL     1     -39.740  51.755 -51.803  1.00  0.00    -0.357 N 
HETATM   13  H   UNL     1     -39.813  52.127 -52.741  1.00  0.00     0.162 HD
HETATM   14  O   UNL     1     -40.417  51.973 -49.621  1.00  0.00    -0.268 OA
BRANCH  12  15
HETATM   15  C   UNL     1     -39.234  50.406 -51.651  1.00  0.00     0.122 C 
BRANCH  15  16
HETATM   16  C   UNL     1     -39.713  49.463 -52.754  1.00  0.00     0.015 C 
HETATM   17  C   UNL     1     -39.455  50.014 -54.149  1.00  0.00     0.006 C 
ENDBRANCH  15  16
ENDBRANCH  12  15
ENDBRANCH   7  11
ENDBRANCH   1   5
BRANCH   2  18
HETATM   18  C   UNL     1     -42.515  56.474 -56.013  1.00  0.00     0.120 A 
HETATM   19  N   UNL     1     -41.873  57.003 -57.099  1.00  0.00    -0.272 N 
HETATM   20  H   UNL     1     -40.879  56.954 -57.301  1.00  0.00     0.189 HD
HETATM   21  N   UNL     1     -42.675  57.662 -57.945  1.00  0.00    -0.174 NA
HETATM   22  C   UNL     1     -43.895  57.590 -57.390  1.00  0.00     0.089 A 
HETATM   23  C   UNL     1     -43.839  56.829 -56.186  1.00  0.00     0.071 A 
BRANCH  22  24
HETATM   24  C   UNL     1     -45.054  58.263 -57.987  1.00  0.00    -0.006 A 
HETATM   25  C   UNL     1     -45.530  59.467 -57.447  1.00  0.00     0.014 A 
HETATM   26  C   UNL     1     -46.656  60.102 -57.978  1.00  0.00     0.007 A 
HETATM   27  C   UNL     1     -47.332  59.546 -59.067  1.00  0.00    -0.062 A 
HETATM   28  C   UNL     1     -48.546  60.212 -59.644  1.00  0.00     0.048 C 
HETATM   29  C   UNL     1     -46.856  58.355 -59.624  1.00  0.00     0.007 A 
HETATM   30  C   UNL     1     -45.729  57.719 -59.089  1.00  0.00     0.014 A 
ENDBRANCH  22  24
ENDBRANCH   2  18
TORSDOF 6
ENDMDL
