MODEL 1
REMARK VINA RESULT:      -8.1      0.000      0.000
REMARK  8 active torsions:
REMARK  status: ('A' for Active; 'I' for Inactive)
REMARK    1  A    between atoms: C_7  and  C_8 
REMARK    2  A    between atoms: C_8  and  O_9 
REMARK    3  A    between atoms: O_9  and  C_10 
REMARK    4  A    between atoms: C_13  and  C_14 
REMARK       I    between atoms: C_14  and  N_15 
REMARK    5  A    between atoms: N_15  and  C_16 
REMARK    6  A    between atoms: C_16  and  C_17 
REMARK    7  A    between atoms: C_18  and  C_19 
REMARK    8  A    between atoms: C_19  and  N_20 
ROOT
HETATM    1  C   UNL     1     -44.223  57.295 -51.691  1.00  0.00     0.251 C 
HETATM    2  N   UNL     1     -44.487  58.094 -50.597  1.00  0.00    -0.353 N 
HETATM    3  O   UNL     1     -44.711  57.491 -52.797  1.00  0.00    -0.268 OA
HETATM    4  H   UNL     1     -43.923  57.993 -49.765  1.00  0.00     0.163 HD
ENDROOT
BRANCH   1   5
HETATM    5  C   UNL     1     -43.301  56.149 -51.475  1.00  0.00     0.032 A 
HETATM    6  C   UNL     1     -42.321  56.172 -50.477  1.00  0.00     0.020 A 
HETATM    7  C   UNL     1     -41.535  55.040 -50.251  1.00  0.00     0.038 A 
HETATM    8  C   UNL     1     -41.732  53.876 -50.999  1.00  0.00     0.069 A 
HETATM    9  C   UNL     1     -42.689  53.861 -52.013  1.00  0.00     0.038 A 
HETATM   10  C   UNL     1     -43.481  54.992 -52.241  1.00  0.00     0.020 A 
BRANCH   8  11
HETATM   11  O   UNL     1     -40.930  52.829 -50.648  1.00  0.00    -0.347 OA
BRANCH  11  12
HETATM   12  C   UNL     1     -39.675  52.728 -51.324  1.00  0.00     0.219 C 
BRANCH  12  13
HETATM   13  C   UNL     1     -39.744  51.673 -52.368  1.00  0.00     0.024 A 
HETATM   14  C   UNL     1     -39.595  50.269 -52.192  1.00  0.00     0.069 A 
HETATM   15  C   UNL     1     -39.333  49.525 -50.938  1.00  0.00     0.073 C 
HETATM   16  N   UNL     1     -39.718  49.614 -53.352  1.00  0.00    -0.133 NA
HETATM   17  O   UNL     1     -39.938  50.584 -54.310  1.00  0.00    -0.217 OA
HETATM   18  C   UNL     1     -39.950  51.810 -53.724  1.00  0.00     0.085 A 
HETATM   19  C   UNL     1     -40.164  52.961 -54.620  1.00  0.00     0.079 C 
ENDBRANCH  12  13
ENDBRANCH  11  12
ENDBRANCH   8  11
ENDBRANCH   1   5
BRANCH   2  20
HETATM   20  C   UNL     1     -45.459  59.154 -50.679  1.00  0.00     0.162 C 
BRANCH  20  21
HETATM   21  C   UNL     1     -44.849  60.507 -50.389  1.00  0.00    -0.033 A 
HETATM   22  C   UNL     1     -44.085  61.259 -51.310  1.00  0.00    -0.025 A 
HETATM   23  C   UNL     1     -43.575  62.512 -50.908  1.00  0.00     0.009 A 
HETATM   24  C   UNL     1     -43.812  63.012 -49.627  1.00  0.00     0.001 A 
HETATM   25  C   UNL     1     -44.565  62.274 -48.725  1.00  0.00     0.001 A 
HETATM   26  C   UNL     1     -45.080  61.037 -49.103  1.00  0.00     0.009 A 
BRANCH  22  27
HETATM   27  C   UNL     1     -43.775  60.797 -52.712  1.00  0.00     0.274 C 
BRANCH  27  28
HETATM   28  N   UNL     1     -42.300  60.620 -52.983  1.00  0.00    -0.067 N 
HETATM   29  H   UNL     1     -41.879  61.557 -52.925  1.00  0.00     0.280 HD
HETATM   30  C   UNL     1     -42.017  60.062 -54.362  1.00  0.00     0.235 C 
HETATM   31  C   UNL     1     -41.641  58.621 -54.099  1.00  0.00     0.029 C 
HETATM   32  C   UNL     1     -40.812  58.725 -52.836  1.00  0.00     0.029 C 
HETATM   33  C   UNL     1     -41.568  59.733 -51.988  1.00  0.00     0.235 C 
ENDBRANCH  27  28
ENDBRANCH  22  27
ENDBRANCH  20  21
ENDBRANCH   2  20
TORSDOF 8
ENDMDL
MODEL 2
REMARK VINA RESULT:      -7.6      3.478      5.065
REMARK  8 active torsions:
REMARK  status: ('A' for Active; 'I' for Inactive)
REMARK    1  A    between atoms: C_7  and  C_8 
REMARK    2  A    between atoms: C_8  and  O_9 
REMARK    3  A    between atoms: O_9  and  C_10 
REMARK    4  A    between atoms: C_13  and  C_14 
REMARK       I    between atoms: C_14  and  N_15 
REMARK    5  A    between atoms: N_15  and  C_16 
REMARK    6  A    between atoms: C_16  and  C_17 
REMARK    7  A    between atoms: C_18  and  C_19 
REMARK    8  A    between atoms: C_19  and  N_20 
ROOT
HETATM    1  C   UNL     1     -43.592  57.602 -53.505  1.00  0.00     0.251 C 
HETATM    2  N   UNL     1     -44.000  57.504 -54.820  1.00  0.00    -0.353 N 
HETATM    3  O   UNL     1     -43.764  58.606 -52.824  1.00  0.00    -0.268 OA
HETATM    4  H   UNL     1     -43.994  56.601 -55.272  1.00  0.00     0.163 HD
ENDROOT
BRANCH   1   5
HETATM    5  C   UNL     1     -42.912  56.415 -52.926  1.00  0.00     0.032 A 
HETATM    6  C   UNL     1     -41.710  56.528 -52.218  1.00  0.00     0.020 A 
HETATM    7  C   UNL     1     -41.151  55.398 -51.616  1.00  0.00     0.038 A 
HETATM    8  C   UNL     1     -41.791  54.160 -51.695  1.00  0.00     0.069 A 
HETATM    9  C   UNL     1     -42.974  54.039 -52.425  1.00  0.00     0.038 A 
HETATM   10  C   UNL     1     -43.540  55.168 -53.027  1.00  0.00     0.020 A 
BRANCH   8  11
HETATM   11  O   UNL     1     -41.165  53.148 -51.026  1.00  0.00    -0.347 OA
BRANCH  11  12
HETATM   12  C   UNL     1     -39.819  52.859 -51.414  1.00  0.00     0.219 C 
BRANCH  12  13
HETATM   13  C   UNL     1     -39.806  51.782 -52.435  1.00  0.00     0.024 A 
HETATM   14  C   UNL     1     -39.635  50.386 -52.220  1.00  0.00     0.069 A 
HETATM   15  C   UNL     1     -39.426  49.675 -50.936  1.00  0.00     0.073 C 
HETATM   16  N   UNL     1     -39.678  49.703 -53.369  1.00  0.00    -0.133 NA
HETATM   17  O   UNL     1     -39.867  50.646 -54.359  1.00  0.00    -0.217 OA
HETATM   18  C   UNL     1     -39.940  51.884 -53.803  1.00  0.00     0.085 A 
HETATM   19  C   UNL     1     -40.130  53.010 -54.735  1.00  0.00     0.079 C 
ENDBRANCH  12  13
ENDBRANCH  11  12
ENDBRANCH   8  11
ENDBRANCH   1   5
BRANCH   2  20
HETATM   20  C   UNL     1     -44.559  58.643 -55.503  1.00  0.00     0.162 C 
BRANCH  20  21
HETATM   21  C   UNL     1     -43.662  59.132 -56.617  1.00  0.00    -0.033 A 
HETATM   22  C   UNL     1     -43.897  58.914 -57.994  1.00  0.00    -0.025 A 
HETATM   23  C   UNL     1     -42.976  59.431 -58.931  1.00  0.00     0.009 A 
HETATM   24  C   UNL     1     -41.850  60.146 -58.521  1.00  0.00     0.001 A 
HETATM   25  C   UNL     1     -41.623  60.362 -57.169  1.00  0.00     0.001 A 
HETATM   26  C   UNL     1     -42.521  59.864 -56.229  1.00  0.00     0.009 A 
BRANCH  22  27
HETATM   27  C   UNL     1     -45.082  58.151 -58.528  1.00  0.00     0.274 C 
BRANCH  27  28
HETATM   28  N   UNL     1     -44.906  56.650 -58.495  1.00  0.00    -0.067 N 
HETATM   29  H   UNL     1     -45.459  56.310 -57.697  1.00  0.00     0.280 HD
HETATM   30  C   UNL     1     -43.466  56.232 -58.279  1.00  0.00     0.235 C 
HETATM   31  C   UNL     1     -43.018  55.762 -59.645  1.00  0.00     0.029 C 
HETATM   32  C   UNL     1     -44.242  55.031 -60.157  1.00  0.00     0.029 C 
HETATM   33  C   UNL     1     -45.399  55.920 -59.733  1.00  0.00     0.235 C 
ENDBRANCH  27  28
ENDBRANCH  22  27
ENDBRANCH  20  21
ENDBRANCH   2  20
TORSDOF 8
ENDMDL
MODEL 3
REMARK VINA RESULT:      -7.5      4.371      6.355
REMARK  8 active torsions:
REMARK  status: ('A' for Active; 'I' for Inactive)
REMARK    1  A    between atoms: C_7  and  C_8 
REMARK    2  A    between atoms: C_8  and  O_9 
REMARK    3  A    between atoms: O_9  and  C_10 
REMARK    4  A    between atoms: C_13  and  C_14 
REMARK       I    between atoms: C_14  and  N_15 
REMARK    5  A    between atoms: N_15  and  C_16 
REMARK    6  A    between atoms: C_16  and  C_17 
REMARK    7  A    between atoms: C_18  and  C_19 
REMARK    8  A    between atoms: C_19  and  N_20 
ROOT
HETATM    1  C   UNL     1     -44.020  57.994 -56.009  1.00  0.00     0.251 C 
HETATM    2  N   UNL     1     -43.264  58.721 -56.906  1.00  0.00    -0.353 N 
HETATM    3  O   UNL     1     -45.152  58.318 -55.670  1.00  0.00    -0.268 OA
HETATM    4  H   UNL     1     -42.419  58.315 -57.281  1.00  0.00     0.163 HD
ENDROOT
BRANCH   1   5
HETATM    5  C   UNL     1     -43.394  56.771 -55.444  1.00  0.00     0.032 A 
HETATM    6  C   UNL     1     -44.070  55.952 -54.532  1.00  0.00     0.020 A 
HETATM    7  C   UNL     1     -43.477  54.765 -54.095  1.00  0.00     0.038 A 
HETATM    8  C   UNL     1     -42.224  54.376 -54.575  1.00  0.00     0.069 A 
HETATM    9  C   UNL     1     -41.537  55.205 -55.461  1.00  0.00     0.038 A 
HETATM   10  C   UNL     1     -42.127  56.393 -55.905  1.00  0.00     0.020 A 
BRANCH   8  11
HETATM   11  O   UNL     1     -41.779  53.175 -54.103  1.00  0.00    -0.347 OA
BRANCH  11  12
HETATM   12  C   UNL     1     -40.365  52.965 -54.117  1.00  0.00     0.219 C 
BRANCH  12  13
HETATM   13  C   UNL     1     -40.005  51.877 -53.172  1.00  0.00     0.024 A 
HETATM   14  C   UNL     1     -39.821  51.978 -51.765  1.00  0.00     0.069 A 
HETATM   15  C   UNL     1     -39.939  53.181 -50.909  1.00  0.00     0.073 C 
HETATM   16  N   UNL     1     -39.501  50.796 -51.227  1.00  0.00    -0.133 NA
HETATM   17  O   UNL     1     -39.460  49.903 -52.279  1.00  0.00    -0.217 OA
HETATM   18  C   UNL     1     -39.756  50.548 -53.437  1.00  0.00     0.085 A 
HETATM   19  C   UNL     1     -39.741  49.730 -54.664  1.00  0.00     0.079 C 
ENDBRANCH  12  13
ENDBRANCH  11  12
ENDBRANCH   8  11
ENDBRANCH   1   5
BRANCH   2  20
HETATM   20  C   UNL     1     -43.738  59.983 -57.414  1.00  0.00     0.162 C 
BRANCH  20  21
HETATM   21  C   UNL     1     -42.974  60.424 -58.641  1.00  0.00    -0.033 A 
HETATM   22  C   UNL     1     -43.252  59.998 -59.960  1.00  0.00    -0.025 A 
HETATM   23  C   UNL     1     -42.458  60.492 -61.017  1.00  0.00     0.009 A 
HETATM   24  C   UNL     1     -41.414  61.386 -60.780  1.00  0.00     0.001 A 
HETATM   25  C   UNL     1     -41.143  61.806 -59.485  1.00  0.00     0.001 A 
HETATM   26  C   UNL     1     -41.917  61.333 -58.429  1.00  0.00     0.009 A 
BRANCH  22  27
HETATM   27  C   UNL     1     -44.357  59.032 -60.309  1.00  0.00     0.274 C 
BRANCH  27  28
HETATM   28  N   UNL     1     -43.863  57.664 -60.718  1.00  0.00    -0.067 N 
HETATM   29  H   UNL     1     -43.787  57.677 -61.744  1.00  0.00     0.280 HD
HETATM   30  C   UNL     1     -44.818  56.554 -60.333  1.00  0.00     0.235 C 
HETATM   31  C   UNL     1     -44.150  55.900 -59.144  1.00  0.00     0.029 C 
HETATM   32  C   UNL     1     -42.689  55.915 -59.541  1.00  0.00     0.029 C 
HETATM   33  C   UNL     1     -42.498  57.286 -60.167  1.00  0.00     0.235 C 
ENDBRANCH  27  28
ENDBRANCH  22  27
ENDBRANCH  20  21
ENDBRANCH   2  20
TORSDOF 8
ENDMDL
MODEL 4
REMARK VINA RESULT:      -7.5      2.582      9.306
REMARK  8 active torsions:
REMARK  status: ('A' for Active; 'I' for Inactive)
REMARK    1  A    between atoms: C_7  and  C_8 
REMARK    2  A    between atoms: C_8  and  O_9 
REMARK    3  A    between atoms: O_9  and  C_10 
REMARK    4  A    between atoms: C_13  and  C_14 
REMARK       I    between atoms: C_14  and  N_15 
REMARK    5  A    between atoms: N_15  and  C_16 
REMARK    6  A    between atoms: C_16  and  C_17 
REMARK    7  A    between atoms: C_18  and  C_19 
REMARK    8  A    between atoms: C_19  and  N_20 
ROOT
HETATM    1  C   UNL     1     -41.579  54.791 -50.314  1.00  0.00     0.251 C 
HETATM    2  N   UNL     1     -40.625  54.314 -51.190  1.00  0.00    -0.353 N 
HETATM    3  O   UNL     1     -41.787  54.292 -49.214  1.00  0.00    -0.268 OA
HETATM    4  H   UNL     1     -40.375  54.868 -51.997  1.00  0.00     0.163 HD
ENDROOT
BRANCH   1   5
HETATM    5  C   UNL     1     -42.373  55.963 -50.764  1.00  0.00     0.032 A 
HETATM    6  C   UNL     1     -43.772  55.962 -50.726  1.00  0.00     0.020 A 
HETATM    7  C   UNL     1     -44.476  57.116 -51.076  1.00  0.00     0.038 A 
HETATM    8  C   UNL     1     -43.797  58.280 -51.445  1.00  0.00     0.069 A 
HETATM    9  C   UNL     1     -42.404  58.274 -51.512  1.00  0.00     0.038 A 
HETATM   10  C   UNL     1     -41.694  57.121 -51.159  1.00  0.00     0.020 A 
BRANCH   8  11
HETATM   11  O   UNL     1     -44.600  59.349 -51.718  1.00  0.00    -0.347 OA
BRANCH  11  12
HETATM   12  C   UNL     1     -45.771  59.494 -50.912  1.00  0.00     0.219 C 
BRANCH  12  13
HETATM   13  C   UNL     1     -45.980  60.925 -50.574  1.00  0.00     0.024 A 
HETATM   14  C   UNL     1     -46.705  61.895 -51.321  1.00  0.00     0.069 A 
HETATM   15  C   UNL     1     -47.418  61.716 -52.608  1.00  0.00     0.073 C 
HETATM   16  N   UNL     1     -46.690  63.089 -50.718  1.00  0.00    -0.133 NA
HETATM   17  O   UNL     1     -45.943  62.921 -49.570  1.00  0.00    -0.217 OA
HETATM   18  C   UNL     1     -45.518  61.634 -49.486  1.00  0.00     0.085 A 
HETATM   19  C   UNL     1     -44.691  61.293 -48.314  1.00  0.00     0.079 C 
ENDBRANCH  12  13
ENDBRANCH  11  12
ENDBRANCH   8  11
ENDBRANCH   1   5
BRANCH   2  20
HETATM   20  C   UNL     1     -39.889  53.111 -50.892  1.00  0.00     0.162 C 
BRANCH  20  21
HETATM   21  C   UNL     1     -39.917  52.130 -52.042  1.00  0.00    -0.033 A 
HETATM   22  C   UNL     1     -40.168  52.477 -53.390  1.00  0.00    -0.025 A 
HETATM   23  C   UNL     1     -40.162  51.457 -54.367  1.00  0.00     0.009 A 
HETATM   24  C   UNL     1     -39.915  50.128 -54.024  1.00  0.00     0.001 A 
HETATM   25  C   UNL     1     -39.665  49.790 -52.701  1.00  0.00     0.001 A 
HETATM   26  C   UNL     1     -39.663  50.781 -51.723  1.00  0.00     0.009 A 
BRANCH  22  27
HETATM   27  C   UNL     1     -40.450  53.885 -53.851  1.00  0.00     0.274 C 
BRANCH  27  28
HETATM   28  N   UNL     1     -41.719  54.018 -54.660  1.00  0.00    -0.067 N 
HETATM   29  H   UNL     1     -41.772  53.183 -55.258  1.00  0.00     0.280 HD
HETATM   30  C   UNL     1     -41.719  55.238 -55.558  1.00  0.00     0.235 C 
HETATM   31  C   UNL     1     -42.647  56.203 -54.855  1.00  0.00     0.029 C 
HETATM   32  C   UNL     1     -43.745  55.291 -54.349  1.00  0.00     0.029 C 
HETATM   33  C   UNL     1     -42.998  54.071 -53.840  1.00  0.00     0.235 C 
ENDBRANCH  27  28
ENDBRANCH  22  27
ENDBRANCH  20  21
ENDBRANCH   2  20
TORSDOF 8
ENDMDL
MODEL 5
REMARK VINA RESULT:      -7.5      4.288      6.271
REMARK  8 active torsions:
REMARK  status: ('A' for Active; 'I' for Inactive)
REMARK    1  A    between atoms: C_7  and  C_8 
REMARK    2  A    between atoms: C_8  and  O_9 
REMARK    3  A    between atoms: O_9  and  C_10 
REMARK    4  A    between atoms: C_13  and  C_14 
REMARK       I    between atoms: C_14  and  N_15 
REMARK    5  A    between atoms: N_15  and  C_16 
REMARK    6  A    between atoms: C_16  and  C_17 
REMARK    7  A    between atoms: C_18  and  C_19 
REMARK    8  A    between atoms: C_19  and  N_20 
ROOT
HETATM    1  C   UNL     1     -43.967  57.929 -55.796  1.00  0.00     0.251 C 
HETATM    2  N   UNL     1     -43.380  58.552 -56.879  1.00  0.00    -0.353 N 
HETATM    3  O   UNL     1     -44.965  58.365 -55.234  1.00  0.00    -0.268 OA
HETATM    4  H   UNL     1     -42.675  58.058 -57.409  1.00  0.00     0.163 HD
ENDROOT
BRANCH   1   5
HETATM    5  C   UNL     1     -43.327  56.677 -55.317  1.00  0.00     0.032 A 
HETATM    6  C   UNL     1     -43.934  55.863 -54.354  1.00  0.00     0.020 A 
HETATM    7  C   UNL     1     -43.339  54.651 -53.996  1.00  0.00     0.038 A 
HETATM    8  C   UNL     1     -42.154  54.232 -54.606  1.00  0.00     0.069 A 
HETATM    9  C   UNL     1     -41.533  55.056 -55.545  1.00  0.00     0.038 A 
HETATM   10  C   UNL     1     -42.126  56.270 -55.909  1.00  0.00     0.020 A 
BRANCH   8  11
HETATM   11  O   UNL     1     -41.703  53.010 -54.201  1.00  0.00    -0.347 OA
BRANCH  11  12
HETATM   12  C   UNL     1     -40.287  52.854 -54.088  1.00  0.00     0.219 C 
BRANCH  12  13
HETATM   13  C   UNL     1     -39.969  51.828 -53.062  1.00  0.00     0.024 A 
HETATM   14  C   UNL     1     -39.716  50.444 -53.270  1.00  0.00     0.069 A 
HETATM   15  C   UNL     1     -39.711  49.695 -54.549  1.00  0.00     0.073 C 
HETATM   16  N   UNL     1     -39.462  49.813 -52.118  1.00  0.00    -0.133 NA
HETATM   17  O   UNL     1     -39.557  50.776 -51.133  1.00  0.00    -0.217 OA
HETATM   18  C   UNL     1     -39.862  51.975 -51.695  1.00  0.00     0.085 A 
HETATM   19  C   UNL     1     -40.012  53.112 -50.769  1.00  0.00     0.079 C 
ENDBRANCH  12  13
ENDBRANCH  11  12
ENDBRANCH   8  11
ENDBRANCH   1   5
BRANCH   2  20
HETATM   20  C   UNL     1     -43.856  59.831 -57.339  1.00  0.00     0.162 C 
BRANCH  20  21
HETATM   21  C   UNL     1     -43.040  60.357 -58.498  1.00  0.00    -0.033 A 
HETATM   22  C   UNL     1     -43.260  60.025 -59.854  1.00  0.00    -0.025 A 
HETATM   23  C   UNL     1     -42.422  60.592 -60.838  1.00  0.00     0.009 A 
HETATM   24  C   UNL     1     -41.390  61.465 -60.494  1.00  0.00     0.001 A 
HETATM   25  C   UNL     1     -41.177  61.793 -59.162  1.00  0.00     0.001 A 
HETATM   26  C   UNL     1     -41.995  61.247 -58.176  1.00  0.00     0.009 A 
BRANCH  22  27
HETATM   27  C   UNL     1     -44.347  59.088 -60.318  1.00  0.00     0.274 C 
BRANCH  27  28
HETATM   28  N   UNL     1     -43.840  57.728 -60.739  1.00  0.00    -0.067 N 
HETATM   29  H   UNL     1     -43.748  57.756 -61.763  1.00  0.00     0.280 HD
HETATM   30  C   UNL     1     -44.795  56.608 -60.383  1.00  0.00     0.235 C 
HETATM   31  C   UNL     1     -44.141  55.941 -59.193  1.00  0.00     0.029 C 
HETATM   32  C   UNL     1     -42.674  55.969 -59.568  1.00  0.00     0.029 C 
HETATM   33  C   UNL     1     -42.481  57.349 -60.173  1.00  0.00     0.235 C 
ENDBRANCH  27  28
ENDBRANCH  22  27
ENDBRANCH  20  21
ENDBRANCH   2  20
TORSDOF 8
ENDMDL
MODEL 6
REMARK VINA RESULT:      -7.4      3.948      5.652
REMARK  8 active torsions:
REMARK  status: ('A' for Active; 'I' for Inactive)
REMARK    1  A    between atoms: C_7  and  C_8 
REMARK    2  A    between atoms: C_8  and  O_9 
REMARK    3  A    between atoms: O_9  and  C_10 
REMARK    4  A    between atoms: C_13  and  C_14 
REMARK       I    between atoms: C_14  and  N_15 
REMARK    5  A    between atoms: N_15  and  C_16 
REMARK    6  A    between atoms: C_16  and  C_17 
REMARK    7  A    between atoms: C_18  and  C_19 
REMARK    8  A    between atoms: C_19  and  N_20 
ROOT
HETATM    1  C   UNL     1     -43.653  57.669 -54.061  1.00  0.00     0.251 C 
HETATM    2  N   UNL     1     -44.132  57.333 -55.311  1.00  0.00    -0.353 N 
HETATM    3  O   UNL     1     -43.669  58.814 -53.624  1.00  0.00    -0.268 OA
HETATM    4  H   UNL     1     -44.257  56.358 -55.545  1.00  0.00     0.163 HD
ENDROOT
BRANCH   1   5
HETATM    5  C   UNL     1     -43.094  56.564 -53.240  1.00  0.00     0.032 A 
HETATM    6  C   UNL     1     -43.631  55.272 -53.282  1.00  0.00     0.020 A 
HETATM    7  C   UNL     1     -43.020  54.244 -52.560  1.00  0.00     0.038 A 
HETATM    8  C   UNL     1     -41.866  54.488 -51.812  1.00  0.00     0.069 A 
HETATM    9  C   UNL     1     -41.347  55.781 -51.745  1.00  0.00     0.038 A 
HETATM   10  C   UNL     1     -41.953  56.814 -52.468  1.00  0.00     0.020 A 
BRANCH   8  11
HETATM   11  O   UNL     1     -41.344  53.390 -51.192  1.00  0.00    -0.347 OA
BRANCH  11  12
HETATM   12  C   UNL     1     -39.973  53.091 -51.464  1.00  0.00     0.219 C 
BRANCH  12  13
HETATM   13  C   UNL     1     -39.881  52.023 -52.491  1.00  0.00     0.024 A 
HETATM   14  C   UNL     1     -39.668  50.632 -52.279  1.00  0.00     0.069 A 
HETATM   15  C   UNL     1     -39.483  49.918 -50.993  1.00  0.00     0.073 C 
HETATM   16  N   UNL     1     -39.642  49.958 -53.434  1.00  0.00    -0.133 NA
HETATM   17  O   UNL     1     -39.827  50.902 -54.424  1.00  0.00    -0.217 OA
HETATM   18  C   UNL     1     -39.966  52.131 -53.863  1.00  0.00     0.085 A 
HETATM   19  C   UNL     1     -40.160  53.257 -54.794  1.00  0.00     0.079 C 
ENDBRANCH  12  13
ENDBRANCH  11  12
ENDBRANCH   8  11
ENDBRANCH   1   5
BRANCH   2  20
HETATM   20  C   UNL     1     -44.581  58.352 -56.225  1.00  0.00     0.162 C 
BRANCH  20  21
HETATM   21  C   UNL     1     -45.017  57.772 -57.552  1.00  0.00    -0.033 A 
HETATM   22  C   UNL     1     -44.176  57.051 -58.430  1.00  0.00    -0.025 A 
HETATM   23  C   UNL     1     -44.715  56.561 -59.639  1.00  0.00     0.009 A 
HETATM   24  C   UNL     1     -46.052  56.777 -59.975  1.00  0.00     0.001 A 
HETATM   25  C   UNL     1     -46.877  57.482 -59.110  1.00  0.00     0.001 A 
HETATM   26  C   UNL     1     -46.365  57.971 -57.910  1.00  0.00     0.009 A 
BRANCH  22  27
HETATM   27  C   UNL     1     -42.719  56.773 -58.152  1.00  0.00     0.274 C 
BRANCH  27  28
HETATM   28  N   UNL     1     -41.774  57.705 -58.872  1.00  0.00    -0.067 N 
HETATM   29  H   UNL     1     -40.830  57.318 -58.746  1.00  0.00     0.280 HD
HETATM   30  C   UNL     1     -41.785  59.110 -58.304  1.00  0.00     0.235 C 
HETATM   31  C   UNL     1     -42.567  59.906 -59.325  1.00  0.00     0.029 C 
HETATM   32  C   UNL     1     -42.081  59.325 -60.635  1.00  0.00     0.029 C 
HETATM   33  C   UNL     1     -42.015  57.831 -60.368  1.00  0.00     0.235 C 
ENDBRANCH  27  28
ENDBRANCH  22  27
ENDBRANCH  20  21
ENDBRANCH   2  20
TORSDOF 8
ENDMDL
MODEL 7
REMARK VINA RESULT:      -7.3      1.939      3.278
REMARK  8 active torsions:
REMARK  status: ('A' for Active; 'I' for Inactive)
REMARK    1  A    between atoms: C_7  and  C_8 
REMARK    2  A    between atoms: C_8  and  O_9 
REMARK    3  A    between atoms: O_9  and  C_10 
REMARK    4  A    between atoms: C_13  and  C_14 
REMARK       I    between atoms: C_14  and  N_15 
REMARK    5  A    between atoms: N_15  and  C_16 
REMARK    6  A    between atoms: C_16  and  C_17 
REMARK    7  A    between atoms: C_18  and  C_19 
REMARK    8  A    between atoms: C_19  and  N_20 
ROOT
HETATM    1  C   UNL     1     -43.895  58.151 -55.083  1.00  0.00     0.251 C 
HETATM    2  N   UNL     1     -43.150  59.144 -54.478  1.00  0.00    -0.353 N 
HETATM    3  O   UNL     1     -44.969  58.361 -55.634  1.00  0.00    -0.268 OA
HETATM    4  H   UNL     1     -42.199  58.947 -54.201  1.00  0.00     0.163 HD
ENDROOT
BRANCH   1   5
HETATM    5  C   UNL     1     -43.336  56.775 -55.038  1.00  0.00     0.032 A 
HETATM    6  C   UNL     1     -42.047  56.489 -55.500  1.00  0.00     0.020 A 
HETATM    7  C   UNL     1     -41.530  55.199 -55.358  1.00  0.00     0.038 A 
HETATM    8  C   UNL     1     -42.280  54.196 -54.740  1.00  0.00     0.069 A 
HETATM    9  C   UNL     1     -43.576  54.471 -54.306  1.00  0.00     0.038 A 
HETATM   10  C   UNL     1     -44.098  55.762 -54.443  1.00  0.00     0.020 A 
BRANCH   8  11
HETATM   11  O   UNL     1     -41.642  52.995 -54.624  1.00  0.00    -0.347 OA
BRANCH  11  12
HETATM   12  C   UNL     1     -40.258  53.035 -54.269  1.00  0.00     0.219 C 
BRANCH  12  13
HETATM   13  C   UNL     1     -39.982  52.054 -53.189  1.00  0.00     0.024 A 
HETATM   14  C   UNL     1     -39.756  50.656 -53.324  1.00  0.00     0.069 A 
HETATM   15  C   UNL     1     -39.746  49.845 -54.565  1.00  0.00     0.073 C 
HETATM   16  N   UNL     1     -39.538  50.077 -52.138  1.00  0.00    -0.133 NA
HETATM   17  O   UNL     1     -39.629  51.089 -51.204  1.00  0.00    -0.217 OA
HETATM   18  C   UNL     1     -39.897  52.265 -51.830  1.00  0.00     0.085 A 
HETATM   19  C   UNL     1     -40.038  53.450 -50.963  1.00  0.00     0.079 C 
ENDBRANCH  12  13
ENDBRANCH  11  12
ENDBRANCH   8  11
ENDBRANCH   1   5
BRANCH   2  20
HETATM   20  C   UNL     1     -43.666  60.484 -54.366  1.00  0.00     0.162 C 
BRANCH  20  21
HETATM   21  C   UNL     1     -44.511  60.665 -53.125  1.00  0.00    -0.033 A 
HETATM   22  C   UNL     1     -44.030  60.553 -51.801  1.00  0.00    -0.025 A 
HETATM   23  C   UNL     1     -44.931  60.749 -50.731  1.00  0.00     0.009 A 
HETATM   24  C   UNL     1     -46.274  61.048 -50.962  1.00  0.00     0.001 A 
HETATM   25  C   UNL     1     -46.743  61.160 -52.263  1.00  0.00     0.001 A 
HETATM   26  C   UNL     1     -45.871  60.974 -53.332  1.00  0.00     0.009 A 
BRANCH  22  27
HETATM   27  C   UNL     1     -42.598  60.229 -51.457  1.00  0.00     0.274 C 
BRANCH  27  28
HETATM   28  N   UNL     1     -42.429  58.916 -50.729  1.00  0.00    -0.067 N 
HETATM   29  H   UNL     1     -42.679  59.093 -49.747  1.00  0.00     0.280 HD
HETATM   30  C   UNL     1     -41.004  58.403 -50.765  1.00  0.00     0.235 C 
HETATM   31  C   UNL     1     -41.052  57.276 -51.773  1.00  0.00     0.029 C 
HETATM   32  C   UNL     1     -42.380  56.618 -51.465  1.00  0.00     0.029 C 
HETATM   33  C   UNL     1     -43.318  57.789 -51.227  1.00  0.00     0.235 C 
ENDBRANCH  27  28
ENDBRANCH  22  27
ENDBRANCH  20  21
ENDBRANCH   2  20
TORSDOF 8
ENDMDL
MODEL 8
REMARK VINA RESULT:      -7.3      2.623      8.830
REMARK  8 active torsions:
REMARK  status: ('A' for Active; 'I' for Inactive)
REMARK    1  A    between atoms: C_7  and  C_8 
REMARK    2  A    between atoms: C_8  and  O_9 
REMARK    3  A    between atoms: O_9  and  C_10 
REMARK    4  A    between atoms: C_13  and  C_14 
REMARK       I    between atoms: C_14  and  N_15 
REMARK    5  A    between atoms: N_15  and  C_16 
REMARK    6  A    between atoms: C_16  and  C_17 
REMARK    7  A    between atoms: C_18  and  C_19 
REMARK    8  A    between atoms: C_19  and  N_20 
ROOT
HETATM    1  C   UNL     1     -41.547  54.673 -50.252  1.00  0.00     0.251 C 
HETATM    2  N   UNL     1     -40.606  54.202 -51.146  1.00  0.00    -0.353 N 
HETATM    3  O   UNL     1     -41.720  54.183 -49.142  1.00  0.00    -0.268 OA
HETATM    4  H   UNL     1     -40.386  54.752 -51.964  1.00  0.00     0.163 HD
ENDROOT
BRANCH   1   5
HETATM    5  C   UNL     1     -42.372  55.826 -50.695  1.00  0.00     0.032 A 
HETATM    6  C   UNL     1     -43.771  55.777 -50.684  1.00  0.00     0.020 A 
HETATM    7  C   UNL     1     -44.507  56.914 -51.026  1.00  0.00     0.038 A 
HETATM    8  C   UNL     1     -43.861  58.107 -51.359  1.00  0.00     0.069 A 
HETATM    9  C   UNL     1     -42.467  58.149 -51.400  1.00  0.00     0.038 A 
HETATM   10  C   UNL     1     -41.725  57.014 -51.055  1.00  0.00     0.020 A 
BRANCH   8  11
HETATM   11  O   UNL     1     -44.694  59.153 -51.628  1.00  0.00    -0.347 OA
BRANCH  11  12
HETATM   12  C   UNL     1     -44.972  59.415 -53.006  1.00  0.00     0.219 C 
BRANCH  12  13
HETATM   13  C   UNL     1     -44.349  60.699 -53.415  1.00  0.00     0.024 A 
HETATM   14  C   UNL     1     -44.874  62.010 -53.244  1.00  0.00     0.069 A 
HETATM   15  C   UNL     1     -46.162  62.409 -52.628  1.00  0.00     0.073 C 
HETATM   16  N   UNL     1     -44.043  62.939 -53.731  1.00  0.00    -0.133 NA
HETATM   17  O   UNL     1     -42.962  62.247 -54.239  1.00  0.00    -0.217 OA
HETATM   18  C   UNL     1     -43.146  60.913 -54.053  1.00  0.00     0.085 A 
HETATM   19  C   UNL     1     -42.079  60.029 -54.556  1.00  0.00     0.079 C 
ENDBRANCH  12  13
ENDBRANCH  11  12
ENDBRANCH   8  11
ENDBRANCH   1   5
BRANCH   2  20
HETATM   20  C   UNL     1     -39.843  53.016 -50.853  1.00  0.00     0.162 C 
BRANCH  20  21
HETATM   21  C   UNL     1     -39.873  52.027 -51.996  1.00  0.00    -0.033 A 
HETATM   22  C   UNL     1     -40.105  52.367 -53.348  1.00  0.00    -0.025 A 
HETATM   23  C   UNL     1     -40.103  51.340 -54.318  1.00  0.00     0.009 A 
HETATM   24  C   UNL     1     -39.876  50.010 -53.962  1.00  0.00     0.001 A 
HETATM   25  C   UNL     1     -39.645  49.679 -52.635  1.00  0.00     0.001 A 
HETATM   26  C   UNL     1     -39.639  50.677 -51.664  1.00  0.00     0.009 A 
BRANCH  22  27
HETATM   27  C   UNL     1     -40.363  53.775 -53.823  1.00  0.00     0.274 C 
BRANCH  27  28
HETATM   28  N   UNL     1     -41.635  53.923 -54.626  1.00  0.00    -0.067 N 
HETATM   29  H   UNL     1     -41.691  53.098 -55.238  1.00  0.00     0.280 HD
HETATM   30  C   UNL     1     -41.637  55.159 -55.501  1.00  0.00     0.235 C 
HETATM   31  C   UNL     1     -42.562  56.112 -54.779  1.00  0.00     0.029 C 
HETATM   32  C   UNL     1     -43.659  55.192 -54.286  1.00  0.00     0.029 C 
HETATM   33  C   UNL     1     -42.911  53.963 -53.801  1.00  0.00     0.235 C 
ENDBRANCH  27  28
ENDBRANCH  22  27
ENDBRANCH  20  21
ENDBRANCH   2  20
TORSDOF 8
ENDMDL
MODEL 9
REMARK VINA RESULT:      -7.3      3.623      5.631
REMARK  8 active torsions:
REMARK  status: ('A' for Active; 'I' for Inactive)
REMARK    1  A    between atoms: C_7  and  C_8 
REMARK    2  A    between atoms: C_8  and  O_9 
REMARK    3  A    between atoms: O_9  and  C_10 
REMARK    4  A    between atoms: C_13  and  C_14 
REMARK       I    between atoms: C_14  and  N_15 
REMARK    5  A    between atoms: N_15  and  C_16 
REMARK    6  A    between atoms: C_16  and  C_17 
REMARK    7  A    between atoms: C_18  and  C_19 
REMARK    8  A    between atoms: C_19  and  N_20 
ROOT
HETATM    1  C   UNL     1     -43.299  57.188 -54.451  1.00  0.00     0.251 C 
HETATM    2  N   UNL     1     -44.008  56.721 -55.539  1.00  0.00    -0.353 N 
HETATM    3  O   UNL     1     -43.080  58.378 -54.255  1.00  0.00    -0.268 OA
HETATM    4  H   UNL     1     -44.309  55.757 -55.553  1.00  0.00     0.163 HD
ENDROOT
BRANCH   1   5
HETATM    5  C   UNL     1     -42.789  56.169 -53.497  1.00  0.00     0.032 A 
HETATM    6  C   UNL     1     -43.359  54.894 -53.409  1.00  0.00     0.020 A 
HETATM    7  C   UNL     1     -42.792  53.939 -52.562  1.00  0.00     0.038 A 
HETATM    8  C   UNL     1     -41.650  54.237 -51.816  1.00  0.00     0.069 A 
HETATM    9  C   UNL     1     -41.098  55.516 -51.881  1.00  0.00     0.038 A 
HETATM   10  C   UNL     1     -41.659  56.476 -52.730  1.00  0.00     0.020 A 
BRANCH   8  11
HETATM   11  O   UNL     1     -41.171  53.203 -51.064  1.00  0.00    -0.347 OA
BRANCH  11  12
HETATM   12  C   UNL     1     -39.824  52.797 -51.315  1.00  0.00     0.219 C 
BRANCH  12  13
HETATM   13  C   UNL     1     -39.802  51.698 -52.313  1.00  0.00     0.024 A 
HETATM   14  C   UNL     1     -39.663  50.304 -52.064  1.00  0.00     0.069 A 
HETATM   15  C   UNL     1     -39.503  49.617 -50.761  1.00  0.00     0.073 C 
HETATM   16  N   UNL     1     -39.687  49.598 -53.200  1.00  0.00    -0.133 NA
HETATM   17  O   UNL     1     -39.832  50.523 -54.214  1.00  0.00    -0.217 OA
HETATM   18  C   UNL     1     -39.896  51.773 -53.686  1.00  0.00     0.085 A 
HETATM   19  C   UNL     1     -40.039  52.883 -54.647  1.00  0.00     0.079 C 
ENDBRANCH  12  13
ENDBRANCH  11  12
ENDBRANCH   8  11
ENDBRANCH   1   5
BRANCH   2  20
HETATM   20  C   UNL     1     -44.438  57.621 -56.578  1.00  0.00     0.162 C 
BRANCH  20  21
HETATM   21  C   UNL     1     -43.567  57.521 -57.810  1.00  0.00    -0.033 A 
HETATM   22  C   UNL     1     -42.735  58.557 -58.294  1.00  0.00    -0.025 A 
HETATM   23  C   UNL     1     -41.970  58.327 -59.458  1.00  0.00     0.009 A 
HETATM   24  C   UNL     1     -42.026  57.106 -60.131  1.00  0.00     0.001 A 
HETATM   25  C   UNL     1     -42.841  56.090 -59.653  1.00  0.00     0.001 A 
HETATM   26  C   UNL     1     -43.600  56.295 -58.504  1.00  0.00     0.009 A 
BRANCH  22  27
HETATM   27  C   UNL     1     -42.615  59.908 -57.635  1.00  0.00     0.274 C 
BRANCH  27  28
HETATM   28  N   UNL     1     -43.253  61.028 -58.424  1.00  0.00    -0.067 N 
HETATM   29  H   UNL     1     -42.727  61.099 -59.305  1.00  0.00     0.280 HD
HETATM   30  C   UNL     1     -43.170  62.366 -57.718  1.00  0.00     0.235 C 
HETATM   31  C   UNL     1     -44.574  62.589 -57.202  1.00  0.00     0.029 C 
HETATM   32  C   UNL     1     -45.427  62.072 -58.341  1.00  0.00     0.029 C 
HETATM   33  C   UNL     1     -44.713  60.806 -58.784  1.00  0.00     0.235 C 
ENDBRANCH  27  28
ENDBRANCH  22  27
ENDBRANCH  20  21
ENDBRANCH   2  20
TORSDOF 8
ENDMDL
MODEL 10
REMARK VINA RESULT:      -7.2      2.309      9.175
REMARK  8 active torsions:
REMARK  status: ('A' for Active; 'I' for Inactive)
REMARK    1  A    between atoms: C_7  and  C_8 
REMARK    2  A    between atoms: C_8  and  O_9 
REMARK    3  A    between atoms: O_9  and  C_10 
REMARK    4  A    between atoms: C_13  and  C_14 
REMARK       I    between atoms: C_14  and  N_15 
REMARK    5  A    between atoms: N_15  and  C_16 
REMARK    6  A    between atoms: C_16  and  C_17 
REMARK    7  A    between atoms: C_18  and  C_19 
REMARK    8  A    between atoms: C_19  and  N_20 
ROOT
HETATM    1  C   UNL     1     -41.757  54.961 -54.458  1.00  0.00     0.251 C 
HETATM    2  N   UNL     1     -40.611  54.257 -54.148  1.00  0.00    -0.353 N 
HETATM    3  O   UNL     1     -42.627  54.529 -55.205  1.00  0.00    -0.268 OA
HETATM    4  H   UNL     1     -40.022  54.581 -53.395  1.00  0.00     0.163 HD
ENDROOT
BRANCH   1   5
HETATM    5  C   UNL     1     -41.903  56.305 -53.841  1.00  0.00     0.032 A 
HETATM    6  C   UNL     1     -43.159  56.846 -53.548  1.00  0.00     0.020 A 
HETATM    7  C   UNL     1     -43.247  58.075 -52.888  1.00  0.00     0.038 A 
HETATM    8  C   UNL     1     -42.093  58.759 -52.500  1.00  0.00     0.069 A 
HETATM    9  C   UNL     1     -40.840  58.234 -52.818  1.00  0.00     0.038 A 
HETATM   10  C   UNL     1     -40.746  57.003 -53.475  1.00  0.00     0.020 A 
BRANCH   8  11
HETATM   11  O   UNL     1     -42.318  59.923 -51.824  1.00  0.00    -0.347 OA
BRANCH  11  12
HETATM   12  C   UNL     1     -43.520  60.628 -52.144  1.00  0.00     0.219 C 
BRANCH  12  13
HETATM   13  C   UNL     1     -44.243  60.989 -50.898  1.00  0.00     0.024 A 
HETATM   14  C   UNL     1     -45.324  60.289 -50.290  1.00  0.00     0.069 A 
HETATM   15  C   UNL     1     -45.986  59.046 -50.751  1.00  0.00     0.073 C 
HETATM   16  N   UNL     1     -45.734  60.898 -49.172  1.00  0.00    -0.133 NA
HETATM   17  O   UNL     1     -44.934  62.014 -49.036  1.00  0.00    -0.217 OA
HETATM   18  C   UNL     1     -44.049  62.070 -50.066  1.00  0.00     0.085 A 
HETATM   19  C   UNL     1     -43.124  63.218 -50.073  1.00  0.00     0.079 C 
ENDBRANCH  12  13
ENDBRANCH  11  12
ENDBRANCH   8  11
ENDBRANCH   1   5
BRANCH   2  20
HETATM   20  C   UNL     1     -40.324  52.999 -54.790  1.00  0.00     0.162 C 
BRANCH  20  21
HETATM   21  C   UNL     1     -40.049  51.901 -53.789  1.00  0.00    -0.033 A 
HETATM   22  C   UNL     1     -39.860  52.104 -52.403  1.00  0.00    -0.025 A 
HETATM   23  C   UNL     1     -39.613  50.985 -51.578  1.00  0.00     0.009 A 
HETATM   24  C   UNL     1     -39.554  49.696 -52.108  1.00  0.00     0.001 A 
HETATM   25  C   UNL     1     -39.743  49.498 -53.468  1.00  0.00     0.001 A 
HETATM   26  C   UNL     1     -39.992  50.588 -54.298  1.00  0.00     0.009 A 
BRANCH  22  27
HETATM   27  C   UNL     1     -39.902  53.461 -51.744  1.00  0.00     0.274 C 
BRANCH  27  28
HETATM   28  N   UNL     1     -40.791  53.517 -50.524  1.00  0.00    -0.067 N 
HETATM   29  H   UNL     1     -40.952  52.543 -50.236  1.00  0.00     0.280 HD
HETATM   30  C   UNL     1     -42.136  54.154 -50.803  1.00  0.00     0.235 C 
HETATM   31  C   UNL     1     -42.022  55.527 -50.180  1.00  0.00     0.029 C 
HETATM   32  C   UNL     1     -41.258  55.244 -48.904  1.00  0.00     0.029 C 
HETATM   33  C   UNL     1     -40.194  54.248 -49.332  1.00  0.00     0.235 C 
ENDBRANCH  27  28
ENDBRANCH  22  27
ENDBRANCH  20  21
ENDBRANCH   2  20
TORSDOF 8
ENDMDL
