MODEL 1
REMARK VINA RESULT:      -8.6      0.000      0.000
REMARK  6 active torsions:
REMARK  status: ('A' for Active; 'I' for Inactive)
REMARK    1  A    between atoms: C_2  and  O_3 
REMARK    2  A    between atoms: O_3  and  C_4 
REMARK    3  A    between atoms: C_5  and  O_6 
REMARK    4  A    between atoms: C_9  and  C_10 
REMARK       I    between atoms: C_10  and  N_11 
REMARK    5  A    between atoms: N_11  and  N_12 
REMARK       I    between atoms: N_12  and  C_13 
REMARK    6  A    between atoms: C_13  and  C_14 
ROOT
HETATM    1  N   UNL     1     -43.062  57.012 -50.935  1.00  0.00    -0.263 N 
HETATM    2  C   UNL     1     -41.749  56.825 -50.552  1.00  0.00     0.270 C 
HETATM    3  O   UNL     1     -41.028  57.767 -50.226  1.00  0.00    -0.266 OA
HETATM    4  H   UNL     1     -43.727  56.273 -51.147  1.00  0.00     0.190 HD
ENDROOT
BRANCH   1   5
HETATM    5  N   UNL     1     -43.581  58.309 -50.917  1.00  0.00    -0.263 N 
HETATM    6  C   UNL     1     -44.952  58.453 -50.889  1.00  0.00     0.270 C 
HETATM    7  O   UNL     1     -45.718  57.493 -50.822  1.00  0.00    -0.266 OA
HETATM    8  H   UNL     1     -42.929  59.050 -51.171  1.00  0.00     0.190 HD
BRANCH   6   9
HETATM    9  C   UNL     1     -45.479  59.841 -50.961  1.00  0.00     0.036 A 
HETATM   10  C   UNL     1     -45.151  60.729 -49.929  1.00  0.00     0.056 A 
HETATM   11  C   UNL     1     -45.601  62.053 -49.962  1.00  0.00     0.102 A 
HETATM   12  C   UNL     1     -46.373  62.499 -51.055  1.00  0.00     0.102 A 
HETATM   13  C   UNL     1     -46.693  61.609 -52.085  1.00  0.00     0.040 A 
HETATM   14  C   UNL     1     -46.247  60.284 -52.042  1.00  0.00     0.020 A 
BRANCH  11  15
HETATM   15  O   UNL     1     -45.332  62.987 -48.992  1.00  0.00    -0.353 OA
HETATM   16  C   UNL     1     -45.006  62.514 -47.693  1.00  0.00     0.210 C 
ENDBRANCH  11  15
BRANCH  12  17
HETATM   17  O   UNL     1     -46.765  63.814 -51.018  1.00  0.00    -0.349 OA
BRANCH  17  18
HETATM   18  C   UNL     1     -48.160  64.096 -51.089  1.00  0.00     0.171 C 
HETATM   19  C   UNL     1     -48.709  64.094 -49.673  1.00  0.00     0.034 C 
ENDBRANCH  17  18
ENDBRANCH  12  17
ENDBRANCH   6   9
ENDBRANCH   1   5
BRANCH   2  20
HETATM   20  C   UNL     1     -41.241  55.421 -50.523  1.00  0.00     0.034 A 
HETATM   21  C   UNL     1     -41.026  54.673 -51.693  1.00  0.00     0.031 A 
HETATM   22  C   UNL     1     -40.571  53.341 -51.594  1.00  0.00    -0.000 A 
HETATM   23  C   UNL     1     -40.325  52.803 -50.329  1.00  0.00     0.043 A 
HETATM   24  C   UNL     1     -40.280  52.323 -52.544  1.00  0.00    -0.023 A 
HETATM   25  N   UNL     1     -39.898  51.505 -50.508  1.00  0.00    -0.358 N 
HETATM   26  C   UNL     1     -40.511  53.534 -49.151  1.00  0.00     0.031 A 
HETATM   27  H   UNL     1     -39.643  50.875 -49.760  1.00  0.00     0.166 HD
HETATM   28  C   UNL     1     -39.878  51.207 -51.841  1.00  0.00     0.017 A 
HETATM   29  C   UNL     1     -39.468  49.901 -52.424  1.00  0.00     0.057 C 
HETATM   30  C   UNL     1     -39.932  49.822 -53.890  1.00  0.00     0.006 C 
HETATM   31  C   UNL     1     -39.662  51.131 -54.657  1.00  0.00     0.005 C 
HETATM   32  C   UNL     1     -40.392  52.335 -54.032  1.00  0.00     0.041 C 
HETATM   33  C   UNL     1     -40.974  54.850 -49.272  1.00  0.00     0.019 A 
ENDBRANCH   2  20
TORSDOF 6
ENDMDL
MODEL 2
REMARK VINA RESULT:      -8.4      6.370      7.486
REMARK  6 active torsions:
REMARK  status: ('A' for Active; 'I' for Inactive)
REMARK    1  A    between atoms: C_2  and  O_3 
REMARK    2  A    between atoms: O_3  and  C_4 
REMARK    3  A    between atoms: C_5  and  O_6 
REMARK    4  A    between atoms: C_9  and  C_10 
REMARK       I    between atoms: C_10  and  N_11 
REMARK    5  A    between atoms: N_11  and  N_12 
REMARK       I    between atoms: N_12  and  C_13 
REMARK    6  A    between atoms: C_13  and  C_14 
ROOT
HETATM    1  N   UNL     1     -41.719  56.271 -55.991  1.00  0.00    -0.263 N 
HETATM    2  C   UNL     1     -41.791  56.617 -54.657  1.00  0.00     0.270 C 
HETATM    3  O   UNL     1     -42.219  57.712 -54.294  1.00  0.00    -0.266 OA
HETATM    4  H   UNL     1     -41.442  55.361 -56.352  1.00  0.00     0.190 HD
ENDROOT
BRANCH   1   5
HETATM    5  N   UNL     1     -42.176  57.187 -56.941  1.00  0.00    -0.263 N 
HETATM    6  C   UNL     1     -42.912  56.702 -58.001  1.00  0.00     0.270 C 
HETATM    7  O   UNL     1     -43.222  55.516 -58.105  1.00  0.00    -0.266 OA
HETATM    8  H   UNL     1     -41.735  58.105 -56.919  1.00  0.00     0.190 HD
BRANCH   6   9
HETATM    9  C   UNL     1     -43.309  57.684 -59.044  1.00  0.00     0.036 A 
HETATM   10  C   UNL     1     -44.675  57.859 -59.303  1.00  0.00     0.056 A 
HETATM   11  C   UNL     1     -45.102  58.790 -60.257  1.00  0.00     0.102 A 
HETATM   12  C   UNL     1     -44.149  59.569 -60.946  1.00  0.00     0.102 A 
HETATM   13  C   UNL     1     -42.787  59.393 -60.679  1.00  0.00     0.040 A 
HETATM   14  C   UNL     1     -42.367  58.456 -59.730  1.00  0.00     0.020 A 
BRANCH  11  15
HETATM   15  O   UNL     1     -46.417  59.021 -60.578  1.00  0.00    -0.353 OA
HETATM   16  C   UNL     1     -47.247  59.604 -59.583  1.00  0.00     0.210 C 
ENDBRANCH  11  15
BRANCH  12  17
HETATM   17  O   UNL     1     -44.650  60.466 -61.856  1.00  0.00    -0.349 OA
BRANCH  17  18
HETATM   18  C   UNL     1     -43.745  61.038 -62.795  1.00  0.00     0.171 C 
HETATM   19  C   UNL     1     -44.504  61.281 -64.087  1.00  0.00     0.034 C 
ENDBRANCH  17  18
ENDBRANCH  12  17
ENDBRANCH   6   9
ENDBRANCH   1   5
BRANCH   2  20
HETATM   20  C   UNL     1     -41.351  55.593 -53.663  1.00  0.00     0.034 A 
HETATM   21  C   UNL     1     -40.942  54.303 -54.039  1.00  0.00     0.031 A 
HETATM   22  C   UNL     1     -40.565  53.375 -53.047  1.00  0.00    -0.000 A 
HETATM   23  C   UNL     1     -40.590  53.770 -51.707  1.00  0.00     0.043 A 
HETATM   24  C   UNL     1     -40.134  52.019 -53.073  1.00  0.00    -0.023 A 
HETATM   25  N   UNL     1     -40.184  52.691 -50.951  1.00  0.00    -0.358 N 
HETATM   26  C   UNL     1     -40.972  55.055 -51.308  1.00  0.00     0.031 A 
HETATM   27  H   UNL     1     -40.103  52.693 -49.943  1.00  0.00     0.166 HD
HETATM   28  C   UNL     1     -39.919  51.630 -51.768  1.00  0.00     0.017 A 
HETATM   29  C   UNL     1     -39.452  50.292 -51.315  1.00  0.00     0.057 C 
HETATM   30  C   UNL     1     -39.627  49.271 -52.456  1.00  0.00     0.006 C 
HETATM   31  C   UNL     1     -39.164  49.834 -53.814  1.00  0.00     0.005 C 
HETATM   32  C   UNL     1     -39.956  51.089 -54.227  1.00  0.00     0.041 C 
HETATM   33  C   UNL     1     -41.353  55.956 -52.309  1.00  0.00     0.019 A 
ENDBRANCH   2  20
TORSDOF 6
ENDMDL
MODEL 3
REMARK VINA RESULT:      -8.3      0.868      1.881
REMARK  6 active torsions:
REMARK  status: ('A' for Active; 'I' for Inactive)
REMARK    1  A    between atoms: C_2  and  O_3 
REMARK    2  A    between atoms: O_3  and  C_4 
REMARK    3  A    between atoms: C_5  and  O_6 
REMARK    4  A    between atoms: C_9  and  C_10 
REMARK       I    between atoms: C_10  and  N_11 
REMARK    5  A    between atoms: N_11  and  N_12 
REMARK       I    between atoms: N_12  and  C_13 
REMARK    6  A    between atoms: C_13  and  C_14 
ROOT
HETATM    1  N   UNL     1     -43.165  57.104 -50.875  1.00  0.00    -0.263 N 
HETATM    2  C   UNL     1     -41.797  56.933 -50.814  1.00  0.00     0.270 C 
HETATM    3  O   UNL     1     -41.023  57.890 -50.825  1.00  0.00    -0.266 OA
HETATM    4  H   UNL     1     -43.857  56.363 -50.800  1.00  0.00     0.190 HD
ENDROOT
BRANCH   1   5
HETATM    5  N   UNL     1     -43.671  58.405 -50.921  1.00  0.00    -0.263 N 
HETATM    6  C   UNL     1     -45.041  58.563 -50.922  1.00  0.00     0.270 C 
HETATM    7  O   UNL     1     -45.817  57.614 -50.828  1.00  0.00    -0.266 OA
HETATM    8  H   UNL     1     -43.008  59.129 -51.194  1.00  0.00     0.190 HD
BRANCH   6   9
HETATM    9  C   UNL     1     -45.553  59.952 -51.061  1.00  0.00     0.036 A 
HETATM   10  C   UNL     1     -46.033  60.357 -52.313  1.00  0.00     0.056 A 
HETATM   11  C   UNL     1     -46.549  61.646 -52.491  1.00  0.00     0.102 A 
HETATM   12  C   UNL     1     -46.601  62.533 -51.396  1.00  0.00     0.102 A 
HETATM   13  C   UNL     1     -46.124  62.120 -50.147  1.00  0.00     0.040 A 
HETATM   14  C   UNL     1     -45.603  60.834 -49.978  1.00  0.00     0.020 A 
BRANCH  11  15
HETATM   15  O   UNL     1     -47.034  62.128 -53.682  1.00  0.00    -0.353 OA
HETATM   16  C   UNL     1     -46.112  62.305 -54.747  1.00  0.00     0.210 C 
ENDBRANCH  11  15
BRANCH  12  17
HETATM   17  O   UNL     1     -47.131  63.773 -51.650  1.00  0.00    -0.349 OA
BRANCH  17  18
HETATM   18  C   UNL     1     -48.257  64.188 -50.883  1.00  0.00     0.171 C 
HETATM   19  C   UNL     1     -49.509  63.688 -51.581  1.00  0.00     0.034 C 
ENDBRANCH  17  18
ENDBRANCH  12  17
ENDBRANCH   6   9
ENDBRANCH   1   5
BRANCH   2  20
HETATM   20  C   UNL     1     -41.288  55.533 -50.705  1.00  0.00     0.034 A 
HETATM   21  C   UNL     1     -41.046  54.730 -51.832  1.00  0.00     0.031 A 
HETATM   22  C   UNL     1     -40.592  53.406 -51.659  1.00  0.00    -0.000 A 
HETATM   23  C   UNL     1     -40.376  52.930 -50.363  1.00  0.00     0.043 A 
HETATM   24  C   UNL     1     -40.279  52.343 -52.551  1.00  0.00    -0.023 A 
HETATM   25  N   UNL     1     -39.943  51.625 -50.470  1.00  0.00    -0.358 N 
HETATM   26  C   UNL     1     -40.589  53.717 -49.226  1.00  0.00     0.031 A 
HETATM   27  H   UNL     1     -39.706  51.033 -49.686  1.00  0.00     0.166 HD
HETATM   28  C   UNL     1     -39.893  51.263 -51.785  1.00  0.00     0.017 A 
HETATM   29  C   UNL     1     -39.468  49.932 -52.295  1.00  0.00     0.057 C 
HETATM   30  C   UNL     1     -39.898  49.780 -53.766  1.00  0.00     0.006 C 
HETATM   31  C   UNL     1     -39.612  51.051 -54.588  1.00  0.00     0.005 C 
HETATM   32  C   UNL     1     -40.357  52.283 -54.040  1.00  0.00     0.041 C 
HETATM   33  C   UNL     1     -41.050  55.024 -49.422  1.00  0.00     0.019 A 
ENDBRANCH   2  20
TORSDOF 6
ENDMDL
MODEL 4
REMARK VINA RESULT:      -8.3      6.341      7.300
REMARK  6 active torsions:
REMARK  status: ('A' for Active; 'I' for Inactive)
REMARK    1  A    between atoms: C_2  and  O_3 
REMARK    2  A    between atoms: O_3  and  C_4 
REMARK    3  A    between atoms: C_5  and  O_6 
REMARK    4  A    between atoms: C_9  and  C_10 
REMARK       I    between atoms: C_10  and  N_11 
REMARK    5  A    between atoms: N_11  and  N_12 
REMARK       I    between atoms: N_12  and  C_13 
REMARK    6  A    between atoms: C_13  and  C_14 
ROOT
HETATM    1  N   UNL     1     -41.726  56.281 -55.970  1.00  0.00    -0.263 N 
HETATM    2  C   UNL     1     -41.720  56.645 -54.639  1.00  0.00     0.270 C 
HETATM    3  O   UNL     1     -42.076  57.764 -54.271  1.00  0.00    -0.266 OA
HETATM    4  H   UNL     1     -41.512  55.355 -56.332  1.00  0.00     0.190 HD
ENDROOT
BRANCH   1   5
HETATM    5  N   UNL     1     -42.181  57.209 -56.911  1.00  0.00    -0.263 N 
HETATM    6  C   UNL     1     -42.914  56.736 -57.979  1.00  0.00     0.270 C 
HETATM    7  O   UNL     1     -43.223  55.552 -58.098  1.00  0.00    -0.266 OA
HETATM    8  H   UNL     1     -41.739  58.127 -56.877  1.00  0.00     0.190 HD
BRANCH   6   9
HETATM    9  C   UNL     1     -43.308  57.731 -59.011  1.00  0.00     0.036 A 
HETATM   10  C   UNL     1     -42.309  58.547 -59.559  1.00  0.00     0.056 A 
HETATM   11  C   UNL     1     -42.623  59.483 -60.551  1.00  0.00     0.102 A 
HETATM   12  C   UNL     1     -43.951  59.588 -61.014  1.00  0.00     0.102 A 
HETATM   13  C   UNL     1     -44.943  58.767 -60.466  1.00  0.00     0.040 A 
HETATM   14  C   UNL     1     -44.624  57.840 -59.469  1.00  0.00     0.020 A 
BRANCH  11  15
HETATM   15  O   UNL     1     -41.711  60.325 -61.138  1.00  0.00    -0.353 OA
HETATM   16  C   UNL     1     -41.383  61.524 -60.450  1.00  0.00     0.210 C 
ENDBRANCH  11  15
BRANCH  12  17
HETATM   17  O   UNL     1     -44.174  60.521 -61.996  1.00  0.00    -0.349 OA
BRANCH  17  18
HETATM   18  C   UNL     1     -45.408  61.232 -61.972  1.00  0.00     0.171 C 
HETATM   19  C   UNL     1     -45.207  62.490 -61.145  1.00  0.00     0.034 C 
ENDBRANCH  17  18
ENDBRANCH  12  17
ENDBRANCH   6   9
ENDBRANCH   1   5
BRANCH   2  20
HETATM   20  C   UNL     1     -41.286  55.612 -53.652  1.00  0.00     0.034 A 
HETATM   21  C   UNL     1     -40.900  54.317 -54.037  1.00  0.00     0.031 A 
HETATM   22  C   UNL     1     -40.528  53.380 -53.051  1.00  0.00    -0.000 A 
HETATM   23  C   UNL     1     -40.534  53.771 -51.710  1.00  0.00     0.043 A 
HETATM   24  C   UNL     1     -40.117  52.018 -53.086  1.00  0.00    -0.023 A 
HETATM   25  N   UNL     1     -40.138  52.683 -50.960  1.00  0.00    -0.358 N 
HETATM   26  C   UNL     1     -40.894  55.060 -51.303  1.00  0.00     0.031 A 
HETATM   27  H   UNL     1     -40.048  52.681 -49.954  1.00  0.00     0.166 HD
HETATM   28  C   UNL     1     -39.896  51.621 -51.784  1.00  0.00     0.017 A 
HETATM   29  C   UNL     1     -39.445  50.275 -51.340  1.00  0.00     0.057 C 
HETATM   30  C   UNL     1     -39.645  49.261 -52.482  1.00  0.00     0.006 C 
HETATM   31  C   UNL     1     -39.187  49.821 -53.842  1.00  0.00     0.005 C 
HETATM   32  C   UNL     1     -39.964  51.089 -54.244  1.00  0.00     0.041 C 
HETATM   33  C   UNL     1     -41.270  55.970 -52.298  1.00  0.00     0.019 A 
ENDBRANCH   2  20
TORSDOF 6
ENDMDL
MODEL 5
REMARK VINA RESULT:      -8.3      2.492      3.720
REMARK  6 active torsions:
REMARK  status: ('A' for Active; 'I' for Inactive)
REMARK    1  A    between atoms: C_2  and  O_3 
REMARK    2  A    between atoms: O_3  and  C_4 
REMARK    3  A    between atoms: C_5  and  O_6 
REMARK    4  A    between atoms: C_9  and  C_10 
REMARK       I    between atoms: C_10  and  N_11 
REMARK    5  A    between atoms: N_11  and  N_12 
REMARK       I    between atoms: N_12  and  C_13 
REMARK    6  A    between atoms: C_13  and  C_14 
ROOT
HETATM    1  N   UNL     1     -43.599  58.415 -51.200  1.00  0.00    -0.263 N 
HETATM    2  C   UNL     1     -44.151  57.151 -51.228  1.00  0.00     0.270 C 
HETATM    3  O   UNL     1     -45.106  56.844 -50.514  1.00  0.00    -0.266 OA
HETATM    4  H   UNL     1     -42.859  58.751 -51.811  1.00  0.00     0.190 HD
ENDROOT
BRANCH   1   5
HETATM    5  N   UNL     1     -44.169  59.371 -50.355  1.00  0.00    -0.263 N 
HETATM    6  C   UNL     1     -43.714  60.669 -50.453  1.00  0.00     0.270 C 
HETATM    7  O   UNL     1     -42.878  61.017 -51.284  1.00  0.00    -0.266 OA
HETATM    8  H   UNL     1     -44.700  59.005 -49.567  1.00  0.00     0.190 HD
BRANCH   6   9
HETATM    9  C   UNL     1     -44.273  61.647 -49.482  1.00  0.00     0.036 A 
HETATM   10  C   UNL     1     -45.270  61.209 -48.601  1.00  0.00     0.056 A 
HETATM   11  C   UNL     1     -45.811  62.083 -47.652  1.00  0.00     0.102 A 
HETATM   12  C   UNL     1     -45.333  63.407 -47.572  1.00  0.00     0.102 A 
HETATM   13  C   UNL     1     -44.334  63.837 -48.452  1.00  0.00     0.040 A 
HETATM   14  C   UNL     1     -43.803  62.961 -49.403  1.00  0.00     0.020 A 
BRANCH  11  15
HETATM   15  O   UNL     1     -46.793  61.741 -46.755  1.00  0.00    -0.353 OA
HETATM   16  C   UNL     1     -46.689  60.477 -46.113  1.00  0.00     0.210 C 
ENDBRANCH  11  15
BRANCH  12  17
HETATM   17  O   UNL     1     -45.907  64.197 -46.607  1.00  0.00    -0.349 OA
BRANCH  17  18
HETATM   18  C   UNL     1     -45.052  64.782 -45.629  1.00  0.00     0.171 C 
HETATM   19  C   UNL     1     -44.806  63.749 -44.544  1.00  0.00     0.034 C 
ENDBRANCH  17  18
ENDBRANCH  12  17
ENDBRANCH   6   9
ENDBRANCH   1   5
BRANCH   2  20
HETATM   20  C   UNL     1     -43.558  56.169 -52.184  1.00  0.00     0.034 A 
HETATM   21  C   UNL     1     -42.637  55.187 -51.782  1.00  0.00     0.031 A 
HETATM   22  C   UNL     1     -42.093  54.308 -52.741  1.00  0.00    -0.000 A 
HETATM   23  C   UNL     1     -42.502  54.424 -54.072  1.00  0.00     0.043 A 
HETATM   24  C   UNL     1     -41.149  53.246 -52.686  1.00  0.00    -0.023 A 
HETATM   25  N   UNL     1     -41.829  53.462 -54.796  1.00  0.00    -0.358 N 
HETATM   26  C   UNL     1     -43.433  55.378 -54.494  1.00  0.00     0.031 A 
HETATM   27  H   UNL     1     -41.933  53.313 -55.790  1.00  0.00     0.166 HD
HETATM   28  C   UNL     1     -41.004  52.756 -53.967  1.00  0.00     0.017 A 
HETATM   29  C   UNL     1     -40.122  51.634 -54.384  1.00  0.00     0.057 C 
HETATM   30  C   UNL     1     -39.088  51.351 -53.278  1.00  0.00     0.006 C 
HETATM   31  C   UNL     1     -39.724  51.355 -51.875  1.00  0.00     0.005 C 
HETATM   32  C   UNL     1     -40.371  52.709 -51.530  1.00  0.00     0.041 C 
HETATM   33  C   UNL     1     -43.951  56.247 -53.526  1.00  0.00     0.019 A 
ENDBRANCH   2  20
TORSDOF 6
ENDMDL
MODEL 6
REMARK VINA RESULT:      -8.1      7.170     11.707
REMARK  6 active torsions:
REMARK  status: ('A' for Active; 'I' for Inactive)
REMARK    1  A    between atoms: C_2  and  O_3 
REMARK    2  A    between atoms: O_3  and  C_4 
REMARK    3  A    between atoms: C_5  and  O_6 
REMARK    4  A    between atoms: C_9  and  C_10 
REMARK       I    between atoms: C_10  and  N_11 
REMARK    5  A    between atoms: N_11  and  N_12 
REMARK       I    between atoms: N_12  and  C_13 
REMARK    6  A    between atoms: C_13  and  C_14 
ROOT
HETATM    1  N   UNL     1     -42.262  55.974 -57.296  1.00  0.00    -0.263 N 
HETATM    2  C   UNL     1     -42.516  57.328 -57.219  1.00  0.00     0.270 C 
HETATM    3  O   UNL     1     -42.216  57.989 -56.225  1.00  0.00    -0.266 OA
HETATM    4  H   UNL     1     -42.419  55.388 -58.112  1.00  0.00     0.190 HD
ENDROOT
BRANCH   1   5
HETATM    5  N   UNL     1     -41.619  55.356 -56.220  1.00  0.00    -0.263 N 
HETATM    6  C   UNL     1     -42.311  54.383 -55.530  1.00  0.00     0.270 C 
HETATM    7  O   UNL     1     -43.434  54.008 -55.861  1.00  0.00    -0.266 OA
HETATM    8  H   UNL     1     -40.788  55.830 -55.869  1.00  0.00     0.190 HD
BRANCH   6   9
HETATM    9  C   UNL     1     -41.639  53.806 -54.336  1.00  0.00     0.036 A 
HETATM   10  C   UNL     1     -40.774  52.721 -54.523  1.00  0.00     0.056 A 
HETATM   11  C   UNL     1     -40.098  52.157 -53.435  1.00  0.00     0.102 A 
HETATM   12  C   UNL     1     -40.276  52.701 -52.146  1.00  0.00     0.102 A 
HETATM   13  C   UNL     1     -41.138  53.789 -51.967  1.00  0.00     0.040 A 
HETATM   14  C   UNL     1     -41.817  54.342 -53.057  1.00  0.00     0.020 A 
BRANCH  11  15
HETATM   15  O   UNL     1     -39.238  51.090 -53.526  1.00  0.00    -0.353 OA
HETATM   16  C   UNL     1     -39.614  50.009 -54.367  1.00  0.00     0.210 C 
ENDBRANCH  11  15
BRANCH  12  17
HETATM   17  O   UNL     1     -39.569  52.100 -51.136  1.00  0.00    -0.349 OA
BRANCH  17  18
HETATM   18  C   UNL     1     -40.276  51.239 -50.247  1.00  0.00     0.171 C 
HETATM   19  C   UNL     1     -39.835  49.814 -50.527  1.00  0.00     0.034 C 
ENDBRANCH  17  18
ENDBRANCH  12  17
ENDBRANCH   6   9
ENDBRANCH   1   5
BRANCH   2  20
HETATM   20  C   UNL     1     -43.149  57.972 -58.409  1.00  0.00     0.034 A 
HETATM   21  C   UNL     1     -42.513  58.986 -59.145  1.00  0.00     0.031 A 
HETATM   22  C   UNL     1     -43.178  59.571 -60.242  1.00  0.00    -0.000 A 
HETATM   23  C   UNL     1     -44.453  59.112 -60.582  1.00  0.00     0.043 A 
HETATM   24  C   UNL     1     -42.847  60.603 -61.163  1.00  0.00    -0.023 A 
HETATM   25  N   UNL     1     -44.877  59.842 -61.674  1.00  0.00    -0.358 N 
HETATM   26  C   UNL     1     -45.099  58.091 -59.878  1.00  0.00     0.031 A 
HETATM   27  H   UNL     1     -45.767  59.718 -62.136  1.00  0.00     0.166 HD
HETATM   28  C   UNL     1     -43.917  60.749 -62.021  1.00  0.00     0.017 A 
HETATM   29  C   UNL     1     -44.012  61.710 -63.152  1.00  0.00     0.057 C 
HETATM   30  C   UNL     1     -42.934  62.798 -62.997  1.00  0.00     0.006 C 
HETATM   31  C   UNL     1     -41.568  62.209 -62.595  1.00  0.00     0.005 C 
HETATM   32  C   UNL     1     -41.628  61.460 -61.250  1.00  0.00     0.041 C 
HETATM   33  C   UNL     1     -44.424  57.531 -58.787  1.00  0.00     0.019 A 
ENDBRANCH   2  20
TORSDOF 6
ENDMDL
MODEL 7
REMARK VINA RESULT:      -8.0      6.566     11.196
REMARK  6 active torsions:
REMARK  status: ('A' for Active; 'I' for Inactive)
REMARK    1  A    between atoms: C_2  and  O_3 
REMARK    2  A    between atoms: O_3  and  C_4 
REMARK    3  A    between atoms: C_5  and  O_6 
REMARK    4  A    between atoms: C_9  and  C_10 
REMARK       I    between atoms: C_10  and  N_11 
REMARK    5  A    between atoms: N_11  and  N_12 
REMARK       I    between atoms: N_12  and  C_13 
REMARK    6  A    between atoms: C_13  and  C_14 
ROOT
HETATM    1  N   UNL     1     -43.682  55.748 -56.905  1.00  0.00    -0.263 N 
HETATM    2  C   UNL     1     -43.331  57.052 -57.188  1.00  0.00     0.270 C 
HETATM    3  O   UNL     1     -42.265  57.534 -56.807  1.00  0.00    -0.266 OA
HETATM    4  H   UNL     1     -44.512  55.271 -57.248  1.00  0.00     0.190 HD
ENDROOT
BRANCH   1   5
HETATM    5  N   UNL     1     -42.778  54.957 -56.192  1.00  0.00    -0.263 N 
HETATM    6  C   UNL     1     -43.038  54.728 -54.857  1.00  0.00     0.270 C 
HETATM    7  O   UNL     1     -44.051  55.144 -54.298  1.00  0.00    -0.266 OA
HETATM    8  H   UNL     1     -41.874  54.807 -56.636  1.00  0.00     0.190 HD
BRANCH   6   9
HETATM    9  C   UNL     1     -42.015  53.958 -54.101  1.00  0.00     0.036 A 
HETATM   10  C   UNL     1     -41.909  54.176 -52.721  1.00  0.00     0.056 A 
HETATM   11  C   UNL     1     -40.979  53.459 -51.959  1.00  0.00     0.102 A 
HETATM   12  C   UNL     1     -40.159  52.498 -52.585  1.00  0.00     0.102 A 
HETATM   13  C   UNL     1     -40.273  52.282 -53.963  1.00  0.00     0.040 A 
HETATM   14  C   UNL     1     -41.199  53.007 -54.720  1.00  0.00     0.020 A 
BRANCH  11  15
HETATM   15  O   UNL     1     -40.804  53.613 -50.606  1.00  0.00    -0.353 OA
HETATM   16  C   UNL     1     -40.759  54.936 -50.093  1.00  0.00     0.210 C 
ENDBRANCH  11  15
BRANCH  12  17
HETATM   17  O   UNL     1     -39.282  51.830 -51.767  1.00  0.00    -0.349 OA
BRANCH  17  18
HETATM   18  C   UNL     1     -39.338  50.407 -51.751  1.00  0.00     0.171 C 
HETATM   19  C   UNL     1     -39.964  49.979 -50.435  1.00  0.00     0.034 C 
ENDBRANCH  17  18
ENDBRANCH  12  17
ENDBRANCH   6   9
ENDBRANCH   1   5
BRANCH   2  20
HETATM   20  C   UNL     1     -44.291  57.855 -58.003  1.00  0.00     0.034 A 
HETATM   21  C   UNL     1     -45.182  57.266 -58.916  1.00  0.00     0.031 A 
HETATM   22  C   UNL     1     -46.043  58.084 -59.675  1.00  0.00    -0.000 A 
HETATM   23  C   UNL     1     -46.002  59.468 -59.486  1.00  0.00     0.043 A 
HETATM   24  C   UNL     1     -47.023  57.829 -60.675  1.00  0.00    -0.023 A 
HETATM   25  N   UNL     1     -46.929  60.029 -60.340  1.00  0.00    -0.358 N 
HETATM   26  C   UNL     1     -45.141  60.077 -58.568  1.00  0.00     0.031 A 
HETATM   27  H   UNL     1     -47.117  61.019 -60.413  1.00  0.00     0.166 HD
HETATM   28  C   UNL     1     -47.539  59.047 -61.067  1.00  0.00     0.017 A 
HETATM   29  C   UNL     1     -48.598  59.266 -62.088  1.00  0.00     0.057 C 
HETATM   30  C   UNL     1     -48.761  57.995 -62.942  1.00  0.00     0.006 C 
HETATM   31  C   UNL     1     -48.765  56.715 -62.085  1.00  0.00     0.005 C 
HETATM   32  C   UNL     1     -47.458  56.540 -61.289  1.00  0.00     0.041 C 
HETATM   33  C   UNL     1     -44.287  59.246 -57.833  1.00  0.00     0.019 A 
ENDBRANCH   2  20
TORSDOF 6
ENDMDL
MODEL 8
REMARK VINA RESULT:      -7.9      7.062      8.041
REMARK  6 active torsions:
REMARK  status: ('A' for Active; 'I' for Inactive)
REMARK    1  A    between atoms: C_2  and  O_3 
REMARK    2  A    between atoms: O_3  and  C_4 
REMARK    3  A    between atoms: C_5  and  O_6 
REMARK    4  A    between atoms: C_9  and  C_10 
REMARK       I    between atoms: C_10  and  N_11 
REMARK    5  A    between atoms: N_11  and  N_12 
REMARK       I    between atoms: N_12  and  C_13 
REMARK    6  A    between atoms: C_13  and  C_14 
ROOT
HETATM    1  N   UNL     1     -41.779  57.050 -56.774  1.00  0.00    -0.263 N 
HETATM    2  C   UNL     1     -42.265  55.807 -56.426  1.00  0.00     0.270 C 
HETATM    3  O   UNL     1     -43.110  55.226 -57.107  1.00  0.00    -0.266 OA
HETATM    4  H   UNL     1     -41.034  57.550 -56.295  1.00  0.00     0.190 HD
ENDROOT
BRANCH   1   5
HETATM    5  N   UNL     1     -42.246  57.640 -57.952  1.00  0.00    -0.263 N 
HETATM    6  C   UNL     1     -42.037  58.993 -58.120  1.00  0.00     0.270 C 
HETATM    7  O   UNL     1     -41.416  59.674 -57.306  1.00  0.00    -0.266 OA
HETATM    8  H   UNL     1     -42.914  57.089 -58.489  1.00  0.00     0.190 HD
BRANCH   6   9
HETATM    9  C   UNL     1     -42.622  59.611 -59.339  1.00  0.00     0.036 A 
HETATM   10  C   UNL     1     -41.856  60.554 -60.035  1.00  0.00     0.056 A 
HETATM   11  C   UNL     1     -42.350  61.148 -61.202  1.00  0.00     0.102 A 
HETATM   12  C   UNL     1     -43.621  60.777 -61.688  1.00  0.00     0.102 A 
HETATM   13  C   UNL     1     -44.380  59.831 -60.990  1.00  0.00     0.040 A 
HETATM   14  C   UNL     1     -43.883  59.247 -59.820  1.00  0.00     0.020 A 
BRANCH  11  15
HETATM   15  O   UNL     1     -41.671  62.083 -61.943  1.00  0.00    -0.353 OA
HETATM   16  C   UNL     1     -40.528  62.688 -61.355  1.00  0.00     0.210 C 
ENDBRANCH  11  15
BRANCH  12  17
HETATM   17  O   UNL     1     -44.028  61.395 -62.843  1.00  0.00    -0.349 OA
BRANCH  17  18
HETATM   18  C   UNL     1     -45.373  61.195 -63.269  1.00  0.00     0.171 C 
HETATM   19  C   UNL     1     -45.912  62.528 -63.755  1.00  0.00     0.034 C 
ENDBRANCH  17  18
ENDBRANCH  12  17
ENDBRANCH   6   9
ENDBRANCH   1   5
BRANCH   2  20
HETATM   20  C   UNL     1     -41.704  55.176 -55.194  1.00  0.00     0.034 A 
HETATM   21  C   UNL     1     -41.294  53.832 -55.155  1.00  0.00     0.031 A 
HETATM   22  C   UNL     1     -40.798  53.290 -53.952  1.00  0.00    -0.000 A 
HETATM   23  C   UNL     1     -40.709  54.113 -52.826  1.00  0.00     0.043 A 
HETATM   24  C   UNL     1     -40.332  52.003 -53.565  1.00  0.00    -0.023 A 
HETATM   25  N   UNL     1     -40.202  53.349 -51.796  1.00  0.00    -0.358 N 
HETATM   26  C   UNL     1     -41.090  55.458 -52.845  1.00  0.00     0.031 A 
HETATM   27  H   UNL     1     -40.027  53.690 -50.860  1.00  0.00     0.166 HD
HETATM   28  C   UNL     1     -39.983  52.074 -52.233  1.00  0.00     0.017 A 
HETATM   29  C   UNL     1     -39.437  50.964 -51.406  1.00  0.00     0.057 C 
HETATM   30  C   UNL     1     -39.687  49.620 -52.116  1.00  0.00     0.006 C 
HETATM   31  C   UNL     1     -39.371  49.692 -53.623  1.00  0.00     0.005 C 
HETATM   32  C   UNL     1     -40.235  50.738 -54.352  1.00  0.00     0.041 C 
HETATM   33  C   UNL     1     -41.589  55.972 -54.047  1.00  0.00     0.019 A 
ENDBRANCH   2  20
TORSDOF 6
ENDMDL
MODEL 9
REMARK VINA RESULT:      -7.8      7.032     11.458
REMARK  6 active torsions:
REMARK  status: ('A' for Active; 'I' for Inactive)
REMARK    1  A    between atoms: C_2  and  O_3 
REMARK    2  A    between atoms: O_3  and  C_4 
REMARK    3  A    between atoms: C_5  and  O_6 
REMARK    4  A    between atoms: C_9  and  C_10 
REMARK       I    between atoms: C_10  and  N_11 
REMARK    5  A    between atoms: N_11  and  N_12 
REMARK       I    between atoms: N_12  and  C_13 
REMARK    6  A    between atoms: C_13  and  C_14 
ROOT
HETATM    1  N   UNL     1     -42.415  56.265 -57.272  1.00  0.00    -0.263 N 
HETATM    2  C   UNL     1     -43.332  55.897 -58.235  1.00  0.00     0.270 C 
HETATM    3  O   UNL     1     -43.706  54.732 -58.363  1.00  0.00    -0.266 OA
HETATM    4  H   UNL     1     -42.120  57.217 -57.069  1.00  0.00     0.190 HD
ENDROOT
BRANCH   1   5
HETATM    5  N   UNL     1     -41.930  55.281 -56.406  1.00  0.00    -0.263 N 
HETATM    6  C   UNL     1     -41.623  55.656 -55.115  1.00  0.00     0.270 C 
HETATM    7  O   UNL     1     -41.812  56.795 -54.692  1.00  0.00    -0.266 OA
HETATM    8  H   UNL     1     -41.608  54.422 -56.848  1.00  0.00     0.190 HD
BRANCH   6   9
HETATM    9  C   UNL     1     -41.024  54.611 -54.242  1.00  0.00     0.036 A 
HETATM   10  C   UNL     1     -41.067  54.803 -52.855  1.00  0.00     0.056 A 
HETATM   11  C   UNL     1     -40.540  53.839 -51.989  1.00  0.00     0.102 A 
HETATM   12  C   UNL     1     -39.980  52.658 -52.519  1.00  0.00     0.102 A 
HETATM   13  C   UNL     1     -39.944  52.471 -53.905  1.00  0.00     0.040 A 
HETATM   14  C   UNL     1     -40.465  53.442 -54.765  1.00  0.00     0.020 A 
BRANCH  11  15
HETATM   15  O   UNL     1     -40.535  53.947 -50.620  1.00  0.00    -0.353 OA
HETATM   16  C   UNL     1     -41.521  54.776 -50.020  1.00  0.00     0.210 C 
ENDBRANCH  11  15
BRANCH  12  17
HETATM   17  O   UNL     1     -39.496  51.758 -51.604  1.00  0.00    -0.349 OA
BRANCH  17  18
HETATM   18  C   UNL     1     -39.514  50.377 -51.952  1.00  0.00     0.171 C 
HETATM   19  C   UNL     1     -39.862  49.584 -50.705  1.00  0.00     0.034 C 
ENDBRANCH  17  18
ENDBRANCH  12  17
ENDBRANCH   6   9
ENDBRANCH   1   5
BRANCH   2  20
HETATM   20  C   UNL     1     -43.878  56.981 -59.106  1.00  0.00     0.034 A 
HETATM   21  C   UNL     1     -43.069  57.999 -59.638  1.00  0.00     0.031 A 
HETATM   22  C   UNL     1     -43.654  59.009 -60.431  1.00  0.00    -0.000 A 
HETATM   23  C   UNL     1     -45.027  58.960 -60.684  1.00  0.00     0.043 A 
HETATM   24  C   UNL     1     -43.150  60.165 -61.088  1.00  0.00    -0.023 A 
HETATM   25  N   UNL     1     -45.341  60.049 -61.470  1.00  0.00    -0.358 N 
HETATM   26  C   UNL     1     -45.849  57.945 -60.183  1.00  0.00     0.031 A 
HETATM   27  H   UNL     1     -46.268  60.263 -61.810  1.00  0.00     0.166 HD
HETATM   28  C   UNL     1     -44.215  60.784 -61.708  1.00  0.00     0.017 A 
HETATM   29  C   UNL     1     -44.157  62.028 -62.521  1.00  0.00     0.057 C 
HETATM   30  C   UNL     1     -42.830  62.761 -62.251  1.00  0.00     0.006 C 
HETATM   31  C   UNL     1     -41.629  61.796 -62.226  1.00  0.00     0.005 C 
HETATM   32  C   UNL     1     -41.765  60.721 -61.131  1.00  0.00     0.041 C 
HETATM   33  C   UNL     1     -45.250  56.960 -59.390  1.00  0.00     0.019 A 
ENDBRANCH   2  20
TORSDOF 6
ENDMDL
MODEL 10
REMARK VINA RESULT:      -7.4      5.963      7.041
REMARK  6 active torsions:
REMARK  status: ('A' for Active; 'I' for Inactive)
REMARK    1  A    between atoms: C_2  and  O_3 
REMARK    2  A    between atoms: O_3  and  C_4 
REMARK    3  A    between atoms: C_5  and  O_6 
REMARK    4  A    between atoms: C_9  and  C_10 
REMARK       I    between atoms: C_10  and  N_11 
REMARK    5  A    between atoms: N_11  and  N_12 
REMARK       I    between atoms: N_12  and  C_13 
REMARK    6  A    between atoms: C_13  and  C_14 
ROOT
HETATM    1  N   UNL     1     -43.433  55.862 -56.547  1.00  0.00    -0.263 N 
HETATM    2  C   UNL     1     -42.264  56.311 -55.967  1.00  0.00     0.270 C 
HETATM    3  O   UNL     1     -41.699  57.334 -56.354  1.00  0.00    -0.266 OA
HETATM    4  H   UNL     1     -43.984  55.069 -56.230  1.00  0.00     0.190 HD
ENDROOT
BRANCH   1   5
HETATM    5  N   UNL     1     -43.994  56.616 -57.581  1.00  0.00    -0.263 N 
HETATM    6  C   UNL     1     -44.891  57.607 -57.240  1.00  0.00     0.270 C 
HETATM    7  O   UNL     1     -45.165  57.881 -56.073  1.00  0.00    -0.266 OA
HETATM    8  H   UNL     1     -43.892  56.229 -58.517  1.00  0.00     0.190 HD
BRANCH   6   9
HETATM    9  C   UNL     1     -45.541  58.333 -58.364  1.00  0.00     0.036 A 
HETATM   10  C   UNL     1     -46.808  58.889 -58.147  1.00  0.00     0.056 A 
HETATM   11  C   UNL     1     -47.452  59.604 -59.163  1.00  0.00     0.102 A 
HETATM   12  C   UNL     1     -46.809  59.780 -60.407  1.00  0.00     0.102 A 
HETATM   13  C   UNL     1     -45.541  59.225 -60.615  1.00  0.00     0.040 A 
HETATM   14  C   UNL     1     -44.907  58.506 -59.597  1.00  0.00     0.020 A 
BRANCH  11  15
HETATM   15  O   UNL     1     -48.694  60.176 -59.041  1.00  0.00    -0.353 OA
HETATM   16  C   UNL     1     -49.091  60.621 -57.751  1.00  0.00     0.210 C 
ENDBRANCH  11  15
BRANCH  12  17
HETATM   17  O   UNL     1     -47.501  60.501 -61.346  1.00  0.00    -0.349 OA
BRANCH  17  18
HETATM   18  C   UNL     1     -47.969  59.815 -62.503  1.00  0.00     0.171 C 
HETATM   19  C   UNL     1     -47.912  60.780 -63.674  1.00  0.00     0.034 C 
ENDBRANCH  17  18
ENDBRANCH  12  17
ENDBRANCH   6   9
ENDBRANCH   1   5
BRANCH   2  20
HETATM   20  C   UNL     1     -41.721  55.517 -54.825  1.00  0.00     0.034 A 
HETATM   21  C   UNL     1     -41.295  54.186 -54.967  1.00  0.00     0.031 A 
HETATM   22  C   UNL     1     -40.818  53.483 -53.842  1.00  0.00    -0.000 A 
HETATM   23  C   UNL     1     -40.762  54.139 -52.609  1.00  0.00     0.043 A 
HETATM   24  C   UNL     1     -40.344  52.159 -53.631  1.00  0.00    -0.023 A 
HETATM   25  N   UNL     1     -40.268  53.241 -51.686  1.00  0.00    -0.358 N 
HETATM   26  C   UNL     1     -41.160  55.470 -52.446  1.00  0.00     0.031 A 
HETATM   27  H   UNL     1     -40.117  53.447 -50.708  1.00  0.00     0.166 HD
HETATM   28  C   UNL     1     -40.024  52.043 -52.294  1.00  0.00     0.017 A 
HETATM   29  C   UNL     1     -39.482  50.833 -51.621  1.00  0.00     0.057 C 
HETATM   30  C   UNL     1     -39.700  49.601 -52.520  1.00  0.00     0.006 C 
HETATM   31  C   UNL     1     -39.353  49.888 -53.993  1.00  0.00     0.005 C 
HETATM   32  C   UNL     1     -40.215  51.019 -54.587  1.00  0.00     0.041 C 
HETATM   33  C   UNL     1     -41.640  56.144 -53.575  1.00  0.00     0.019 A 
ENDBRANCH   2  20
TORSDOF 6
ENDMDL
