MODEL 1
REMARK VINA RESULT:      -9.1      0.000      0.000
REMARK  6 active torsions:
REMARK  status: ('A' for Active; 'I' for Inactive)
REMARK    1  A    between atoms: C_5  and  N_6 
REMARK    2  A    between atoms: N_6  and  C_7 
REMARK    3  A    between atoms: C_7  and  C_8 
REMARK    4  A    between atoms: N_10  and  C_12 
REMARK    5  A    between atoms: C_12  and  C_13 
REMARK    6  A    between atoms: C_14  and  C_15 
ROOT
HETATM    1  C   UNL     1     -43.229  56.272 -55.408  1.00  0.00     0.031 C 
HETATM    2  C   UNL     1     -43.794  55.635 -54.134  1.00  0.00     0.241 C 
HETATM    3  N   UNL     1     -42.637  55.588 -53.153  1.00  0.00    -0.067 N 
HETATM    4  H   UNL     1     -42.900  56.153 -52.333  1.00  0.00     0.280 HD
HETATM    5  C   UNL     1     -41.458  56.289 -53.793  1.00  0.00     0.235 C 
HETATM    6  C   UNL     1     -42.099  57.145 -54.867  1.00  0.00     0.035 C 
ENDROOT
BRANCH   3   7
HETATM    7  C   UNL     1     -42.353  54.209 -52.596  1.00  0.00     0.277 C 
BRANCH   7   8
HETATM    8  C   UNL     1     -41.250  54.166 -51.607  1.00  0.00     0.016 A 
HETATM    9  C   UNL     1     -40.209  53.189 -51.506  1.00  0.00     0.102 A 
HETATM   10  N   UNL     1     -39.360  53.507 -50.522  1.00  0.00    -0.174 NA
HETATM   11  N   UNL     1     -39.891  54.575 -49.922  1.00  0.00    -0.288 N 
HETATM   12  H   UNL     1     -39.428  54.943 -49.094  1.00  0.00     0.188 HD
HETATM   13  C   UNL     1     -41.016  55.030 -50.550  1.00  0.00     0.120 A 
BRANCH   9  14
HETATM   14  C   UNL     1     -39.982  51.988 -52.297  1.00  0.00     0.072 A 
HETATM   15  C   UNL     1     -39.842  52.038 -53.686  1.00  0.00     0.132 A 
HETATM   16  F   UNL     1     -39.971  53.205 -54.342  1.00  0.00    -0.205 F 
HETATM   17  C   UNL     1     -39.605  50.883 -54.435  1.00  0.00     0.043 A 
HETATM   18  C   UNL     1     -39.503  49.650 -53.793  1.00  0.00     0.006 A 
HETATM   19  C   UNL     1     -39.650  49.578 -52.408  1.00  0.00     0.043 A 
HETATM   20  C   UNL     1     -39.885  50.740 -51.674  1.00  0.00     0.132 A 
HETATM   21  F   UNL     1     -40.065  50.624 -50.349  1.00  0.00    -0.205 F 
ENDBRANCH   9  14
ENDBRANCH   7   8
ENDBRANCH   3   7
BRANCH   1  22
HETATM   22  C   UNL     1     -42.748  55.212 -56.423  1.00  0.00     0.127 C 
BRANCH  22  23
HETATM   23  N   UNL     1     -42.678  55.796 -57.765  1.00  0.00    -0.376 N 
HETATM   24  H   UNL     1     -42.096  56.629 -57.817  1.00  0.00     0.161 HD
BRANCH  23  25
HETATM   25  C   UNL     1     -43.760  55.750 -58.631  1.00  0.00     0.101 A 
HETATM   26  N   UNL     1     -44.682  56.728 -58.545  1.00  0.00    -0.347 N 
HETATM   27  C   UNL     1     -45.762  56.826 -59.345  1.00  0.00     0.007 A 
HETATM   28  H   UNL     1     -44.546  57.445 -57.840  1.00  0.00     0.167 HD
HETATM   29  C   UNL     1     -46.715  57.962 -59.147  1.00  0.00     0.068 C 
HETATM   30  C   UNL     1     -45.955  55.877 -60.345  1.00  0.00     0.025 A 
HETATM   31  C   UNL     1     -45.025  54.859 -60.498  1.00  0.00     0.006 A 
HETATM   32  C   UNL     1     -43.924  54.799 -59.646  1.00  0.00     0.048 A 
ENDBRANCH  23  25
ENDBRANCH  22  23
ENDBRANCH   1  22
TORSDOF 6
ENDMDL
MODEL 2
REMARK VINA RESULT:      -9.0      3.006      6.626
REMARK  6 active torsions:
REMARK  status: ('A' for Active; 'I' for Inactive)
REMARK    1  A    between atoms: C_5  and  N_6 
REMARK    2  A    between atoms: N_6  and  C_7 
REMARK    3  A    between atoms: C_7  and  C_8 
REMARK    4  A    between atoms: N_10  and  C_12 
REMARK    5  A    between atoms: C_12  and  C_13 
REMARK    6  A    between atoms: C_14  and  C_15 
ROOT
HETATM    1  C   UNL     1     -41.997  54.301 -55.334  1.00  0.00     0.031 C 
HETATM    2  C   UNL     1     -42.954  54.926 -54.313  1.00  0.00     0.241 C 
HETATM    3  N   UNL     1     -43.096  56.380 -54.722  1.00  0.00    -0.067 N 
HETATM    4  H   UNL     1     -44.088  56.549 -54.940  1.00  0.00     0.280 HD
HETATM    5  C   UNL     1     -42.337  56.574 -56.018  1.00  0.00     0.235 C 
HETATM    6  C   UNL     1     -42.225  55.167 -56.572  1.00  0.00     0.035 C 
ENDROOT
BRANCH   3   7
HETATM    7  C   UNL     1     -42.769  57.367 -53.622  1.00  0.00     0.277 C 
BRANCH   7   8
HETATM    8  C   UNL     1     -43.762  57.406 -52.523  1.00  0.00     0.016 A 
HETATM    9  C   UNL     1     -43.684  56.746 -51.255  1.00  0.00     0.102 A 
HETATM   10  N   UNL     1     -44.742  57.057 -50.498  1.00  0.00    -0.174 NA
HETATM   11  N   UNL     1     -45.542  57.786 -51.280  1.00  0.00    -0.288 N 
HETATM   12  H   UNL     1     -46.445  58.074 -50.911  1.00  0.00     0.188 HD
HETATM   13  C   UNL     1     -44.989  58.048 -52.502  1.00  0.00     0.120 A 
BRANCH   9  14
HETATM   14  C   UNL     1     -42.659  55.853 -50.734  1.00  0.00     0.072 A 
HETATM   15  C   UNL     1     -42.841  54.468 -50.697  1.00  0.00     0.132 A 
HETATM   16  F   UNL     1     -44.004  53.922 -51.096  1.00  0.00    -0.205 F 
HETATM   17  C   UNL     1     -41.844  53.617 -50.214  1.00  0.00     0.043 A 
HETATM   18  C   UNL     1     -40.640  54.150 -49.757  1.00  0.00     0.006 A 
HETATM   19  C   UNL     1     -40.443  55.530 -49.776  1.00  0.00     0.043 A 
HETATM   20  C   UNL     1     -41.447  56.367 -50.262  1.00  0.00     0.132 A 
HETATM   21  F   UNL     1     -41.239  57.692 -50.223  1.00  0.00    -0.205 F 
ENDBRANCH   9  14
ENDBRANCH   7   8
ENDBRANCH   3   7
BRANCH   1  22
HETATM   22  C   UNL     1     -40.534  54.314 -54.841  1.00  0.00     0.127 C 
BRANCH  22  23
HETATM   23  N   UNL     1     -40.429  53.612 -53.559  1.00  0.00    -0.376 N 
HETATM   24  H   UNL     1     -40.057  54.187 -52.808  1.00  0.00     0.161 HD
BRANCH  23  25
HETATM   25  C   UNL     1     -40.132  52.259 -53.499  1.00  0.00     0.101 A 
HETATM   26  N   UNL     1     -39.936  51.706 -52.286  1.00  0.00    -0.347 N 
HETATM   27  C   UNL     1     -39.677  50.400 -52.080  1.00  0.00     0.007 A 
HETATM   28  H   UNL     1     -40.004  52.312 -51.475  1.00  0.00     0.167 HD
HETATM   29  C   UNL     1     -39.477  49.910 -50.681  1.00  0.00     0.068 C 
HETATM   30  C   UNL     1     -39.615  49.538 -53.172  1.00  0.00     0.025 A 
HETATM   31  C   UNL     1     -39.832  50.046 -54.445  1.00  0.00     0.006 A 
HETATM   32  C   UNL     1     -40.097  51.404 -54.608  1.00  0.00     0.048 A 
ENDBRANCH  23  25
ENDBRANCH  22  23
ENDBRANCH   1  22
TORSDOF 6
ENDMDL
MODEL 3
REMARK VINA RESULT:      -8.9      2.538      4.655
REMARK  6 active torsions:
REMARK  status: ('A' for Active; 'I' for Inactive)
REMARK    1  A    between atoms: C_5  and  N_6 
REMARK    2  A    between atoms: N_6  and  C_7 
REMARK    3  A    between atoms: C_7  and  C_8 
REMARK    4  A    between atoms: N_10  and  C_12 
REMARK    5  A    between atoms: C_12  and  C_13 
REMARK    6  A    between atoms: C_14  and  C_15 
ROOT
HETATM    1  C   UNL     1     -41.172  55.012 -55.078  1.00  0.00     0.031 C 
HETATM    2  C   UNL     1     -41.067  55.262 -53.569  1.00  0.00     0.241 C 
HETATM    3  N   UNL     1     -40.587  53.952 -52.970  1.00  0.00    -0.067 N 
HETATM    4  H   UNL     1     -39.683  54.131 -52.511  1.00  0.00     0.280 HD
HETATM    5  C   UNL     1     -40.304  52.997 -54.110  1.00  0.00     0.235 C 
HETATM    6  C   UNL     1     -40.132  53.916 -55.303  1.00  0.00     0.035 C 
ENDROOT
BRANCH   3   7
HETATM    7  C   UNL     1     -41.478  53.411 -51.872  1.00  0.00     0.277 C 
BRANCH   7   8
HETATM    8  C   UNL     1     -41.149  53.913 -50.517  1.00  0.00     0.016 A 
HETATM    9  C   UNL     1     -41.553  55.152 -49.925  1.00  0.00     0.102 A 
HETATM   10  N   UNL     1     -41.110  55.238 -48.667  1.00  0.00    -0.174 NA
HETATM   11  N   UNL     1     -40.342  54.161 -48.482  1.00  0.00    -0.288 N 
HETATM   12  H   UNL     1     -39.850  54.066 -47.597  1.00  0.00     0.188 HD
HETATM   13  C   UNL     1     -40.351  53.316 -49.555  1.00  0.00     0.120 A 
BRANCH   9  14
HETATM   14  C   UNL     1     -42.337  56.240 -50.492  1.00  0.00     0.072 A 
HETATM   15  C   UNL     1     -43.715  56.128 -50.688  1.00  0.00     0.132 A 
HETATM   16  F   UNL     1     -44.353  54.978 -50.405  1.00  0.00    -0.205 F 
HETATM   17  C   UNL     1     -44.463  57.185 -51.214  1.00  0.00     0.043 A 
HETATM   18  C   UNL     1     -43.831  58.379 -51.554  1.00  0.00     0.006 A 
HETATM   19  C   UNL     1     -42.454  58.507 -51.376  1.00  0.00     0.043 A 
HETATM   20  C   UNL     1     -41.721  57.444 -50.849  1.00  0.00     0.132 A 
HETATM   21  F   UNL     1     -40.392  57.589 -50.734  1.00  0.00    -0.205 F 
ENDBRANCH   9  14
ENDBRANCH   7   8
ENDBRANCH   3   7
BRANCH   1  22
HETATM   22  C   UNL     1     -42.598  54.594 -55.498  1.00  0.00     0.127 C 
BRANCH  22  23
HETATM   23  N   UNL     1     -43.321  55.750 -56.039  1.00  0.00    -0.376 N 
HETATM   24  H   UNL     1     -44.233  55.895 -55.614  1.00  0.00     0.161 HD
BRANCH  23  25
HETATM   25  C   UNL     1     -43.198  56.120 -57.369  1.00  0.00     0.101 A 
HETATM   26  N   UNL     1     -43.873  55.407 -58.291  1.00  0.00    -0.347 N 
HETATM   27  C   UNL     1     -43.873  55.677 -59.611  1.00  0.00     0.007 A 
HETATM   28  H   UNL     1     -44.429  54.622 -57.966  1.00  0.00     0.167 HD
HETATM   29  C   UNL     1     -44.665  54.806 -60.532  1.00  0.00     0.068 C 
HETATM   30  C   UNL     1     -43.149  56.770 -60.080  1.00  0.00     0.025 A 
HETATM   31  C   UNL     1     -42.452  57.557 -59.175  1.00  0.00     0.006 A 
HETATM   32  C   UNL     1     -42.482  57.237 -57.819  1.00  0.00     0.048 A 
ENDBRANCH  23  25
ENDBRANCH  22  23
ENDBRANCH   1  22
TORSDOF 6
ENDMDL
MODEL 4
REMARK VINA RESULT:      -8.7      1.824      2.683
REMARK  6 active torsions:
REMARK  status: ('A' for Active; 'I' for Inactive)
REMARK    1  A    between atoms: C_5  and  N_6 
REMARK    2  A    between atoms: N_6  and  C_7 
REMARK    3  A    between atoms: C_7  and  C_8 
REMARK    4  A    between atoms: N_10  and  C_12 
REMARK    5  A    between atoms: C_12  and  C_13 
REMARK    6  A    between atoms: C_14  and  C_15 
ROOT
HETATM    1  C   UNL     1     -43.075  57.881 -55.453  1.00  0.00     0.031 C 
HETATM    2  C   UNL     1     -43.452  57.463 -54.027  1.00  0.00     0.241 C 
HETATM    3  N   UNL     1     -42.327  57.969 -53.143  1.00  0.00    -0.067 N 
HETATM    4  H   UNL     1     -42.735  58.635 -52.470  1.00  0.00     0.280 HD
HETATM    5  C   UNL     1     -41.378  58.768 -54.010  1.00  0.00     0.235 C 
HETATM    6  C   UNL     1     -42.223  59.126 -55.217  1.00  0.00     0.035 C 
ENDROOT
BRANCH   3   7
HETATM    7  C   UNL     1     -41.685  56.900 -52.285  1.00  0.00     0.277 C 
BRANCH   7   8
HETATM    8  C   UNL     1     -42.645  55.958 -51.664  1.00  0.00     0.016 A 
HETATM    9  C   UNL     1     -42.596  54.527 -51.680  1.00  0.00     0.102 A 
HETATM   10  N   UNL     1     -43.604  54.015 -50.966  1.00  0.00    -0.174 NA
HETATM   11  N   UNL     1     -44.354  55.058 -50.604  1.00  0.00    -0.288 N 
HETATM   12  H   UNL     1     -45.220  54.878 -50.100  1.00  0.00     0.188 HD
HETATM   13  C   UNL     1     -43.809  56.255 -50.975  1.00  0.00     0.120 A 
BRANCH   9  14
HETATM   14  C   UNL     1     -41.642  53.638 -52.327  1.00  0.00     0.072 A 
HETATM   15  C   UNL     1     -40.621  53.009 -51.612  1.00  0.00     0.132 A 
HETATM   16  F   UNL     1     -40.456  53.256 -50.300  1.00  0.00    -0.205 F 
HETATM   17  C   UNL     1     -39.722  52.142 -52.238  1.00  0.00     0.043 A 
HETATM   18  C   UNL     1     -39.838  51.891 -53.604  1.00  0.00     0.006 A 
HETATM   19  C   UNL     1     -40.845  52.517 -54.338  1.00  0.00     0.043 A 
HETATM   20  C   UNL     1     -41.735  53.380 -53.699  1.00  0.00     0.132 A 
HETATM   21  F   UNL     1     -42.663  53.998 -54.446  1.00  0.00    -0.205 F 
ENDBRANCH   9  14
ENDBRANCH   7   8
ENDBRANCH   3   7
BRANCH   1  22
HETATM   22  C   UNL     1     -42.323  56.761 -56.207  1.00  0.00     0.127 C 
BRANCH  22  23
HETATM   23  N   UNL     1     -42.347  57.024 -57.648  1.00  0.00    -0.376 N 
HETATM   24  H   UNL     1     -41.990  57.942 -57.902  1.00  0.00     0.161 HD
BRANCH  23  25
HETATM   25  C   UNL     1     -43.347  56.510 -58.460  1.00  0.00     0.101 A 
HETATM   26  N   UNL     1     -44.549  57.118 -58.447  1.00  0.00    -0.347 N 
HETATM   27  C   UNL     1     -45.596  56.747 -59.210  1.00  0.00     0.007 A 
HETATM   28  H   UNL     1     -44.667  57.917 -57.832  1.00  0.00     0.167 HD
HETATM   29  C   UNL     1     -46.880  57.506 -59.101  1.00  0.00     0.068 C 
HETATM   30  C   UNL     1     -45.451  55.678 -60.089  1.00  0.00     0.025 A 
HETATM   31  C   UNL     1     -44.228  55.027 -60.164  1.00  0.00     0.006 A 
HETATM   32  C   UNL     1     -43.174  55.447 -59.356  1.00  0.00     0.048 A 
ENDBRANCH  23  25
ENDBRANCH  22  23
ENDBRANCH   1  22
TORSDOF 6
ENDMDL
MODEL 5
REMARK VINA RESULT:      -8.7      1.823      2.281
REMARK  6 active torsions:
REMARK  status: ('A' for Active; 'I' for Inactive)
REMARK    1  A    between atoms: C_5  and  N_6 
REMARK    2  A    between atoms: N_6  and  C_7 
REMARK    3  A    between atoms: C_7  and  C_8 
REMARK    4  A    between atoms: N_10  and  C_12 
REMARK    5  A    between atoms: C_12  and  C_13 
REMARK    6  A    between atoms: C_14  and  C_15 
ROOT
HETATM    1  C   UNL     1     -43.077  57.917 -55.420  1.00  0.00     0.031 C 
HETATM    2  C   UNL     1     -43.454  57.475 -54.002  1.00  0.00     0.241 C 
HETATM    3  N   UNL     1     -42.324  57.959 -53.110  1.00  0.00    -0.067 N 
HETATM    4  H   UNL     1     -42.726  58.614 -52.425  1.00  0.00     0.280 HD
HETATM    5  C   UNL     1     -41.372  58.767 -53.965  1.00  0.00     0.235 C 
HETATM    6  C   UNL     1     -42.217  59.153 -55.163  1.00  0.00     0.035 C 
ENDROOT
BRANCH   3   7
HETATM    7  C   UNL     1     -41.687  56.870 -52.274  1.00  0.00     0.277 C 
BRANCH   7   8
HETATM    8  C   UNL     1     -42.653  55.932 -51.654  1.00  0.00     0.016 A 
HETATM    9  C   UNL     1     -42.613  54.501 -51.674  1.00  0.00     0.102 A 
HETATM   10  N   UNL     1     -43.625  53.993 -50.962  1.00  0.00    -0.174 NA
HETATM   11  N   UNL     1     -44.368  55.040 -50.597  1.00  0.00    -0.288 N 
HETATM   12  H   UNL     1     -45.235  54.864 -50.094  1.00  0.00     0.188 HD
HETATM   13  C   UNL     1     -43.816  56.234 -50.965  1.00  0.00     0.120 A 
BRANCH   9  14
HETATM   14  C   UNL     1     -41.665  53.607 -52.324  1.00  0.00     0.072 A 
HETATM   15  C   UNL     1     -41.699  53.375 -53.701  1.00  0.00     0.132 A 
HETATM   16  F   UNL     1     -42.655  53.934 -54.463  1.00  0.00    -0.205 F 
HETATM   17  C   UNL     1     -40.772  52.531 -54.318  1.00  0.00     0.043 A 
HETATM   18  C   UNL     1     -39.790  51.903 -53.555  1.00  0.00     0.006 A 
HETATM   19  C   UNL     1     -39.746  52.115 -52.177  1.00  0.00     0.043 A 
HETATM   20  C   UNL     1     -40.676  52.961 -51.575  1.00  0.00     0.132 A 
HETATM   21  F   UNL     1     -40.630  53.104 -50.241  1.00  0.00    -0.205 F 
ENDBRANCH   9  14
ENDBRANCH   7   8
ENDBRANCH   3   7
BRANCH   1  22
HETATM   22  C   UNL     1     -42.335  56.807 -56.196  1.00  0.00     0.127 C 
BRANCH  22  23
HETATM   23  N   UNL     1     -42.367  57.091 -57.633  1.00  0.00    -0.376 N 
HETATM   24  H   UNL     1     -42.021  58.017 -57.874  1.00  0.00     0.161 HD
BRANCH  23  25
HETATM   25  C   UNL     1     -43.364  56.579 -58.448  1.00  0.00     0.101 A 
HETATM   26  N   UNL     1     -44.510  57.278 -58.564  1.00  0.00    -0.347 N 
HETATM   27  C   UNL     1     -45.545  56.916 -59.347  1.00  0.00     0.007 A 
HETATM   28  H   UNL     1     -44.592  58.141 -58.036  1.00  0.00     0.167 HD
HETATM   29  C   UNL     1     -46.765  57.781 -59.386  1.00  0.00     0.068 C 
HETATM   30  C   UNL     1     -45.447  55.756 -60.110  1.00  0.00     0.025 A 
HETATM   31  C   UNL     1     -44.281  55.007 -60.052  1.00  0.00     0.006 A 
HETATM   32  C   UNL     1     -43.237  55.421 -59.227  1.00  0.00     0.048 A 
ENDBRANCH  23  25
ENDBRANCH  22  23
ENDBRANCH   1  22
TORSDOF 6
ENDMDL
MODEL 6
REMARK VINA RESULT:      -8.7      4.030      7.936
REMARK  6 active torsions:
REMARK  status: ('A' for Active; 'I' for Inactive)
REMARK    1  A    between atoms: C_5  and  N_6 
REMARK    2  A    between atoms: N_6  and  C_7 
REMARK    3  A    between atoms: C_7  and  C_8 
REMARK    4  A    between atoms: N_10  and  C_12 
REMARK    5  A    between atoms: C_12  and  C_13 
REMARK    6  A    between atoms: C_14  and  C_15 
ROOT
HETATM    1  C   UNL     1     -42.342  53.908 -52.950  1.00  0.00     0.031 C 
HETATM    2  C   UNL     1     -43.210  54.301 -51.749  1.00  0.00     0.241 C 
HETATM    3  N   UNL     1     -43.866  55.615 -52.131  1.00  0.00    -0.067 N 
HETATM    4  H   UNL     1     -44.886  55.468 -52.126  1.00  0.00     0.280 HD
HETATM    5  C   UNL     1     -43.488  55.923 -53.564  1.00  0.00     0.235 C 
HETATM    6  C   UNL     1     -43.073  54.573 -54.115  1.00  0.00     0.035 C 
ENDROOT
BRANCH   3   7
HETATM    7  C   UNL     1     -43.633  56.735 -51.140  1.00  0.00     0.277 C 
BRANCH   7   8
HETATM    8  C   UNL     1     -43.949  58.086 -51.661  1.00  0.00     0.016 A 
HETATM    9  C   UNL     1     -43.032  59.153 -51.926  1.00  0.00     0.102 A 
HETATM   10  N   UNL     1     -43.675  60.207 -52.441  1.00  0.00    -0.174 NA
HETATM   11  N   UNL     1     -44.971  59.893 -52.397  1.00  0.00    -0.288 N 
HETATM   12  H   UNL     1     -45.648  60.596 -52.687  1.00  0.00     0.188 HD
HETATM   13  C   UNL     1     -45.192  58.618 -51.960  1.00  0.00     0.120 A 
BRANCH   9  14
HETATM   14  C   UNL     1     -41.591  59.212 -51.723  1.00  0.00     0.072 A 
HETATM   15  C   UNL     1     -41.036  59.666 -50.525  1.00  0.00     0.132 A 
HETATM   16  F   UNL     1     -41.827  60.117 -49.535  1.00  0.00    -0.205 F 
HETATM   17  C   UNL     1     -39.653  59.700 -50.332  1.00  0.00     0.043 A 
HETATM   18  C   UNL     1     -38.800  59.276 -51.350  1.00  0.00     0.006 A 
HETATM   19  C   UNL     1     -39.335  58.830 -52.557  1.00  0.00     0.043 A 
HETATM   20  C   UNL     1     -40.718  58.800 -52.735  1.00  0.00     0.132 A 
HETATM   21  F   UNL     1     -41.193  58.406 -53.926  1.00  0.00    -0.205 F 
ENDBRANCH   9  14
ENDBRANCH   7   8
ENDBRANCH   3   7
BRANCH   1  22
HETATM   22  C   UNL     1     -40.883  54.387 -52.792  1.00  0.00     0.127 C 
BRANCH  22  23
HETATM   23  N   UNL     1     -40.226  53.649 -51.709  1.00  0.00    -0.376 N 
HETATM   24  H   UNL     1     -39.479  54.170 -51.255  1.00  0.00     0.161 HD
BRANCH  23  25
HETATM   25  C   UNL     1     -40.067  52.273 -51.766  1.00  0.00     0.101 A 
HETATM   26  N   UNL     1     -39.887  51.705 -52.974  1.00  0.00    -0.347 N 
HETATM   27  C   UNL     1     -39.685  50.388 -53.172  1.00  0.00     0.007 A 
HETATM   28  H   UNL     1     -39.890  52.313 -53.787  1.00  0.00     0.167 HD
HETATM   29  C   UNL     1     -39.500  49.881 -54.567  1.00  0.00     0.068 C 
HETATM   30  C   UNL     1     -39.639  49.535 -52.072  1.00  0.00     0.025 A 
HETATM   31  C   UNL     1     -39.794  50.066 -50.800  1.00  0.00     0.006 A 
HETATM   32  C   UNL     1     -40.000  51.435 -50.646  1.00  0.00     0.048 A 
ENDBRANCH  23  25
ENDBRANCH  22  23
ENDBRANCH   1  22
TORSDOF 6
ENDMDL
MODEL 7
REMARK VINA RESULT:      -8.7      3.176      6.734
REMARK  6 active torsions:
REMARK  status: ('A' for Active; 'I' for Inactive)
REMARK    1  A    between atoms: C_5  and  N_6 
REMARK    2  A    between atoms: N_6  and  C_7 
REMARK    3  A    between atoms: C_7  and  C_8 
REMARK    4  A    between atoms: N_10  and  C_12 
REMARK    5  A    between atoms: C_12  and  C_13 
REMARK    6  A    between atoms: C_14  and  C_15 
ROOT
HETATM    1  C   UNL     1     -43.203  55.712 -55.900  1.00  0.00     0.031 C 
HETATM    2  C   UNL     1     -43.382  56.711 -54.752  1.00  0.00     0.241 C 
HETATM    3  N   UNL     1     -42.710  57.990 -55.215  1.00  0.00    -0.067 N 
HETATM    4  H   UNL     1     -43.428  58.728 -55.243  1.00  0.00     0.280 HD
HETATM    5  C   UNL     1     -42.254  57.785 -56.644  1.00  0.00     0.235 C 
HETATM    6  C   UNL     1     -43.107  56.626 -57.120  1.00  0.00     0.035 C 
ENDROOT
BRANCH   3   7
HETATM    7  C   UNL     1     -41.656  58.515 -54.263  1.00  0.00     0.277 C 
BRANCH   7   8
HETATM    8  C   UNL     1     -42.187  59.370 -53.176  1.00  0.00     0.016 A 
HETATM    9  C   UNL     1     -42.503  58.978 -51.835  1.00  0.00     0.102 A 
HETATM   10  N   UNL     1     -42.909  60.033 -51.121  1.00  0.00    -0.174 NA
HETATM   11  N   UNL     1     -42.978  61.047 -51.987  1.00  0.00    -0.288 N 
HETATM   12  H   UNL     1     -43.333  61.941 -51.654  1.00  0.00     0.188 HD
HETATM   13  C   UNL     1     -42.530  60.710 -53.232  1.00  0.00     0.120 A 
BRANCH   9  14
HETATM   14  C   UNL     1     -42.431  57.665 -51.210  1.00  0.00     0.072 A 
HETATM   15  C   UNL     1     -43.532  56.807 -51.171  1.00  0.00     0.132 A 
HETATM   16  F   UNL     1     -44.719  57.198 -51.669  1.00  0.00    -0.205 F 
HETATM   17  C   UNL     1     -43.447  55.541 -50.587  1.00  0.00     0.043 A 
HETATM   18  C   UNL     1     -42.244  55.116 -50.026  1.00  0.00     0.006 A 
HETATM   19  C   UNL     1     -41.136  55.962 -50.046  1.00  0.00     0.043 A 
HETATM   20  C   UNL     1     -41.235  57.222 -50.634  1.00  0.00     0.132 A 
HETATM   21  F   UNL     1     -40.161  58.025 -50.594  1.00  0.00    -0.205 F 
ENDBRANCH   9  14
ENDBRANCH   7   8
ENDBRANCH   3   7
BRANCH   1  22
HETATM   22  C   UNL     1     -41.955  54.822 -55.706  1.00  0.00     0.127 C 
BRANCH  22  23
HETATM   23  N   UNL     1     -42.317  53.603 -54.977  1.00  0.00    -0.376 N 
HETATM   24  H   UNL     1     -43.301  53.556 -54.724  1.00  0.00     0.161 HD
BRANCH  23  25
HETATM   25  C   UNL     1     -41.430  52.995 -54.102  1.00  0.00     0.101 A 
HETATM   26  N   UNL     1     -40.875  51.825 -54.473  1.00  0.00    -0.347 N 
HETATM   27  C   UNL     1     -39.974  51.145 -53.738  1.00  0.00     0.007 A 
HETATM   28  H   UNL     1     -41.146  51.438 -55.371  1.00  0.00     0.167 HD
HETATM   29  C   UNL     1     -39.433  49.852 -54.262  1.00  0.00     0.068 C 
HETATM   30  C   UNL     1     -39.556  51.670 -52.517  1.00  0.00     0.025 A 
HETATM   31  C   UNL     1     -40.074  52.885 -52.094  1.00  0.00     0.006 A 
HETATM   32  C   UNL     1     -41.005  53.551 -52.888  1.00  0.00     0.048 A 
ENDBRANCH  23  25
ENDBRANCH  22  23
ENDBRANCH   1  22
TORSDOF 6
ENDMDL
MODEL 8
REMARK VINA RESULT:      -8.5      3.411      8.026
REMARK  6 active torsions:
REMARK  status: ('A' for Active; 'I' for Inactive)
REMARK    1  A    between atoms: C_5  and  N_6 
REMARK    2  A    between atoms: N_6  and  C_7 
REMARK    3  A    between atoms: C_7  and  C_8 
REMARK    4  A    between atoms: N_10  and  C_12 
REMARK    5  A    between atoms: C_12  and  C_13 
REMARK    6  A    between atoms: C_14  and  C_15 
ROOT
HETATM    1  C   UNL     1     -42.505  54.057 -54.399  1.00  0.00     0.031 C 
HETATM    2  C   UNL     1     -43.805  54.866 -54.339  1.00  0.00     0.241 C 
HETATM    3  N   UNL     1     -43.457  56.238 -54.887  1.00  0.00    -0.067 N 
HETATM    4  H   UNL     1     -44.037  56.397 -55.723  1.00  0.00     0.280 HD
HETATM    5  C   UNL     1     -42.022  56.197 -55.367  1.00  0.00     0.235 C 
HETATM    6  C   UNL     1     -41.759  54.716 -55.557  1.00  0.00     0.035 C 
ENDROOT
BRANCH   3   7
HETATM    7  C   UNL     1     -43.801  57.382 -53.957  1.00  0.00     0.277 C 
BRANCH   7   8
HETATM    8  C   UNL     1     -43.462  58.723 -54.487  1.00  0.00     0.016 A 
HETATM    9  C   UNL     1     -42.615  59.709 -53.887  1.00  0.00     0.102 A 
HETATM   10  N   UNL     1     -42.502  60.778 -54.684  1.00  0.00    -0.174 NA
HETATM   11  N   UNL     1     -43.337  60.557 -55.702  1.00  0.00    -0.288 N 
HETATM   12  H   UNL     1     -43.451  61.290 -56.399  1.00  0.00     0.188 HD
HETATM   13  C   UNL     1     -43.922  59.324 -55.647  1.00  0.00     0.120 A 
BRANCH   9  14
HETATM   14  C   UNL     1     -41.913  59.679 -52.613  1.00  0.00     0.072 A 
HETATM   15  C   UNL     1     -42.422  60.313 -51.477  1.00  0.00     0.132 A 
HETATM   16  F   UNL     1     -43.562  61.024 -51.547  1.00  0.00    -0.205 F 
HETATM   17  C   UNL     1     -41.751  60.261 -50.253  1.00  0.00     0.043 A 
HETATM   18  C   UNL     1     -40.547  59.566 -50.151  1.00  0.00     0.006 A 
HETATM   19  C   UNL     1     -40.017  58.934 -51.276  1.00  0.00     0.043 A 
HETATM   20  C   UNL     1     -40.699  58.994 -52.491  1.00  0.00     0.132 A 
HETATM   21  F   UNL     1     -40.136  58.412 -53.561  1.00  0.00    -0.205 F 
ENDBRANCH   9  14
ENDBRANCH   7   8
ENDBRANCH   3   7
BRANCH   1  22
HETATM   22  C   UNL     1     -41.728  54.109 -53.065  1.00  0.00     0.127 C 
BRANCH  22  23
HETATM   23  N   UNL     1     -40.364  53.607 -53.258  1.00  0.00    -0.376 N 
HETATM   24  H   UNL     1     -39.799  54.188 -53.873  1.00  0.00     0.161 HD
BRANCH  23  25
HETATM   25  C   UNL     1     -40.091  52.248 -53.277  1.00  0.00     0.101 A 
HETATM   26  N   UNL     1     -39.888  51.626 -52.100  1.00  0.00    -0.347 N 
HETATM   27  C   UNL     1     -39.649  50.306 -51.969  1.00  0.00     0.007 A 
HETATM   28  H   UNL     1     -39.932  52.187 -51.255  1.00  0.00     0.167 HD
HETATM   29  C   UNL     1     -39.439  49.736 -50.602  1.00  0.00     0.068 C 
HETATM   30  C   UNL     1     -39.619  49.505 -53.107  1.00  0.00     0.025 A 
HETATM   31  C   UNL     1     -39.845  50.085 -54.347  1.00  0.00     0.006 A 
HETATM   32  C   UNL     1     -40.088  51.454 -54.432  1.00  0.00     0.048 A 
ENDBRANCH  23  25
ENDBRANCH  22  23
ENDBRANCH   1  22
TORSDOF 6
ENDMDL
MODEL 9
REMARK VINA RESULT:      -8.4      2.949      4.740
REMARK  6 active torsions:
REMARK  status: ('A' for Active; 'I' for Inactive)
REMARK    1  A    between atoms: C_5  and  N_6 
REMARK    2  A    between atoms: N_6  and  C_7 
REMARK    3  A    between atoms: C_7  and  C_8 
REMARK    4  A    between atoms: N_10  and  C_12 
REMARK    5  A    between atoms: C_12  and  C_13 
REMARK    6  A    between atoms: C_14  and  C_15 
ROOT
HETATM    1  C   UNL     1     -41.311  54.950 -55.128  1.00  0.00     0.031 C 
HETATM    2  C   UNL     1     -41.241  55.247 -53.626  1.00  0.00     0.241 C 
HETATM    3  N   UNL     1     -40.665  53.995 -52.989  1.00  0.00    -0.067 N 
HETATM    4  H   UNL     1     -39.783  54.258 -52.526  1.00  0.00     0.280 HD
HETATM    5  C   UNL     1     -40.295  53.037 -54.100  1.00  0.00     0.235 C 
HETATM    6  C   UNL     1     -40.184  53.936 -55.316  1.00  0.00     0.035 C 
ENDROOT
BRANCH   3   7
HETATM    7  C   UNL     1     -41.521  53.413 -51.884  1.00  0.00     0.277 C 
BRANCH   7   8
HETATM    8  C   UNL     1     -41.173  53.893 -50.526  1.00  0.00     0.016 A 
HETATM    9  C   UNL     1     -41.535  55.140 -49.923  1.00  0.00     0.102 A 
HETATM   10  N   UNL     1     -41.087  55.201 -48.664  1.00  0.00    -0.174 NA
HETATM   11  N   UNL     1     -40.356  54.098 -48.490  1.00  0.00    -0.288 N 
HETATM   12  H   UNL     1     -39.865  53.979 -47.607  1.00  0.00     0.188 HD
HETATM   13  C   UNL     1     -40.394  53.262 -49.570  1.00  0.00     0.120 A 
BRANCH   9  14
HETATM   14  C   UNL     1     -42.284  56.258 -50.479  1.00  0.00     0.072 A 
HETATM   15  C   UNL     1     -41.665  57.466 -50.809  1.00  0.00     0.132 A 
HETATM   16  F   UNL     1     -40.355  57.649 -50.567  1.00  0.00    -0.205 F 
HETATM   17  C   UNL     1     -42.389  58.526 -51.361  1.00  0.00     0.043 A 
HETATM   18  C   UNL     1     -43.756  58.386 -51.591  1.00  0.00     0.006 A 
HETATM   19  C   UNL     1     -44.394  57.192 -51.260  1.00  0.00     0.043 A 
HETATM   20  C   UNL     1     -43.659  56.142 -50.710  1.00  0.00     0.132 A 
HETATM   21  F   UNL     1     -44.316  55.024 -50.363  1.00  0.00    -0.205 F 
ENDBRANCH   9  14
ENDBRANCH   7   8
ENDBRANCH   3   7
BRANCH   1  22
HETATM   22  C   UNL     1     -42.695  54.410 -55.549  1.00  0.00     0.127 C 
BRANCH  22  23
HETATM   23  N   UNL     1     -43.121  55.042 -56.801  1.00  0.00    -0.376 N 
HETATM   24  H   UNL     1     -42.786  54.564 -57.634  1.00  0.00     0.161 HD
BRANCH  23  25
HETATM   25  C   UNL     1     -43.269  56.417 -56.901  1.00  0.00     0.101 A 
HETATM   26  N   UNL     1     -44.079  57.033 -56.019  1.00  0.00    -0.347 N 
HETATM   27  C   UNL     1     -44.286  58.364 -55.979  1.00  0.00     0.007 A 
HETATM   28  H   UNL     1     -44.552  56.457 -55.330  1.00  0.00     0.167 HD
HETATM   29  C   UNL     1     -45.212  58.926 -54.948  1.00  0.00     0.068 C 
HETATM   30  C   UNL     1     -43.621  59.183 -56.888  1.00  0.00     0.025 A 
HETATM   31  C   UNL     1     -42.755  58.608 -57.806  1.00  0.00     0.006 A 
HETATM   32  C   UNL     1     -42.573  57.226 -57.809  1.00  0.00     0.048 A 
ENDBRANCH  23  25
ENDBRANCH  22  23
ENDBRANCH   1  22
TORSDOF 6
ENDMDL
MODEL 10
REMARK VINA RESULT:      -8.3      4.116      7.854
REMARK  6 active torsions:
REMARK  status: ('A' for Active; 'I' for Inactive)
REMARK    1  A    between atoms: C_5  and  N_6 
REMARK    2  A    between atoms: N_6  and  C_7 
REMARK    3  A    between atoms: C_7  and  C_8 
REMARK    4  A    between atoms: N_10  and  C_12 
REMARK    5  A    between atoms: C_12  and  C_13 
REMARK    6  A    between atoms: C_14  and  C_15 
ROOT
HETATM    1  C   UNL     1     -42.706  54.653 -52.239  1.00  0.00     0.031 C 
HETATM    2  C   UNL     1     -43.725  55.230 -51.250  1.00  0.00     0.241 C 
HETATM    3  N   UNL     1     -44.427  56.351 -51.994  1.00  0.00    -0.067 N 
HETATM    4  H   UNL     1     -45.428  56.113 -52.044  1.00  0.00     0.280 HD
HETATM    5  C   UNL     1     -43.918  56.352 -53.420  1.00  0.00     0.235 C 
HETATM    6  C   UNL     1     -43.351  54.957 -53.590  1.00  0.00     0.035 C 
ENDROOT
BRANCH   3   7
HETATM    7  C   UNL     1     -44.383  57.688 -51.285  1.00  0.00     0.277 C 
BRANCH   7   8
HETATM    8  C   UNL     1     -44.287  58.856 -52.192  1.00  0.00     0.016 A 
HETATM    9  C   UNL     1     -43.116  59.613 -52.516  1.00  0.00     0.102 A 
HETATM   10  N   UNL     1     -43.405  60.564 -53.412  1.00  0.00    -0.174 NA
HETATM   11  N   UNL     1     -44.730  60.515 -53.572  1.00  0.00    -0.288 N 
HETATM   12  H   UNL     1     -45.168  61.210 -54.173  1.00  0.00     0.188 HD
HETATM   13  C   UNL     1     -45.308  59.489 -52.881  1.00  0.00     0.120 A 
BRANCH   9  14
HETATM   14  C   UNL     1     -41.753  59.471 -52.026  1.00  0.00     0.072 A 
HETATM   15  C   UNL     1     -40.737  58.941 -52.825  1.00  0.00     0.132 A 
HETATM   16  F   UNL     1     -41.007  58.491 -54.063  1.00  0.00    -0.205 F 
HETATM   17  C   UNL     1     -39.427  58.826 -52.353  1.00  0.00     0.043 A 
HETATM   18  C   UNL     1     -39.116  59.246 -51.061  1.00  0.00     0.006 A 
HETATM   19  C   UNL     1     -40.119  59.769 -50.245  1.00  0.00     0.043 A 
HETATM   20  C   UNL     1     -41.422  59.878 -50.730  1.00  0.00     0.132 A 
HETATM   21  F   UNL     1     -42.368  60.344 -49.900  1.00  0.00    -0.205 F 
ENDBRANCH   9  14
ENDBRANCH   7   8
ENDBRANCH   3   7
BRANCH   1  22
HETATM   22  C   UNL     1     -41.309  55.292 -52.073  1.00  0.00     0.127 C 
BRANCH  22  23
HETATM   23  N   UNL     1     -40.371  54.311 -51.520  1.00  0.00    -0.376 N 
HETATM   24  H   UNL     1     -39.577  54.731 -51.042  1.00  0.00     0.161 HD
BRANCH  23  25
HETATM   25  C   UNL     1     -40.136  53.100 -52.153  1.00  0.00     0.101 A 
HETATM   26  N   UNL     1     -39.850  52.030 -51.387  1.00  0.00    -0.347 N 
HETATM   27  C   UNL     1     -39.635  50.789 -51.866  1.00  0.00     0.007 A 
HETATM   28  H   UNL     1     -39.807  52.166 -50.382  1.00  0.00     0.167 HD
HETATM   29  C   UNL     1     -39.324  49.683 -50.909  1.00  0.00     0.068 C 
HETATM   30  C   UNL     1     -39.723  50.565 -53.237  1.00  0.00     0.025 A 
HETATM   31  C   UNL     1     -40.039  51.625 -54.075  1.00  0.00     0.006 A 
HETATM   32  C   UNL     1     -40.253  52.890 -53.533  1.00  0.00     0.048 A 
ENDBRANCH  23  25
ENDBRANCH  22  23
ENDBRANCH   1  22
TORSDOF 6
ENDMDL
