MODEL 1
REMARK VINA RESULT:      -7.9      0.000      0.000
REMARK  6 active torsions:
REMARK  status: ('A' for Active; 'I' for Inactive)
REMARK    1  A    between atoms: C_4  and  O_5 
REMARK    2  A    between atoms: O_5  and  C_6 
REMARK    3  A    between atoms: C_6  and  C_7 
REMARK    4  A    between atoms: C_10  and  C_11 
REMARK    5  A    between atoms: C_11  and  N_12 
REMARK       I    between atoms: N_12  and  C_13 
REMARK       I    between atoms: C_13  and  N_14 
REMARK    6  A    between atoms: N_14  and  C_15 
ROOT
HETATM    1  C   UNL     1     -41.073  55.473 -54.369  1.00  0.00     0.165 C 
ENDROOT
BRANCH   1   2
HETATM    2  C   UNL     1     -40.634  54.116 -53.867  1.00  0.00    -0.007 A 
HETATM    3  C   UNL     1     -40.572  53.789 -52.499  1.00  0.00     0.077 A 
HETATM    4  C   UNL     1     -40.230  52.485 -52.111  1.00  0.00     0.044 A 
HETATM    5  C   UNL     1     -39.918  51.506 -53.064  1.00  0.00    -0.059 A 
HETATM    6  C   UNL     1     -39.572  50.107 -52.646  1.00  0.00     0.048 C 
HETATM    7  C   UNL     1     -39.981  51.833 -54.419  1.00  0.00     0.007 A 
HETATM    8  C   UNL     1     -40.339  53.122 -54.815  1.00  0.00     0.012 A 
BRANCH   3   9
HETATM    9  O   UNL     1     -40.876  54.798 -51.618  1.00  0.00    -0.350 OA
BRANCH   9  10
HETATM   10  C   UNL     1     -41.723  54.461 -50.517  1.00  0.00     0.180 C 
BRANCH  10  11
HETATM   11  C   UNL     1     -40.976  54.767 -49.255  1.00  0.00     0.010 A 
HETATM   12  C   UNL     1     -40.646  53.663 -48.282  1.00  0.00     0.007 A 
HETATM   13  C   UNL     1     -39.549  54.314 -49.077  1.00  0.00     0.007 A 
ENDBRANCH  10  11
ENDBRANCH   9  10
ENDBRANCH   3   9
ENDBRANCH   1   2
BRANCH   1  14
HETATM   14  N   UNL     1     -41.269  55.516 -55.801  1.00  0.00    -0.339 N 
HETATM   15  C   UNL     1     -42.539  55.579 -56.326  1.00  0.00     0.321 C 
HETATM   16  N   UNL     1     -42.512  55.809 -57.683  1.00  0.00    -0.307 N 
HETATM   17  O   UNL     1     -43.541  55.430 -55.638  1.00  0.00    -0.247 OA
HETATM   18  H   UNL     1     -41.609  56.029 -58.068  1.00  0.00     0.170 HD
HETATM   19  H   UNL     1     -40.512  55.949 -56.311  1.00  0.00     0.164 HD
BRANCH  16  20
HETATM   20  C   UNL     1     -43.619  55.833 -58.563  1.00  0.00     0.059 A 
HETATM   21  C   UNL     1     -44.326  57.036 -58.755  1.00  0.00    -0.032 A 
HETATM   22  C   UNL     1     -43.986  58.301 -58.020  1.00  0.00     0.050 C 
HETATM   23  C   UNL     1     -45.402  57.053 -59.656  1.00  0.00     0.028 A 
HETATM   24  C   UNL     1     -45.739  55.889 -60.328  1.00  0.00     0.117 A 
HETATM   25  N   UNL     1     -45.089  54.724 -60.166  1.00  0.00    -0.271 NA
HETATM   26  C   UNL     1     -44.050  54.721 -59.290  1.00  0.00     0.146 A 
ENDBRANCH  16  20
ENDBRANCH   1  14
TORSDOF 6
ENDMDL
MODEL 2
REMARK VINA RESULT:      -7.9      1.864      4.004
REMARK  6 active torsions:
REMARK  status: ('A' for Active; 'I' for Inactive)
REMARK    1  A    between atoms: C_4  and  O_5 
REMARK    2  A    between atoms: O_5  and  C_6 
REMARK    3  A    between atoms: C_6  and  C_7 
REMARK    4  A    between atoms: C_10  and  C_11 
REMARK    5  A    between atoms: C_11  and  N_12 
REMARK       I    between atoms: N_12  and  C_13 
REMARK       I    between atoms: C_13  and  N_14 
REMARK    6  A    between atoms: N_14  and  C_15 
ROOT
HETATM    1  C   UNL     1     -43.502  54.946 -53.953  1.00  0.00     0.165 C 
ENDROOT
BRANCH   1   2
HETATM    2  C   UNL     1     -42.532  54.684 -52.823  1.00  0.00    -0.007 A 
HETATM    3  C   UNL     1     -41.537  53.690 -52.883  1.00  0.00     0.077 A 
HETATM    4  C   UNL     1     -40.623  53.558 -51.827  1.00  0.00     0.044 A 
HETATM    5  C   UNL     1     -40.701  54.381 -50.696  1.00  0.00    -0.059 A 
HETATM    6  C   UNL     1     -39.710  54.250 -49.577  1.00  0.00     0.048 C 
HETATM    7  C   UNL     1     -41.688  55.367 -50.640  1.00  0.00     0.007 A 
HETATM    8  C   UNL     1     -42.590  55.518 -51.693  1.00  0.00     0.012 A 
BRANCH   3   9
HETATM    9  O   UNL     1     -41.525  52.909 -54.013  1.00  0.00    -0.350 OA
BRANCH   9  10
HETATM   10  C   UNL     1     -40.293  52.261 -54.336  1.00  0.00     0.180 C 
BRANCH  10  11
HETATM   11  C   UNL     1     -40.501  50.784 -54.190  1.00  0.00     0.010 A 
HETATM   12  C   UNL     1     -39.419  49.821 -54.609  1.00  0.00     0.007 A 
HETATM   13  C   UNL     1     -39.740  50.000 -53.152  1.00  0.00     0.007 A 
ENDBRANCH  10  11
ENDBRANCH   9  10
ENDBRANCH   3   9
ENDBRANCH   1   2
BRANCH   1  14
HETATM   14  N   UNL     1     -42.851  55.204 -55.218  1.00  0.00    -0.339 N 
HETATM   15  C   UNL     1     -43.145  56.343 -55.931  1.00  0.00     0.321 C 
HETATM   16  N   UNL     1     -42.291  56.505 -56.998  1.00  0.00    -0.307 N 
HETATM   17  O   UNL     1     -44.071  57.085 -55.628  1.00  0.00    -0.247 OA
HETATM   18  H   UNL     1     -41.511  55.869 -57.029  1.00  0.00     0.170 HD
HETATM   19  H   UNL     1     -41.924  54.810 -55.295  1.00  0.00     0.164 HD
BRANCH  16  20
HETATM   20  C   UNL     1     -42.359  57.502 -57.998  1.00  0.00     0.059 A 
HETATM   21  C   UNL     1     -42.813  57.161 -59.287  1.00  0.00    -0.032 A 
HETATM   22  C   UNL     1     -43.186  55.757 -59.669  1.00  0.00     0.050 C 
HETATM   23  C   UNL     1     -42.907  58.168 -60.260  1.00  0.00     0.028 A 
HETATM   24  C   UNL     1     -42.549  59.464 -59.928  1.00  0.00     0.117 A 
HETATM   25  N   UNL     1     -42.108  59.824 -58.710  1.00  0.00    -0.271 NA
HETATM   26  C   UNL     1     -42.021  58.839 -57.777  1.00  0.00     0.146 A 
ENDBRANCH  16  20
ENDBRANCH   1  14
TORSDOF 6
ENDMDL
MODEL 3
REMARK VINA RESULT:      -7.8      2.523      3.390
REMARK  6 active torsions:
REMARK  status: ('A' for Active; 'I' for Inactive)
REMARK    1  A    between atoms: C_4  and  O_5 
REMARK    2  A    between atoms: O_5  and  C_6 
REMARK    3  A    between atoms: C_6  and  C_7 
REMARK    4  A    between atoms: C_10  and  C_11 
REMARK    5  A    between atoms: C_11  and  N_12 
REMARK       I    between atoms: N_12  and  C_13 
REMARK       I    between atoms: C_13  and  N_14 
REMARK    6  A    between atoms: N_14  and  C_15 
ROOT
HETATM    1  C   UNL     1     -40.790  53.393 -55.028  1.00  0.00     0.165 C 
ENDROOT
BRANCH   1   2
HETATM    2  C   UNL     1     -40.346  52.421 -53.959  1.00  0.00    -0.007 A 
HETATM    3  C   UNL     1     -40.195  52.785 -52.607  1.00  0.00     0.077 A 
HETATM    4  C   UNL     1     -39.854  51.810 -51.659  1.00  0.00     0.044 A 
HETATM    5  C   UNL     1     -39.630  50.479 -52.038  1.00  0.00    -0.059 A 
HETATM    6  C   UNL     1     -39.285  49.435 -51.018  1.00  0.00     0.048 C 
HETATM    7  C   UNL     1     -39.781  50.121 -53.379  1.00  0.00     0.007 A 
HETATM    8  C   UNL     1     -40.138  51.080 -54.326  1.00  0.00     0.012 A 
BRANCH   3   9
HETATM    9  O   UNL     1     -40.415  54.107 -52.305  1.00  0.00    -0.350 OA
BRANCH   9  10
HETATM   10  C   UNL     1     -41.359  54.384 -51.270  1.00  0.00     0.180 C 
BRANCH  10  11
HETATM   11  C   UNL     1     -40.632  55.087 -50.164  1.00  0.00     0.010 A 
HETATM   12  C   UNL     1     -41.059  54.891 -48.731  1.00  0.00     0.007 A 
HETATM   13  C   UNL     1     -39.754  54.318 -49.210  1.00  0.00     0.007 A 
ENDBRANCH  10  11
ENDBRANCH   9  10
ENDBRANCH   3   9
ENDBRANCH   1   2
BRANCH   1  14
HETATM   14  N   UNL     1     -42.100  53.955 -54.781  1.00  0.00    -0.339 N 
HETATM   15  C   UNL     1     -42.296  55.315 -54.853  1.00  0.00     0.321 C 
HETATM   16  N   UNL     1     -43.632  55.635 -54.781  1.00  0.00    -0.307 N 
HETATM   17  O   UNL     1     -41.367  56.107 -54.953  1.00  0.00    -0.247 OA
HETATM   18  H   UNL     1     -44.268  54.856 -54.824  1.00  0.00     0.170 HD
HETATM   19  H   UNL     1     -42.866  53.341 -55.019  1.00  0.00     0.164 HD
BRANCH  16  20
HETATM   20  C   UNL     1     -44.194  56.932 -54.723  1.00  0.00     0.059 A 
HETATM   21  C   UNL     1     -44.351  57.565 -53.475  1.00  0.00    -0.032 A 
HETATM   22  C   UNL     1     -43.991  56.897 -52.178  1.00  0.00     0.050 C 
HETATM   23  C   UNL     1     -44.879  58.864 -53.436  1.00  0.00     0.028 A 
HETATM   24  C   UNL     1     -45.232  59.486 -54.623  1.00  0.00     0.117 A 
HETATM   25  N   UNL     1     -45.100  58.910 -55.830  1.00  0.00    -0.271 NA
HETATM   26  C   UNL     1     -44.588  57.652 -55.854  1.00  0.00     0.146 A 
ENDBRANCH  16  20
ENDBRANCH   1  14
TORSDOF 6
ENDMDL
MODEL 4
REMARK VINA RESULT:      -7.7      3.660      5.958
REMARK  6 active torsions:
REMARK  status: ('A' for Active; 'I' for Inactive)
REMARK    1  A    between atoms: C_4  and  O_5 
REMARK    2  A    between atoms: O_5  and  C_6 
REMARK    3  A    between atoms: C_6  and  C_7 
REMARK    4  A    between atoms: C_10  and  C_11 
REMARK    5  A    between atoms: C_11  and  N_12 
REMARK       I    between atoms: N_12  and  C_13 
REMARK       I    between atoms: C_13  and  N_14 
REMARK    6  A    between atoms: N_14  and  C_15 
ROOT
HETATM    1  C   UNL     1     -41.134  54.784 -51.604  1.00  0.00     0.165 C 
ENDROOT
BRANCH   1   2
HETATM    2  C   UNL     1     -40.815  53.522 -52.371  1.00  0.00    -0.007 A 
HETATM    3  C   UNL     1     -41.262  53.289 -53.686  1.00  0.00     0.077 A 
HETATM    4  C   UNL     1     -40.861  52.128 -54.362  1.00  0.00     0.044 A 
HETATM    5  C   UNL     1     -40.042  51.176 -53.740  1.00  0.00    -0.059 A 
HETATM    6  C   UNL     1     -39.597  49.945 -54.473  1.00  0.00     0.048 C 
HETATM    7  C   UNL     1     -39.598  51.410 -52.437  1.00  0.00     0.007 A 
HETATM    8  C   UNL     1     -39.977  52.570 -51.763  1.00  0.00     0.012 A 
BRANCH   3   9
HETATM    9  O   UNL     1     -42.073  54.255 -54.231  1.00  0.00    -0.350 OA
BRANCH   9  10
HETATM   10  C   UNL     1     -41.565  54.959 -55.366  1.00  0.00     0.180 C 
BRANCH  10  11
HETATM   11  C   UNL     1     -42.708  55.691 -56.000  1.00  0.00     0.010 A 
HETATM   12  C   UNL     1     -42.444  56.812 -56.973  1.00  0.00     0.007 A 
HETATM   13  C   UNL     1     -43.018  55.512 -57.465  1.00  0.00     0.007 A 
ENDBRANCH  10  11
ENDBRANCH   9  10
ENDBRANCH   3   9
ENDBRANCH   1   2
BRANCH   1  14
HETATM   14  N   UNL     1     -42.509  55.210 -51.750  1.00  0.00    -0.339 N 
HETATM   15  C   UNL     1     -42.843  56.537 -51.610  1.00  0.00     0.321 C 
HETATM   16  N   UNL     1     -44.150  56.768 -51.975  1.00  0.00    -0.307 N 
HETATM   17  O   UNL     1     -42.050  57.372 -51.196  1.00  0.00    -0.247 OA
HETATM   18  H   UNL     1     -44.623  55.993 -52.409  1.00  0.00     0.170 HD
HETATM   19  H   UNL     1     -43.057  54.635 -52.375  1.00  0.00     0.164 HD
BRANCH  16  20
HETATM   20  C   UNL     1     -44.860  57.986 -51.866  1.00  0.00     0.059 A 
HETATM   21  C   UNL     1     -44.955  58.836 -52.984  1.00  0.00    -0.032 A 
HETATM   22  C   UNL     1     -44.287  58.529 -54.294  1.00  0.00     0.050 C 
HETATM   23  C   UNL     1     -45.691  60.026 -52.871  1.00  0.00     0.028 A 
HETATM   24  C   UNL     1     -46.298  60.331 -51.664  1.00  0.00     0.117 A 
HETATM   25  N   UNL     1     -46.225  59.546 -50.575  1.00  0.00    -0.271 NA
HETATM   26  C   UNL     1     -45.509  58.398 -50.699  1.00  0.00     0.146 A 
ENDBRANCH  16  20
ENDBRANCH   1  14
TORSDOF 6
ENDMDL
MODEL 5
REMARK VINA RESULT:      -7.4      2.747      4.737
REMARK  6 active torsions:
REMARK  status: ('A' for Active; 'I' for Inactive)
REMARK    1  A    between atoms: C_4  and  O_5 
REMARK    2  A    between atoms: O_5  and  C_6 
REMARK    3  A    between atoms: C_6  and  C_7 
REMARK    4  A    between atoms: C_10  and  C_11 
REMARK    5  A    between atoms: C_11  and  N_12 
REMARK       I    between atoms: N_12  and  C_13 
REMARK       I    between atoms: C_13  and  N_14 
REMARK    6  A    between atoms: N_14  and  C_15 
ROOT
HETATM    1  C   UNL     1     -42.742  54.023 -53.557  1.00  0.00     0.165 C 
ENDROOT
BRANCH   1   2
HETATM    2  C   UNL     1     -42.138  54.022 -52.171  1.00  0.00    -0.007 A 
HETATM    3  C   UNL     1     -40.818  53.610 -51.911  1.00  0.00     0.077 A 
HETATM    4  C   UNL     1     -40.302  53.709 -50.611  1.00  0.00     0.044 A 
HETATM    5  C   UNL     1     -41.090  54.187 -49.555  1.00  0.00    -0.059 A 
HETATM    6  C   UNL     1     -40.528  54.311 -48.169  1.00  0.00     0.048 C 
HETATM    7  C   UNL     1     -42.399  54.595 -49.816  1.00  0.00     0.007 A 
HETATM    8  C   UNL     1     -42.915  54.517 -51.109  1.00  0.00     0.012 A 
BRANCH   3   9
HETATM    9  O   UNL     1     -40.104  53.139 -52.987  1.00  0.00    -0.350 OA
BRANCH   9  10
HETATM   10  C   UNL     1     -39.678  51.777 -52.933  1.00  0.00     0.180 C 
BRANCH  10  11
HETATM   11  C   UNL     1     -39.928  51.165 -54.278  1.00  0.00     0.010 A 
HETATM   12  C   UNL     1     -39.470  49.758 -54.568  1.00  0.00     0.007 A 
HETATM   13  C   UNL     1     -40.938  50.058 -54.443  1.00  0.00     0.007 A 
ENDBRANCH  10  11
ENDBRANCH   9  10
ENDBRANCH   3   9
ENDBRANCH   1   2
BRANCH   1  14
HETATM   14  N   UNL     1     -43.883  54.903 -53.683  1.00  0.00    -0.339 N 
HETATM   15  C   UNL     1     -43.762  56.107 -54.336  1.00  0.00     0.321 C 
HETATM   16  N   UNL     1     -44.988  56.705 -54.521  1.00  0.00    -0.307 N 
HETATM   17  O   UNL     1     -42.678  56.560 -54.680  1.00  0.00    -0.247 OA
HETATM   18  H   UNL     1     -45.786  56.140 -54.287  1.00  0.00     0.170 HD
HETATM   19  H   UNL     1     -44.774  54.426 -53.706  1.00  0.00     0.164 HD
BRANCH  16  20
HETATM   20  C   UNL     1     -45.234  57.989 -55.062  1.00  0.00     0.059 A 
HETATM   21  C   UNL     1     -45.159  59.120 -54.227  1.00  0.00    -0.032 A 
HETATM   22  C   UNL     1     -44.874  59.022 -52.755  1.00  0.00     0.050 C 
HETATM   23  C   UNL     1     -45.374  60.389 -54.785  1.00  0.00     0.028 A 
HETATM   24  C   UNL     1     -45.656  60.494 -56.137  1.00  0.00     0.117 A 
HETATM   25  N   UNL     1     -45.739  59.436 -56.962  1.00  0.00    -0.271 NA
HETATM   26  C   UNL     1     -45.530  58.213 -56.409  1.00  0.00     0.146 A 
ENDBRANCH  16  20
ENDBRANCH   1  14
TORSDOF 6
ENDMDL
MODEL 6
REMARK VINA RESULT:      -7.4      1.773      2.256
REMARK  6 active torsions:
REMARK  status: ('A' for Active; 'I' for Inactive)
REMARK    1  A    between atoms: C_4  and  O_5 
REMARK    2  A    between atoms: O_5  and  C_6 
REMARK    3  A    between atoms: C_6  and  C_7 
REMARK    4  A    between atoms: C_10  and  C_11 
REMARK    5  A    between atoms: C_11  and  N_12 
REMARK       I    between atoms: N_12  and  C_13 
REMARK       I    between atoms: C_13  and  N_14 
REMARK    6  A    between atoms: N_14  and  C_15 
ROOT
HETATM    1  C   UNL     1     -43.355  55.658 -53.647  1.00  0.00     0.165 C 
ENDROOT
BRANCH   1   2
HETATM    2  C   UNL     1     -42.307  54.572 -53.562  1.00  0.00    -0.007 A 
HETATM    3  C   UNL     1     -41.577  54.302 -52.389  1.00  0.00     0.077 A 
HETATM    4  C   UNL     1     -40.676  53.228 -52.363  1.00  0.00     0.044 A 
HETATM    5  C   UNL     1     -40.465  52.434 -53.497  1.00  0.00    -0.059 A 
HETATM    6  C   UNL     1     -39.515  51.273 -53.460  1.00  0.00     0.048 C 
HETATM    7  C   UNL     1     -41.191  52.703 -54.659  1.00  0.00     0.007 A 
HETATM    8  C   UNL     1     -42.103  53.757 -54.689  1.00  0.00     0.012 A 
BRANCH   3   9
HETATM    9  O   UNL     1     -41.821  55.128 -51.318  1.00  0.00    -0.350 OA
BRANCH   9  10
HETATM   10  C   UNL     1     -42.079  54.496 -50.063  1.00  0.00     0.180 C 
BRANCH  10  11
HETATM   11  C   UNL     1     -40.992  54.901 -49.114  1.00  0.00     0.010 A 
HETATM   12  C   UNL     1     -40.507  53.938 -48.060  1.00  0.00     0.007 A 
HETATM   13  C   UNL     1     -39.616  54.293 -49.217  1.00  0.00     0.007 A 
ENDBRANCH  10  11
ENDBRANCH   9  10
ENDBRANCH   3   9
ENDBRANCH   1   2
BRANCH   1  14
HETATM   14  N   UNL     1     -43.960  55.767 -54.956  1.00  0.00    -0.339 N 
HETATM   15  C   UNL     1     -43.657  56.830 -55.775  1.00  0.00     0.321 C 
HETATM   16  N   UNL     1     -44.174  56.656 -57.039  1.00  0.00    -0.307 N 
HETATM   17  O   UNL     1     -43.016  57.797 -55.383  1.00  0.00    -0.247 OA
HETATM   18  H   UNL     1     -44.568  55.749 -57.225  1.00  0.00     0.170 HD
HETATM   19  H   UNL     1     -44.195  54.880 -55.380  1.00  0.00     0.164 HD
BRANCH  16  20
HETATM   20  C   UNL     1     -44.144  57.585 -58.105  1.00  0.00     0.059 A 
HETATM   21  C   UNL     1     -43.510  57.235 -59.313  1.00  0.00    -0.032 A 
HETATM   22  C   UNL     1     -42.811  55.920 -59.508  1.00  0.00     0.050 C 
HETATM   23  C   UNL     1     -43.518  58.154 -60.373  1.00  0.00     0.028 A 
HETATM   24  C   UNL     1     -44.144  59.378 -60.201  1.00  0.00     0.117 A 
HETATM   25  N   UNL     1     -44.754  59.746 -59.061  1.00  0.00    -0.271 NA
HETATM   26  C   UNL     1     -44.739  58.847 -58.043  1.00  0.00     0.146 A 
ENDBRANCH  16  20
ENDBRANCH   1  14
TORSDOF 6
ENDMDL
MODEL 7
REMARK VINA RESULT:      -7.3      1.780      3.189
REMARK  6 active torsions:
REMARK  status: ('A' for Active; 'I' for Inactive)
REMARK    1  A    between atoms: C_4  and  O_5 
REMARK    2  A    between atoms: O_5  and  C_6 
REMARK    3  A    between atoms: C_6  and  C_7 
REMARK    4  A    between atoms: C_10  and  C_11 
REMARK    5  A    between atoms: C_11  and  N_12 
REMARK       I    between atoms: N_12  and  C_13 
REMARK       I    between atoms: C_13  and  N_14 
REMARK    6  A    between atoms: N_14  and  C_15 
ROOT
HETATM    1  C   UNL     1     -41.879  53.511 -54.446  1.00  0.00     0.165 C 
ENDROOT
BRANCH   1   2
HETATM    2  C   UNL     1     -41.333  53.776 -53.061  1.00  0.00    -0.007 A 
HETATM    3  C   UNL     1     -41.786  54.832 -52.248  1.00  0.00     0.077 A 
HETATM    4  C   UNL     1     -41.287  54.968 -50.944  1.00  0.00     0.044 A 
HETATM    5  C   UNL     1     -40.321  54.085 -50.444  1.00  0.00    -0.059 A 
HETATM    6  C   UNL     1     -39.804  54.221 -49.042  1.00  0.00     0.048 C 
HETATM    7  C   UNL     1     -39.874  53.038 -51.252  1.00  0.00     0.007 A 
HETATM    8  C   UNL     1     -40.377  52.884 -52.543  1.00  0.00     0.012 A 
BRANCH   3   9
HETATM    9  O   UNL     1     -42.723  55.669 -52.804  1.00  0.00    -0.350 OA
BRANCH   9  10
HETATM   10  C   UNL     1     -42.645  57.050 -52.450  1.00  0.00     0.180 C 
BRANCH  10  11
HETATM   11  C   UNL     1     -41.878  57.756 -53.527  1.00  0.00     0.010 A 
HETATM   12  C   UNL     1     -41.541  59.219 -53.384  1.00  0.00     0.007 A 
HETATM   13  C   UNL     1     -40.451  58.186 -53.299  1.00  0.00     0.007 A 
ENDBRANCH  10  11
ENDBRANCH   9  10
ENDBRANCH   3   9
ENDBRANCH   1   2
BRANCH   1  14
HETATM   14  N   UNL     1     -41.621  54.587 -55.377  1.00  0.00    -0.339 N 
HETATM   15  C   UNL     1     -42.554  54.917 -56.333  1.00  0.00     0.321 C 
HETATM   16  N   UNL     1     -42.215  56.078 -56.989  1.00  0.00    -0.307 N 
HETATM   17  O   UNL     1     -43.542  54.226 -56.550  1.00  0.00    -0.247 OA
HETATM   18  H   UNL     1     -41.435  56.583 -56.602  1.00  0.00     0.170 HD
HETATM   19  H   UNL     1     -41.020  55.314 -55.015  1.00  0.00     0.164 HD
BRANCH  16  20
HETATM   20  C   UNL     1     -42.885  56.659 -58.091  1.00  0.00     0.059 A 
HETATM   21  C   UNL     1     -43.717  57.777 -57.887  1.00  0.00    -0.032 A 
HETATM   22  C   UNL     1     -43.969  58.360 -56.526  1.00  0.00     0.050 C 
HETATM   23  C   UNL     1     -44.348  58.362 -58.994  1.00  0.00     0.028 A 
HETATM   24  C   UNL     1     -44.140  57.824 -60.254  1.00  0.00     0.117 A 
HETATM   25  N   UNL     1     -43.357  56.756 -60.484  1.00  0.00    -0.271 NA
HETATM   26  C   UNL     1     -42.751  56.198 -59.403  1.00  0.00     0.146 A 
ENDBRANCH  16  20
ENDBRANCH   1  14
TORSDOF 6
ENDMDL
MODEL 8
REMARK VINA RESULT:      -7.3      3.663      6.412
REMARK  6 active torsions:
REMARK  status: ('A' for Active; 'I' for Inactive)
REMARK    1  A    between atoms: C_4  and  O_5 
REMARK    2  A    between atoms: O_5  and  C_6 
REMARK    3  A    between atoms: C_6  and  C_7 
REMARK    4  A    between atoms: C_10  and  C_11 
REMARK    5  A    between atoms: C_11  and  N_12 
REMARK       I    between atoms: N_12  and  C_13 
REMARK       I    between atoms: C_13  and  N_14 
REMARK    6  A    between atoms: N_14  and  C_15 
ROOT
HETATM    1  C   UNL     1     -40.504  54.336 -51.019  1.00  0.00     0.165 C 
ENDROOT
BRANCH   1   2
HETATM    2  C   UNL     1     -40.293  53.161 -51.947  1.00  0.00    -0.007 A 
HETATM    3  C   UNL     1     -40.391  53.265 -53.348  1.00  0.00     0.077 A 
HETATM    4  C   UNL     1     -40.106  52.149 -54.149  1.00  0.00     0.044 A 
HETATM    5  C   UNL     1     -39.750  50.921 -53.577  1.00  0.00    -0.059 A 
HETATM    6  C   UNL     1     -39.426  49.735 -54.437  1.00  0.00     0.048 C 
HETATM    7  C   UNL     1     -39.652  50.821 -52.188  1.00  0.00     0.007 A 
HETATM    8  C   UNL     1     -39.916  51.930 -51.384  1.00  0.00     0.012 A 
BRANCH   3   9
HETATM    9  O   UNL     1     -40.757  54.493 -53.843  1.00  0.00    -0.350 OA
BRANCH   9  10
HETATM   10  C   UNL     1     -40.822  54.622 -55.264  1.00  0.00     0.180 C 
BRANCH  10  11
HETATM   11  C   UNL     1     -42.222  55.017 -55.624  1.00  0.00     0.010 A 
HETATM   12  C   UNL     1     -43.323  53.986 -55.632  1.00  0.00     0.007 A 
HETATM   13  C   UNL     1     -43.304  55.055 -54.575  1.00  0.00     0.007 A 
ENDBRANCH  10  11
ENDBRANCH   9  10
ENDBRANCH   3   9
ENDBRANCH   1   2
BRANCH   1  14
HETATM   14  N   UNL     1     -41.316  55.383 -51.597  1.00  0.00    -0.339 N 
HETATM   15  C   UNL     1     -41.577  56.531 -50.886  1.00  0.00     0.321 C 
HETATM   16  N   UNL     1     -42.195  57.479 -51.669  1.00  0.00    -0.307 N 
HETATM   17  O   UNL     1     -41.291  56.648 -49.701  1.00  0.00    -0.247 OA
HETATM   18  H   UNL     1     -42.245  57.265 -52.652  1.00  0.00     0.170 HD
HETATM   19  H   UNL     1     -41.268  55.437 -52.605  1.00  0.00     0.164 HD
BRANCH  16  20
HETATM   20  C   UNL     1     -42.696  58.734 -51.250  1.00  0.00     0.059 A 
HETATM   21  C   UNL     1     -44.085  58.909 -51.096  1.00  0.00    -0.032 A 
HETATM   22  C   UNL     1     -45.077  57.825 -51.409  1.00  0.00     0.050 C 
HETATM   23  C   UNL     1     -44.565  60.149 -50.647  1.00  0.00     0.028 A 
HETATM   24  C   UNL     1     -43.663  61.163 -50.372  1.00  0.00     0.117 A 
HETATM   25  N   UNL     1     -42.333  61.032 -50.512  1.00  0.00    -0.271 NA
HETATM   26  C   UNL     1     -41.881  59.827 -50.947  1.00  0.00     0.146 A 
ENDBRANCH  16  20
ENDBRANCH   1  14
TORSDOF 6
ENDMDL
MODEL 9
REMARK VINA RESULT:      -7.3      2.138      8.862
REMARK  6 active torsions:
REMARK  status: ('A' for Active; 'I' for Inactive)
REMARK    1  A    between atoms: C_4  and  O_5 
REMARK    2  A    between atoms: O_5  and  C_6 
REMARK    3  A    between atoms: C_6  and  C_7 
REMARK    4  A    between atoms: C_10  and  C_11 
REMARK    5  A    between atoms: C_11  and  N_12 
REMARK       I    between atoms: N_12  and  C_13 
REMARK       I    between atoms: C_13  and  N_14 
REMARK    6  A    between atoms: N_14  and  C_15 
ROOT
HETATM    1  C   UNL     1     -43.063  56.016 -57.158  1.00  0.00     0.165 C 
ENDROOT
BRANCH   1   2
HETATM    2  C   UNL     1     -42.738  57.018 -58.243  1.00  0.00    -0.007 A 
HETATM    3  C   UNL     1     -43.048  56.806 -59.600  1.00  0.00     0.077 A 
HETATM    4  C   UNL     1     -42.785  57.814 -60.539  1.00  0.00     0.044 A 
HETATM    5  C   UNL     1     -42.191  59.023 -60.154  1.00  0.00    -0.059 A 
HETATM    6  C   UNL     1     -41.930  60.108 -61.157  1.00  0.00     0.048 C 
HETATM    7  C   UNL     1     -41.886  59.231 -58.808  1.00  0.00     0.007 A 
HETATM    8  C   UNL     1     -42.159  58.242 -57.864  1.00  0.00     0.012 A 
BRANCH   3   9
HETATM    9  O   UNL     1     -43.616  55.594 -59.912  1.00  0.00    -0.350 OA
BRANCH   9  10
HETATM   10  C   UNL     1     -44.720  55.613 -60.818  1.00  0.00     0.180 C 
BRANCH  10  11
HETATM   11  C   UNL     1     -45.958  55.898 -60.024  1.00  0.00     0.010 A 
HETATM   12  C   UNL     1     -46.493  57.305 -59.932  1.00  0.00     0.007 A 
HETATM   13  C   UNL     1     -47.247  56.266 -60.715  1.00  0.00     0.007 A 
ENDBRANCH  10  11
ENDBRANCH   9  10
ENDBRANCH   3   9
ENDBRANCH   1   2
BRANCH   1  14
HETATM   14  N   UNL     1     -41.954  55.762 -56.265  1.00  0.00    -0.339 N 
HETATM   15  C   UNL     1     -41.946  54.637 -55.473  1.00  0.00     0.321 C 
HETATM   16  N   UNL     1     -40.732  54.472 -54.846  1.00  0.00    -0.307 N 
HETATM   17  O   UNL     1     -42.923  53.908 -55.359  1.00  0.00    -0.247 OA
HETATM   18  H   UNL     1     -40.000  55.094 -55.146  1.00  0.00     0.170 HD
HETATM   19  H   UNL     1     -41.072  56.140 -56.580  1.00  0.00     0.164 HD
BRANCH  16  20
HETATM   20  C   UNL     1     -40.398  53.488 -53.886  1.00  0.00     0.059 A 
HETATM   21  C   UNL     1     -40.589  53.760 -52.518  1.00  0.00    -0.032 A 
HETATM   22  C   UNL     1     -41.092  55.084 -52.019  1.00  0.00     0.050 C 
HETATM   23  C   UNL     1     -40.284  52.762 -51.580  1.00  0.00     0.028 A 
HETATM   24  C   UNL     1     -39.802  51.542 -52.024  1.00  0.00     0.117 A 
HETATM   25  N   UNL     1     -39.603  51.250 -53.321  1.00  0.00    -0.271 NA
HETATM   26  C   UNL     1     -39.902  52.225 -54.219  1.00  0.00     0.146 A 
ENDBRANCH  16  20
ENDBRANCH   1  14
TORSDOF 6
ENDMDL
MODEL 10
REMARK VINA RESULT:      -7.2      1.714      2.337
REMARK  6 active torsions:
REMARK  status: ('A' for Active; 'I' for Inactive)
REMARK    1  A    between atoms: C_4  and  O_5 
REMARK    2  A    between atoms: O_5  and  C_6 
REMARK    3  A    between atoms: C_6  and  C_7 
REMARK    4  A    between atoms: C_10  and  C_11 
REMARK    5  A    between atoms: C_11  and  N_12 
REMARK       I    between atoms: N_12  and  C_13 
REMARK       I    between atoms: C_13  and  N_14 
REMARK    6  A    between atoms: N_14  and  C_15 
ROOT
HETATM    1  C   UNL     1     -40.957  55.716 -54.605  1.00  0.00     0.165 C 
ENDROOT
BRANCH   1   2
HETATM    2  C   UNL     1     -40.580  54.396 -53.973  1.00  0.00    -0.007 A 
HETATM    3  C   UNL     1     -40.635  54.166 -52.585  1.00  0.00     0.077 A 
HETATM    4  C   UNL     1     -40.344  52.891 -52.080  1.00  0.00     0.044 A 
HETATM    5  C   UNL     1     -39.969  51.843 -52.932  1.00  0.00    -0.059 A 
HETATM    6  C   UNL     1     -39.679  50.475 -52.390  1.00  0.00     0.048 C 
HETATM    7  C   UNL     1     -39.916  52.073 -54.308  1.00  0.00     0.007 A 
HETATM    8  C   UNL     1     -40.222  53.333 -54.822  1.00  0.00     0.012 A 
BRANCH   3   9
HETATM    9  O   UNL     1     -40.996  55.238 -51.806  1.00  0.00    -0.350 OA
BRANCH   9  10
HETATM   10  C   UNL     1     -42.012  55.012 -50.828  1.00  0.00     0.180 C 
BRANCH  10  11
HETATM   11  C   UNL     1     -43.333  55.333 -51.458  1.00  0.00     0.010 A 
HETATM   12  C   UNL     1     -44.211  56.410 -50.873  1.00  0.00     0.007 A 
HETATM   13  C   UNL     1     -43.537  56.630 -52.198  1.00  0.00     0.007 A 
ENDBRANCH  10  11
ENDBRANCH   9  10
ENDBRANCH   3   9
ENDBRANCH   1   2
BRANCH   1  14
HETATM   14  N   UNL     1     -41.683  55.570 -55.847  1.00  0.00    -0.339 N 
HETATM   15  C   UNL     1     -42.352  56.642 -56.390  1.00  0.00     0.321 C 
HETATM   16  N   UNL     1     -42.812  56.359 -57.656  1.00  0.00    -0.307 N 
HETATM   17  O   UNL     1     -42.507  57.694 -55.783  1.00  0.00    -0.247 OA
HETATM   18  H   UNL     1     -42.491  55.491 -58.051  1.00  0.00     0.170 HD
HETATM   19  H   UNL     1     -41.306  54.868 -56.468  1.00  0.00     0.164 HD
BRANCH  16  20
HETATM   20  C   UNL     1     -43.622  57.185 -58.470  1.00  0.00     0.059 A 
HETATM   21  C   UNL     1     -43.096  57.709 -59.667  1.00  0.00    -0.032 A 
HETATM   22  C   UNL     1     -41.678  57.469 -60.102  1.00  0.00     0.050 C 
HETATM   23  C   UNL     1     -43.922  58.499 -60.481  1.00  0.00     0.028 A 
HETATM   24  C   UNL     1     -45.227  58.744 -60.084  1.00  0.00     0.117 A 
HETATM   25  N   UNL     1     -45.759  58.264 -58.948  1.00  0.00    -0.271 NA
HETATM   26  C   UNL     1     -44.949  57.500 -58.168  1.00  0.00     0.146 A 
ENDBRANCH  16  20
ENDBRANCH   1  14
TORSDOF 6
ENDMDL
