MODEL 1
REMARK VINA RESULT:      -8.9      0.000      0.000
REMARK  10 active torsions:
REMARK  status: ('A' for Active; 'I' for Inactive)
REMARK    1  A    between atoms: S_2  and  C_3 
REMARK    2  A    between atoms: C_5  and  N_6 
REMARK    3  A    between atoms: N_6  and  C_7 
REMARK    4  A    between atoms: C_11  and  C_12 
REMARK       I    between atoms: C_12  and  N_13 
REMARK    5  A    between atoms: N_13  and  C_14 
REMARK    6  A    between atoms: C_14  and  C_15 
REMARK    7  A    between atoms: C_15  and  C_16 
REMARK    8  A    between atoms: C_16  and  N_17 
REMARK    9  A    between atoms: C_21  and  C_22 
REMARK   10  A    between atoms: C_22  and  C_23 
ROOT
HETATM    1  C   UNL     1     -42.944  59.939 -55.507  1.00  0.00     0.252 C 
HETATM    2  N   UNL     1     -43.762  59.481 -56.519  1.00  0.00    -0.357 N 
HETATM    3  O   UNL     1     -41.734  60.068 -55.655  1.00  0.00    -0.268 OA
HETATM    4  H   UNL     1     -44.695  59.219 -56.221  1.00  0.00     0.162 HD
ENDROOT
BRANCH   1   5
HETATM    5  C   UNL     1     -43.517  60.092 -54.132  1.00  0.00     0.048 A 
HETATM    6  C   UNL     1     -44.741  60.708 -53.791  1.00  0.00     0.009 A 
HETATM    7  C   UNL     1     -45.202  60.459 -52.480  1.00  0.00     0.070 A 
HETATM    8  C   UNL     1     -45.516  61.555 -54.628  1.00  0.00     0.015 A 
HETATM    9  N   UNL     1     -44.520  59.732 -51.579  1.00  0.00    -0.231 NA
HETATM   10  C   UNL     1     -46.427  60.974 -52.087  1.00  0.00     0.032 A 
HETATM   11  C   UNL     1     -43.323  59.214 -51.889  1.00  0.00     0.129 A 
HETATM   12  C   UNL     1     -42.783  59.422 -53.145  1.00  0.00     0.068 A 
HETATM   13  C   UNL     1     -47.209  61.759 -52.935  1.00  0.00     0.002 A 
HETATM   14  C   UNL     1     -46.744  62.063 -54.206  1.00  0.00     0.001 A 
BRANCH  11  15
HETATM   15  N   UNL     1     -42.530  58.503 -50.955  1.00  0.00    -0.341 N 
HETATM   16  H   UNL     1     -41.576  58.859 -50.985  1.00  0.00     0.167 HD
BRANCH  15  17
HETATM   17  C   UNL     1     -42.429  57.104 -50.754  1.00  0.00     0.034 A 
HETATM   18  C   UNL     1     -41.271  56.463 -50.304  1.00  0.00     0.048 A 
HETATM   19  C   UNL     1     -41.267  55.087 -50.042  1.00  0.00     0.002 A 
HETATM   20  C   UNL     1     -42.440  54.347 -50.209  1.00  0.00     0.018 A 
HETATM   21  C   UNL     1     -43.604  54.972 -50.651  1.00  0.00     0.004 A 
HETATM   22  C   UNL     1     -43.597  56.341 -50.915  1.00  0.00     0.029 A 
BRANCH  19  23
HETATM   23  S   UNL     1     -39.775  54.318 -49.438  1.00  0.00    -0.134 SA
HETATM   24  C   UNL     1     -40.402  53.648 -47.876  1.00  0.00     0.095 C 
ENDBRANCH  19  23
ENDBRANCH  15  17
ENDBRANCH  11  15
ENDBRANCH   1   5
BRANCH   2  25
HETATM   25  C   UNL     1     -43.308  58.707 -57.665  1.00  0.00     0.124 C 
BRANCH  25  26
HETATM   26  C   UNL     1     -43.800  57.272 -57.920  1.00  0.00     0.047 C 
BRANCH  26  27
HETATM   27  C   UNL     1     -43.050  56.018 -57.452  1.00  0.00     0.236 C 
BRANCH  27  28
HETATM   28  N   UNL     1     -42.794  55.822 -55.952  1.00  0.00    -0.071 N 
HETATM   29  H   UNL     1     -43.483  56.405 -55.461  1.00  0.00     0.279 HD
HETATM   30  C   UNL     1     -43.127  54.376 -55.595  1.00  0.00     0.235 C 
HETATM   31  C   UNL     1     -42.844  54.066 -54.127  1.00  0.00     0.032 C 
HETATM   32  C   UNL     1     -41.418  54.444 -53.695  1.00  0.00    -0.007 C 
HETATM   33  C   UNL     1     -41.249  55.936 -53.982  1.00  0.00     0.032 C 
HETATM   34  C   UNL     1     -41.450  56.261 -55.453  1.00  0.00     0.235 C 
BRANCH  32  35
HETATM   35  C   UNL     1     -40.367  53.533 -54.378  1.00  0.00     0.043 C 
BRANCH  35  36
HETATM   36  C   UNL     1     -40.127  52.195 -53.722  1.00  0.00    -0.058 A 
HETATM   37  C   UNL     1     -40.165  51.016 -54.475  1.00  0.00     0.007 A 
HETATM   38  C   UNL     1     -39.882  49.786 -53.875  1.00  0.00     0.001 A 
HETATM   39  C   UNL     1     -39.565  49.719 -52.519  1.00  0.00     0.000 A 
HETATM   40  C   UNL     1     -39.538  50.882 -51.757  1.00  0.00     0.001 A 
HETATM   41  C   UNL     1     -39.824  52.109 -52.354  1.00  0.00     0.007 A 
ENDBRANCH  35  36
ENDBRANCH  32  35
ENDBRANCH  27  28
ENDBRANCH  26  27
ENDBRANCH  25  26
ENDBRANCH   2  25
TORSDOF 10
ENDMDL
MODEL 2
REMARK VINA RESULT:      -8.1      3.820      7.772
REMARK  10 active torsions:
REMARK  status: ('A' for Active; 'I' for Inactive)
REMARK    1  A    between atoms: S_2  and  C_3 
REMARK    2  A    between atoms: C_5  and  N_6 
REMARK    3  A    between atoms: N_6  and  C_7 
REMARK    4  A    between atoms: C_11  and  C_12 
REMARK       I    between atoms: C_12  and  N_13 
REMARK    5  A    between atoms: N_13  and  C_14 
REMARK    6  A    between atoms: C_14  and  C_15 
REMARK    7  A    between atoms: C_15  and  C_16 
REMARK    8  A    between atoms: C_16  and  N_17 
REMARK    9  A    between atoms: C_21  and  C_22 
REMARK   10  A    between atoms: C_22  and  C_23 
ROOT
HETATM    1  C   UNL     1     -42.893  56.484 -55.978  1.00  0.00     0.252 C 
HETATM    2  N   UNL     1     -43.995  56.238 -55.185  1.00  0.00    -0.357 N 
HETATM    3  O   UNL     1     -41.748  56.393 -55.548  1.00  0.00    -0.268 OA
HETATM    4  H   UNL     1     -44.877  56.544 -55.582  1.00  0.00     0.162 HD
ENDROOT
BRANCH   1   5
HETATM    5  C   UNL     1     -43.102  57.068 -57.340  1.00  0.00     0.048 A 
HETATM    6  C   UNL     1     -43.644  56.413 -58.466  1.00  0.00     0.009 A 
HETATM    7  C   UNL     1     -44.020  57.253 -59.537  1.00  0.00     0.070 A 
HETATM    8  C   UNL     1     -43.818  55.011 -58.619  1.00  0.00     0.015 A 
HETATM    9  N   UNL     1     -43.838  58.585 -59.534  1.00  0.00    -0.231 NA
HETATM   10  C   UNL     1     -44.619  56.695 -60.655  1.00  0.00     0.032 A 
HETATM   11  C   UNL     1     -43.254  59.189 -58.490  1.00  0.00     0.129 A 
HETATM   12  C   UNL     1     -42.836  58.443 -57.404  1.00  0.00     0.068 A 
HETATM   13  C   UNL     1     -44.837  55.322 -60.772  1.00  0.00     0.002 A 
HETATM   14  C   UNL     1     -44.421  54.474 -59.756  1.00  0.00     0.001 A 
BRANCH  11  15
HETATM   15  N   UNL     1     -42.973  60.577 -58.466  1.00  0.00    -0.341 N 
HETATM   16  H   UNL     1     -43.830  61.095 -58.651  1.00  0.00     0.167 HD
BRANCH  15  17
HETATM   17  C   UNL     1     -41.930  61.287 -59.110  1.00  0.00     0.034 A 
HETATM   18  C   UNL     1     -41.939  61.626 -60.466  1.00  0.00     0.048 A 
HETATM   19  C   UNL     1     -40.916  62.406 -61.019  1.00  0.00     0.002 A 
HETATM   20  C   UNL     1     -39.883  62.873 -60.202  1.00  0.00     0.018 A 
HETATM   21  C   UNL     1     -39.863  62.549 -58.848  1.00  0.00     0.004 A 
HETATM   22  C   UNL     1     -40.882  61.767 -58.308  1.00  0.00     0.029 A 
BRANCH  19  23
HETATM   23  S   UNL     1     -40.987  62.840 -62.748  1.00  0.00    -0.134 SA
HETATM   24  C   UNL     1     -39.243  63.249 -63.019  1.00  0.00     0.095 C 
ENDBRANCH  19  23
ENDBRANCH  15  17
ENDBRANCH  11  15
ENDBRANCH   1   5
BRANCH   2  25
HETATM   25  C   UNL     1     -43.997  56.285 -53.730  1.00  0.00     0.124 C 
BRANCH  25  26
HETATM   26  C   UNL     1     -44.611  57.465 -52.958  1.00  0.00     0.047 C 
BRANCH  26  27
HETATM   27  C   UNL     1     -44.322  57.759 -51.480  1.00  0.00     0.236 C 
BRANCH  27  28
HETATM   28  N   UNL     1     -43.273  56.914 -50.745  1.00  0.00    -0.071 N 
HETATM   29  H   UNL     1     -43.405  57.097 -49.742  1.00  0.00     0.279 HD
HETATM   30  C   UNL     1     -43.611  55.441 -50.958  1.00  0.00     0.235 C 
HETATM   31  C   UNL     1     -42.583  54.516 -50.312  1.00  0.00     0.032 C 
HETATM   32  C   UNL     1     -41.138  54.835 -50.729  1.00  0.00    -0.007 C 
HETATM   33  C   UNL     1     -40.878  56.293 -50.348  1.00  0.00     0.032 C 
HETATM   34  C   UNL     1     -41.840  57.243 -51.041  1.00  0.00     0.235 C 
BRANCH  32  35
HETATM   35  C   UNL     1     -40.903  54.507 -52.224  1.00  0.00     0.043 C 
BRANCH  35  36
HETATM   36  C   UNL     1     -40.489  53.088 -52.532  1.00  0.00    -0.058 A 
HETATM   37  C   UNL     1     -40.653  52.562 -53.818  1.00  0.00     0.007 A 
HETATM   38  C   UNL     1     -40.213  51.268 -54.113  1.00  0.00     0.001 A 
HETATM   39  C   UNL     1     -39.610  50.487 -53.129  1.00  0.00     0.000 A 
HETATM   40  C   UNL     1     -39.454  50.994 -51.843  1.00  0.00     0.001 A 
HETATM   41  C   UNL     1     -39.897  52.282 -51.547  1.00  0.00     0.007 A 
ENDBRANCH  35  36
ENDBRANCH  32  35
ENDBRANCH  27  28
ENDBRANCH  26  27
ENDBRANCH  25  26
ENDBRANCH   2  25
TORSDOF 10
ENDMDL
MODEL 3
REMARK VINA RESULT:      -8.0      3.441      6.697
REMARK  10 active torsions:
REMARK  status: ('A' for Active; 'I' for Inactive)
REMARK    1  A    between atoms: S_2  and  C_3 
REMARK    2  A    between atoms: C_5  and  N_6 
REMARK    3  A    between atoms: N_6  and  C_7 
REMARK    4  A    between atoms: C_11  and  C_12 
REMARK       I    between atoms: C_12  and  N_13 
REMARK    5  A    between atoms: N_13  and  C_14 
REMARK    6  A    between atoms: C_14  and  C_15 
REMARK    7  A    between atoms: C_15  and  C_16 
REMARK    8  A    between atoms: C_16  and  N_17 
REMARK    9  A    between atoms: C_21  and  C_22 
REMARK   10  A    between atoms: C_22  and  C_23 
ROOT
HETATM    1  C   UNL     1     -43.111  61.020 -55.380  1.00  0.00     0.252 C 
HETATM    2  N   UNL     1     -42.156  60.818 -54.405  1.00  0.00    -0.357 N 
HETATM    3  O   UNL     1     -44.281  61.261 -55.106  1.00  0.00    -0.268 OA
HETATM    4  H   UNL     1     -41.285  60.425 -54.743  1.00  0.00     0.162 HD
ENDROOT
BRANCH   1   5
HETATM    5  C   UNL     1     -42.753  60.741 -56.807  1.00  0.00     0.048 A 
HETATM    6  C   UNL     1     -42.163  61.640 -57.721  1.00  0.00     0.009 A 
HETATM    7  C   UNL     1     -41.646  61.058 -58.899  1.00  0.00     0.070 A 
HETATM    8  C   UNL     1     -42.068  63.050 -57.569  1.00  0.00     0.015 A 
HETATM    9  N   UNL     1     -41.742  59.748 -59.183  1.00  0.00    -0.231 NA
HETATM   10  C   UNL     1     -40.994  61.863 -59.819  1.00  0.00     0.032 A 
HETATM   11  C   UNL     1     -42.370  58.914 -58.342  1.00  0.00     0.129 A 
HETATM   12  C   UNL     1     -42.924  59.399 -57.172  1.00  0.00     0.068 A 
HETATM   13  C   UNL     1     -40.856  63.239 -59.635  1.00  0.00     0.002 A 
HETATM   14  C   UNL     1     -41.409  63.837 -58.513  1.00  0.00     0.001 A 
BRANCH  11  15
HETATM   15  N   UNL     1     -42.561  57.539 -58.626  1.00  0.00    -0.341 N 
HETATM   16  H   UNL     1     -41.748  57.184 -59.127  1.00  0.00     0.167 HD
BRANCH  15  17
HETATM   17  C   UNL     1     -43.690  56.894 -59.189  1.00  0.00     0.034 A 
HETATM   18  C   UNL     1     -44.846  57.563 -59.601  1.00  0.00     0.048 A 
HETATM   19  C   UNL     1     -45.890  56.874 -60.231  1.00  0.00     0.002 A 
HETATM   20  C   UNL     1     -45.768  55.503 -60.473  1.00  0.00     0.018 A 
HETATM   21  C   UNL     1     -44.620  54.823 -60.073  1.00  0.00     0.004 A 
HETATM   22  C   UNL     1     -43.589  55.516 -59.441  1.00  0.00     0.029 A 
BRANCH  19  23
HETATM   23  S   UNL     1     -47.332  57.777 -60.769  1.00  0.00    -0.134 SA
HETATM   24  C   UNL     1     -48.007  56.575 -61.944  1.00  0.00     0.095 C 
ENDBRANCH  19  23
ENDBRANCH  15  17
ENDBRANCH  11  15
ENDBRANCH   1   5
BRANCH   2  25
HETATM   25  C   UNL     1     -42.443  60.431 -53.031  1.00  0.00     0.124 C 
BRANCH  25  26
HETATM   26  C   UNL     1     -43.056  59.063 -52.686  1.00  0.00     0.047 C 
BRANCH  26  27
HETATM   27  C   UNL     1     -42.236  57.775 -52.535  1.00  0.00     0.236 C 
BRANCH  27  28
HETATM   28  N   UNL     1     -42.670  56.522 -53.307  1.00  0.00    -0.071 N 
HETATM   29  H   UNL     1     -43.658  56.661 -53.553  1.00  0.00     0.279 HD
HETATM   30  C   UNL     1     -41.903  56.482 -54.625  1.00  0.00     0.235 C 
HETATM   31  C   UNL     1     -42.224  55.231 -55.440  1.00  0.00     0.032 C 
HETATM   32  C   UNL     1     -42.050  53.930 -54.640  1.00  0.00    -0.007 C 
HETATM   33  C   UNL     1     -42.961  54.036 -53.418  1.00  0.00     0.032 C 
HETATM   34  C   UNL     1     -42.611  55.231 -52.547  1.00  0.00     0.235 C 
BRANCH  32  35
HETATM   35  C   UNL     1     -40.558  53.671 -54.313  1.00  0.00     0.043 C 
BRANCH  35  36
HETATM   36  C   UNL     1     -40.241  52.332 -53.692  1.00  0.00    -0.058 A 
HETATM   37  C   UNL     1     -40.254  51.167 -54.468  1.00  0.00     0.007 A 
HETATM   38  C   UNL     1     -39.900  49.938 -53.902  1.00  0.00     0.001 A 
HETATM   39  C   UNL     1     -39.537  49.859 -52.559  1.00  0.00     0.000 A 
HETATM   40  C   UNL     1     -39.534  51.007 -51.774  1.00  0.00     0.001 A 
HETATM   41  C   UNL     1     -39.890  52.232 -52.337  1.00  0.00     0.007 A 
ENDBRANCH  35  36
ENDBRANCH  32  35
ENDBRANCH  27  28
ENDBRANCH  26  27
ENDBRANCH  25  26
ENDBRANCH   2  25
TORSDOF 10
ENDMDL
MODEL 4
REMARK VINA RESULT:      -8.0      3.967      7.965
REMARK  10 active torsions:
REMARK  status: ('A' for Active; 'I' for Inactive)
REMARK    1  A    between atoms: S_2  and  C_3 
REMARK    2  A    between atoms: C_5  and  N_6 
REMARK    3  A    between atoms: N_6  and  C_7 
REMARK    4  A    between atoms: C_11  and  C_12 
REMARK       I    between atoms: C_12  and  N_13 
REMARK    5  A    between atoms: N_13  and  C_14 
REMARK    6  A    between atoms: C_14  and  C_15 
REMARK    7  A    between atoms: C_15  and  C_16 
REMARK    8  A    between atoms: C_16  and  N_17 
REMARK    9  A    between atoms: C_21  and  C_22 
REMARK   10  A    between atoms: C_22  and  C_23 
ROOT
HETATM    1  C   UNL     1     -42.016  59.305 -54.603  1.00  0.00     0.252 C 
HETATM    2  N   UNL     1     -43.218  59.353 -53.929  1.00  0.00    -0.357 N 
HETATM    3  O   UNL     1     -40.946  59.514 -54.042  1.00  0.00    -0.268 OA
HETATM    4  H   UNL     1     -44.037  59.372 -54.527  1.00  0.00     0.162 HD
ENDROOT
BRANCH   1   5
HETATM    5  C   UNL     1     -42.032  59.190 -56.096  1.00  0.00     0.048 A 
HETATM    6  C   UNL     1     -42.363  58.045 -56.851  1.00  0.00     0.009 A 
HETATM    7  C   UNL     1     -42.599  58.270 -58.225  1.00  0.00     0.070 A 
HETATM    8  C   UNL     1     -42.452  56.713 -56.363  1.00  0.00     0.015 A 
HETATM    9  N   UNL     1     -42.475  59.472 -58.812  1.00  0.00    -0.231 NA
HETATM   10  C   UNL     1     -42.991  57.208 -59.025  1.00  0.00     0.032 A 
HETATM   11  C   UNL     1     -42.088  60.540 -58.100  1.00  0.00     0.129 A 
HETATM   12  C   UNL     1     -41.816  60.410 -56.750  1.00  0.00     0.068 A 
HETATM   13  C   UNL     1     -43.132  55.914 -58.523  1.00  0.00     0.002 A 
HETATM   14  C   UNL     1     -42.846  55.662 -57.190  1.00  0.00     0.001 A 
BRANCH  11  15
HETATM   15  N   UNL     1     -41.872  61.813 -58.683  1.00  0.00    -0.341 N 
HETATM   16  H   UNL     1     -42.661  62.420 -58.463  1.00  0.00     0.167 HD
BRANCH  15  17
HETATM   17  C   UNL     1     -41.478  62.133 -60.005  1.00  0.00     0.034 A 
HETATM   18  C   UNL     1     -42.349  62.139 -61.098  1.00  0.00     0.048 A 
HETATM   19  C   UNL     1     -41.911  62.551 -62.363  1.00  0.00     0.002 A 
HETATM   20  C   UNL     1     -40.594  62.985 -62.533  1.00  0.00     0.018 A 
HETATM   21  C   UNL     1     -39.715  62.990 -61.452  1.00  0.00     0.004 A 
HETATM   22  C   UNL     1     -40.158  62.572 -60.198  1.00  0.00     0.029 A 
BRANCH  19  23
HETATM   23  S   UNL     1     -43.068  62.573 -63.722  1.00  0.00    -0.134 SA
HETATM   24  C   UNL     1     -44.021  61.086 -63.318  1.00  0.00     0.095 C 
ENDBRANCH  19  23
ENDBRANCH  15  17
ENDBRANCH  11  15
ENDBRANCH   1   5
BRANCH   2  25
HETATM   25  C   UNL     1     -43.436  60.053 -52.671  1.00  0.00     0.124 C 
BRANCH  25  26
HETATM   26  C   UNL     1     -43.252  59.355 -51.313  1.00  0.00     0.047 C 
BRANCH  26  27
HETATM   27  C   UNL     1     -42.078  58.422 -50.986  1.00  0.00     0.236 C 
BRANCH  27  28
HETATM   28  N   UNL     1     -42.365  56.948 -50.674  1.00  0.00    -0.071 N 
HETATM   29  H   UNL     1     -43.148  56.939 -50.008  1.00  0.00     0.279 HD
HETATM   30  C   UNL     1     -42.880  56.280 -51.946  1.00  0.00     0.235 C 
HETATM   31  C   UNL     1     -43.136  54.788 -51.750  1.00  0.00     0.032 C 
HETATM   32  C   UNL     1     -41.927  54.040 -51.165  1.00  0.00    -0.007 C 
HETATM   33  C   UNL     1     -41.588  54.717 -49.837  1.00  0.00     0.032 C 
HETATM   34  C   UNL     1     -41.252  56.188 -50.015  1.00  0.00     0.235 C 
BRANCH  32  35
HETATM   35  C   UNL     1     -40.758  53.989 -52.180  1.00  0.00     0.043 C 
BRANCH  35  36
HETATM   36  C   UNL     1     -40.344  52.612 -52.640  1.00  0.00    -0.058 A 
HETATM   37  C   UNL     1     -39.766  51.706 -51.743  1.00  0.00     0.007 A 
HETATM   38  C   UNL     1     -39.441  50.411 -52.159  1.00  0.00     0.001 A 
HETATM   39  C   UNL     1     -39.683  50.011 -53.472  1.00  0.00     0.000 A 
HETATM   40  C   UNL     1     -40.243  50.907 -54.376  1.00  0.00     0.001 A 
HETATM   41  C   UNL     1     -40.565  52.199 -53.963  1.00  0.00     0.007 A 
ENDBRANCH  35  36
ENDBRANCH  32  35
ENDBRANCH  27  28
ENDBRANCH  26  27
ENDBRANCH  25  26
ENDBRANCH   2  25
TORSDOF 10
ENDMDL
MODEL 5
REMARK VINA RESULT:      -7.9      3.391      7.528
REMARK  10 active torsions:
REMARK  status: ('A' for Active; 'I' for Inactive)
REMARK    1  A    between atoms: S_2  and  C_3 
REMARK    2  A    between atoms: C_5  and  N_6 
REMARK    3  A    between atoms: N_6  and  C_7 
REMARK    4  A    between atoms: C_11  and  C_12 
REMARK       I    between atoms: C_12  and  N_13 
REMARK    5  A    between atoms: N_13  and  C_14 
REMARK    6  A    between atoms: C_14  and  C_15 
REMARK    7  A    between atoms: C_15  and  C_16 
REMARK    8  A    between atoms: C_16  and  N_17 
REMARK    9  A    between atoms: C_21  and  C_22 
REMARK   10  A    between atoms: C_22  and  C_23 
ROOT
HETATM    1  C   UNL     1     -42.806  59.665 -55.523  1.00  0.00     0.252 C 
HETATM    2  N   UNL     1     -41.856  59.834 -54.538  1.00  0.00    -0.357 N 
HETATM    3  O   UNL     1     -43.874  60.267 -55.509  1.00  0.00    -0.268 OA
HETATM    4  H   UNL     1     -41.117  59.140 -54.540  1.00  0.00     0.162 HD
ENDROOT
BRANCH   1   5
HETATM    5  C   UNL     1     -42.613  58.572 -56.528  1.00  0.00     0.048 A 
HETATM    6  C   UNL     1     -42.783  57.187 -56.312  1.00  0.00     0.009 A 
HETATM    7  C   UNL     1     -42.842  56.393 -57.478  1.00  0.00     0.070 A 
HETATM    8  C   UNL     1     -42.874  56.538 -55.052  1.00  0.00     0.015 A 
HETATM    9  N   UNL     1     -42.697  56.886 -58.720  1.00  0.00    -0.231 NA
HETATM   10  C   UNL     1     -43.070  55.031 -57.357  1.00  0.00     0.032 A 
HETATM   11  C   UNL     1     -42.461  58.192 -58.910  1.00  0.00     0.129 A 
HETATM   12  C   UNL     1     -42.369  59.043 -57.825  1.00  0.00     0.068 A 
HETATM   13  C   UNL     1     -43.216  54.411 -56.115  1.00  0.00     0.002 A 
HETATM   14  C   UNL     1     -43.101  55.165 -54.957  1.00  0.00     0.001 A 
BRANCH  11  15
HETATM   15  N   UNL     1     -42.229  58.751 -60.191  1.00  0.00    -0.341 N 
HETATM   16  H   UNL     1     -41.318  58.447 -60.529  1.00  0.00     0.167 HD
BRANCH  15  17
HETATM   17  C   UNL     1     -42.388  60.091 -60.621  1.00  0.00     0.034 A 
HETATM   18  C   UNL     1     -41.473  61.111 -60.348  1.00  0.00     0.048 A 
HETATM   19  C   UNL     1     -41.648  62.395 -60.879  1.00  0.00     0.002 A 
HETATM   20  C   UNL     1     -42.738  62.657 -61.713  1.00  0.00     0.018 A 
HETATM   21  C   UNL     1     -43.656  61.649 -62.000  1.00  0.00     0.004 A 
HETATM   22  C   UNL     1     -43.477  60.376 -61.461  1.00  0.00     0.029 A 
BRANCH  19  23
HETATM   23  S   UNL     1     -40.436  63.657 -60.529  1.00  0.00    -0.134 SA
HETATM   24  C   UNL     1     -40.714  63.842 -58.748  1.00  0.00     0.095 C 
ENDBRANCH  19  23
ENDBRANCH  15  17
ENDBRANCH  11  15
ENDBRANCH   1   5
BRANCH   2  25
HETATM   25  C   UNL     1     -42.129  60.347 -53.202  1.00  0.00     0.124 C 
BRANCH  25  26
HETATM   26  C   UNL     1     -41.943  59.479 -51.947  1.00  0.00     0.047 C 
BRANCH  26  27
HETATM   27  C   UNL     1     -43.059  58.628 -51.326  1.00  0.00     0.236 C 
BRANCH  27  28
HETATM   28  N   UNL     1     -42.697  57.290 -50.668  1.00  0.00    -0.071 N 
HETATM   29  H   UNL     1     -43.080  57.322 -49.715  1.00  0.00     0.279 HD
HETATM   30  C   UNL     1     -43.450  56.180 -51.394  1.00  0.00     0.235 C 
HETATM   31  C   UNL     1     -43.104  54.797 -50.847  1.00  0.00     0.032 C 
HETATM   32  C   UNL     1     -41.592  54.525 -50.806  1.00  0.00    -0.007 C 
HETATM   33  C   UNL     1     -40.967  55.626 -49.948  1.00  0.00     0.032 C 
HETATM   34  C   UNL     1     -41.231  57.010 -50.515  1.00  0.00     0.235 C 
BRANCH  32  35
HETATM   35  C   UNL     1     -41.006  54.411 -52.236  1.00  0.00     0.043 C 
BRANCH  35  36
HETATM   36  C   UNL     1     -40.498  53.047 -52.634  1.00  0.00    -0.058 A 
HETATM   37  C   UNL     1     -39.879  52.216 -51.693  1.00  0.00     0.007 A 
HETATM   38  C   UNL     1     -39.464  50.930 -52.051  1.00  0.00     0.001 A 
HETATM   39  C   UNL     1     -39.658  50.463 -53.350  1.00  0.00     0.000 A 
HETATM   40  C   UNL     1     -40.259  51.284 -54.298  1.00  0.00     0.001 A 
HETATM   41  C   UNL     1     -40.669  52.569 -53.942  1.00  0.00     0.007 A 
ENDBRANCH  35  36
ENDBRANCH  32  35
ENDBRANCH  27  28
ENDBRANCH  26  27
ENDBRANCH  25  26
ENDBRANCH   2  25
TORSDOF 10
ENDMDL
MODEL 6
REMARK VINA RESULT:      -7.9      4.373      8.146
REMARK  10 active torsions:
REMARK  status: ('A' for Active; 'I' for Inactive)
REMARK    1  A    between atoms: S_2  and  C_3 
REMARK    2  A    between atoms: C_5  and  N_6 
REMARK    3  A    between atoms: N_6  and  C_7 
REMARK    4  A    between atoms: C_11  and  C_12 
REMARK       I    between atoms: C_12  and  N_13 
REMARK    5  A    between atoms: N_13  and  C_14 
REMARK    6  A    between atoms: C_14  and  C_15 
REMARK    7  A    between atoms: C_15  and  C_16 
REMARK    8  A    between atoms: C_16  and  N_17 
REMARK    9  A    between atoms: C_21  and  C_22 
REMARK   10  A    between atoms: C_22  and  C_23 
ROOT
HETATM    1  C   UNL     1     -42.152  59.626 -55.215  1.00  0.00     0.252 C 
HETATM    2  N   UNL     1     -43.131  60.384 -54.606  1.00  0.00    -0.357 N 
HETATM    3  O   UNL     1     -41.209  59.155 -54.588  1.00  0.00    -0.268 OA
HETATM    4  H   UNL     1     -43.735  60.888 -55.247  1.00  0.00     0.162 HD
ENDROOT
BRANCH   1   5
HETATM    5  C   UNL     1     -42.131  59.543 -56.709  1.00  0.00     0.048 A 
HETATM    6  C   UNL     1     -42.448  58.415 -57.497  1.00  0.00     0.009 A 
HETATM    7  C   UNL     1     -42.650  58.671 -58.871  1.00  0.00     0.070 A 
HETATM    8  C   UNL     1     -42.555  57.075 -57.039  1.00  0.00     0.015 A 
HETATM    9  N   UNL     1     -42.506  59.884 -59.429  1.00  0.00    -0.231 NA
HETATM   10  C   UNL     1     -43.026  57.628 -59.702  1.00  0.00     0.032 A 
HETATM   11  C   UNL     1     -42.132  60.935 -58.685  1.00  0.00     0.129 A 
HETATM   12  C   UNL     1     -41.894  60.776 -57.332  1.00  0.00     0.068 A 
HETATM   13  C   UNL     1     -43.184  56.324 -59.232  1.00  0.00     0.002 A 
HETATM   14  C   UNL     1     -42.933  56.043 -57.898  1.00  0.00     0.001 A 
BRANCH  11  15
HETATM   15  N   UNL     1     -41.897  62.219 -59.235  1.00  0.00    -0.341 N 
HETATM   16  H   UNL     1     -42.724  62.521 -59.747  1.00  0.00     0.167 HD
BRANCH  15  17
HETATM   17  C   UNL     1     -40.780  62.681 -59.973  1.00  0.00     0.034 A 
HETATM   18  C   UNL     1     -40.693  62.635 -61.367  1.00  0.00     0.048 A 
HETATM   19  C   UNL     1     -39.596  63.191 -62.038  1.00  0.00     0.002 A 
HETATM   20  C   UNL     1     -38.585  63.822 -61.309  1.00  0.00     0.018 A 
HETATM   21  C   UNL     1     -38.660  63.881 -59.919  1.00  0.00     0.004 A 
HETATM   22  C   UNL     1     -39.752  63.319 -59.260  1.00  0.00     0.029 A 
BRANCH  19  23
HETATM   23  S   UNL     1     -39.545  63.137 -63.821  1.00  0.00    -0.134 SA
HETATM   24  C   UNL     1     -37.893  63.831 -64.087  1.00  0.00     0.095 C 
ENDBRANCH  19  23
ENDBRANCH  15  17
ENDBRANCH  11  15
ENDBRANCH   1   5
BRANCH   2  25
HETATM   25  C   UNL     1     -42.974  61.076 -53.334  1.00  0.00     0.124 C 
BRANCH  25  26
HETATM   26  C   UNL     1     -42.945  60.317 -51.997  1.00  0.00     0.047 C 
BRANCH  26  27
HETATM   27  C   UNL     1     -43.761  59.047 -51.720  1.00  0.00     0.236 C 
BRANCH  27  28
HETATM   28  N   UNL     1     -43.097  57.886 -50.968  1.00  0.00    -0.071 N 
HETATM   29  H   UNL     1     -43.258  58.058 -49.968  1.00  0.00     0.279 HD
HETATM   30  C   UNL     1     -43.851  56.603 -51.307  1.00  0.00     0.235 C 
HETATM   31  C   UNL     1     -43.224  55.376 -50.650  1.00  0.00     0.032 C 
HETATM   32  C   UNL     1     -41.719  55.243 -50.935  1.00  0.00    -0.007 C 
HETATM   33  C   UNL     1     -41.058  56.528 -50.438  1.00  0.00     0.032 C 
HETATM   34  C   UNL     1     -41.612  57.760 -51.133  1.00  0.00     0.235 C 
BRANCH  32  35
HETATM   35  C   UNL     1     -41.460  54.921 -52.428  1.00  0.00     0.043 C 
BRANCH  35  36
HETATM   36  C   UNL     1     -40.817  53.585 -52.713  1.00  0.00    -0.058 A 
HETATM   37  C   UNL     1     -40.872  53.028 -53.996  1.00  0.00     0.007 A 
HETATM   38  C   UNL     1     -40.223  51.820 -54.270  1.00  0.00     0.001 A 
HETATM   39  C   UNL     1     -39.519  51.155 -53.267  1.00  0.00     0.000 A 
HETATM   40  C   UNL     1     -39.470  51.691 -51.985  1.00  0.00     0.001 A 
HETATM   41  C   UNL     1     -40.120  52.893 -51.711  1.00  0.00     0.007 A 
ENDBRANCH  35  36
ENDBRANCH  32  35
ENDBRANCH  27  28
ENDBRANCH  26  27
ENDBRANCH  25  26
ENDBRANCH   2  25
TORSDOF 10
ENDMDL
MODEL 7
REMARK VINA RESULT:      -7.8      2.896      8.198
REMARK  10 active torsions:
REMARK  status: ('A' for Active; 'I' for Inactive)
REMARK    1  A    between atoms: S_2  and  C_3 
REMARK    2  A    between atoms: C_5  and  N_6 
REMARK    3  A    between atoms: N_6  and  C_7 
REMARK    4  A    between atoms: C_11  and  C_12 
REMARK       I    between atoms: C_12  and  N_13 
REMARK    5  A    between atoms: N_13  and  C_14 
REMARK    6  A    between atoms: C_14  and  C_15 
REMARK    7  A    between atoms: C_15  and  C_16 
REMARK    8  A    between atoms: C_16  and  N_17 
REMARK    9  A    between atoms: C_21  and  C_22 
REMARK   10  A    between atoms: C_22  and  C_23 
ROOT
HETATM    1  C   UNL     1     -42.701  54.342 -55.510  1.00  0.00     0.252 C 
HETATM    2  N   UNL     1     -42.173  55.379 -56.252  1.00  0.00    -0.357 N 
HETATM    3  O   UNL     1     -43.639  53.664 -55.915  1.00  0.00    -0.268 OA
HETATM    4  H   UNL     1     -41.551  55.992 -55.736  1.00  0.00     0.162 HD
ENDROOT
BRANCH   1   5
HETATM    5  C   UNL     1     -42.249  54.167 -54.094  1.00  0.00     0.048 A 
HETATM    6  C   UNL     1     -41.308  53.229 -53.617  1.00  0.00     0.009 A 
HETATM    7  C   UNL     1     -40.826  53.461 -52.310  1.00  0.00     0.070 A 
HETATM    8  C   UNL     1     -40.835  52.085 -54.316  1.00  0.00     0.015 A 
HETATM    9  N   UNL     1     -41.254  54.468 -51.530  1.00  0.00    -0.231 NA
HETATM   10  C   UNL     1     -39.853  52.622 -51.791  1.00  0.00     0.032 A 
HETATM   11  C   UNL     1     -42.202  55.310 -51.965  1.00  0.00     0.129 A 
HETATM   12  C   UNL     1     -42.746  55.148 -53.225  1.00  0.00     0.068 A 
HETATM   13  C   UNL     1     -39.353  51.534 -52.508  1.00  0.00     0.002 A 
HETATM   14  C   UNL     1     -39.857  51.255 -53.769  1.00  0.00     0.001 A 
BRANCH  11  15
HETATM   15  N   UNL     1     -42.739  56.342 -51.157  1.00  0.00    -0.341 N 
HETATM   16  H   UNL     1     -43.341  55.932 -50.445  1.00  0.00     0.167 HD
BRANCH  15  17
HETATM   17  C   UNL     1     -43.358  57.553 -51.553  1.00  0.00     0.034 A 
HETATM   18  C   UNL     1     -42.742  58.518 -52.355  1.00  0.00     0.048 A 
HETATM   19  C   UNL     1     -43.443  59.652 -52.783  1.00  0.00     0.002 A 
HETATM   20  C   UNL     1     -44.784  59.814 -52.423  1.00  0.00     0.018 A 
HETATM   21  C   UNL     1     -45.414  58.859 -51.629  1.00  0.00     0.004 A 
HETATM   22  C   UNL     1     -44.706  57.736 -51.203  1.00  0.00     0.029 A 
BRANCH  19  23
HETATM   23  S   UNL     1     -42.624  60.840 -53.833  1.00  0.00    -0.134 SA
HETATM   24  C   UNL     1     -42.138  59.743 -55.191  1.00  0.00     0.095 C 
ENDBRANCH  19  23
ENDBRANCH  15  17
ENDBRANCH  11  15
ENDBRANCH   1   5
BRANCH   2  25
HETATM   25  C   UNL     1     -42.874  56.074 -57.322  1.00  0.00     0.124 C 
BRANCH  25  26
HETATM   26  C   UNL     1     -42.994  55.476 -58.734  1.00  0.00     0.047 C 
BRANCH  26  27
HETATM   27  C   UNL     1     -42.995  56.317 -60.018  1.00  0.00     0.236 C 
BRANCH  27  28
HETATM   28  N   UNL     1     -44.298  56.998 -60.459  1.00  0.00    -0.071 N 
HETATM   29  H   UNL     1     -44.278  57.023 -61.486  1.00  0.00     0.279 HD
HETATM   30  C   UNL     1     -45.465  56.093 -60.076  1.00  0.00     0.235 C 
HETATM   31  C   UNL     1     -46.814  56.717 -60.421  1.00  0.00     0.032 C 
HETATM   32  C   UNL     1     -46.986  58.136 -59.855  1.00  0.00    -0.007 C 
HETATM   33  C   UNL     1     -45.836  58.976 -60.410  1.00  0.00     0.032 C 
HETATM   34  C   UNL     1     -44.479  58.419 -60.014  1.00  0.00     0.235 C 
BRANCH  32  35
HETATM   35  C   UNL     1     -47.079  58.112 -58.309  1.00  0.00     0.043 C 
BRANCH  35  36
HETATM   36  C   UNL     1     -46.959  59.450 -57.620  1.00  0.00    -0.058 A 
HETATM   37  C   UNL     1     -47.916  60.448 -57.831  1.00  0.00     0.007 A 
HETATM   38  C   UNL     1     -47.833  61.663 -57.144  1.00  0.00     0.001 A 
HETATM   39  C   UNL     1     -46.794  61.895 -56.245  1.00  0.00     0.000 A 
HETATM   40  C   UNL     1     -45.828  60.917 -56.037  1.00  0.00     0.001 A 
HETATM   41  C   UNL     1     -45.908  59.706 -56.725  1.00  0.00     0.007 A 
ENDBRANCH  35  36
ENDBRANCH  32  35
ENDBRANCH  27  28
ENDBRANCH  26  27
ENDBRANCH  25  26
ENDBRANCH   2  25
TORSDOF 10
ENDMDL
MODEL 8
REMARK VINA RESULT:      -7.7      3.551      7.035
REMARK  10 active torsions:
REMARK  status: ('A' for Active; 'I' for Inactive)
REMARK    1  A    between atoms: S_2  and  C_3 
REMARK    2  A    between atoms: C_5  and  N_6 
REMARK    3  A    between atoms: N_6  and  C_7 
REMARK    4  A    between atoms: C_11  and  C_12 
REMARK       I    between atoms: C_12  and  N_13 
REMARK    5  A    between atoms: N_13  and  C_14 
REMARK    6  A    between atoms: C_14  and  C_15 
REMARK    7  A    between atoms: C_15  and  C_16 
REMARK    8  A    between atoms: C_16  and  N_17 
REMARK    9  A    between atoms: C_21  and  C_22 
REMARK   10  A    between atoms: C_22  and  C_23 
ROOT
HETATM    1  C   UNL     1     -42.747  61.727 -56.763  1.00  0.00     0.252 C 
HETATM    2  N   UNL     1     -42.022  60.732 -56.141  1.00  0.00    -0.357 N 
HETATM    3  O   UNL     1     -43.404  62.546 -56.130  1.00  0.00    -0.268 OA
HETATM    4  H   UNL     1     -41.694  59.999 -56.760  1.00  0.00     0.162 HD
ENDROOT
BRANCH   1   5
HETATM    5  C   UNL     1     -42.894  61.687 -58.252  1.00  0.00     0.048 A 
HETATM    6  C   UNL     1     -41.926  62.064 -59.207  1.00  0.00     0.009 A 
HETATM    7  C   UNL     1     -42.186  61.650 -60.532  1.00  0.00     0.070 A 
HETATM    8  C   UNL     1     -40.753  62.826 -58.958  1.00  0.00     0.015 A 
HETATM    9  N   UNL     1     -43.296  60.987 -60.899  1.00  0.00    -0.231 NA
HETATM   10  C   UNL     1     -41.253  61.926 -61.520  1.00  0.00     0.032 A 
HETATM   11  C   UNL     1     -44.244  60.699 -59.996  1.00  0.00     0.129 A 
HETATM   12  C   UNL     1     -44.084  61.081 -58.677  1.00  0.00     0.068 A 
HETATM   13  C   UNL     1     -40.076  62.626 -61.254  1.00  0.00     0.002 A 
HETATM   14  C   UNL     1     -39.832  63.092 -59.972  1.00  0.00     0.001 A 
BRANCH  11  15
HETATM   15  N   UNL     1     -45.464  60.066 -60.342  1.00  0.00    -0.341 N 
HETATM   16  H   UNL     1     -46.221  60.481 -59.801  1.00  0.00     0.167 HD
BRANCH  15  17
HETATM   17  C   UNL     1     -45.754  58.683 -60.441  1.00  0.00     0.034 A 
HETATM   18  C   UNL     1     -44.845  57.671 -60.121  1.00  0.00     0.048 A 
HETATM   19  C   UNL     1     -45.227  56.324 -60.157  1.00  0.00     0.002 A 
HETATM   20  C   UNL     1     -46.540  55.985 -60.495  1.00  0.00     0.018 A 
HETATM   21  C   UNL     1     -47.459  56.983 -60.812  1.00  0.00     0.004 A 
HETATM   22  C   UNL     1     -47.068  58.320 -60.779  1.00  0.00     0.029 A 
BRANCH  19  23
HETATM   23  S   UNL     1     -44.042  55.068 -59.708  1.00  0.00    -0.134 SA
HETATM   24  C   UNL     1     -43.230  55.914 -58.326  1.00  0.00     0.095 C 
ENDBRANCH  19  23
ENDBRANCH  15  17
ENDBRANCH  11  15
ENDBRANCH   1   5
BRANCH   2  25
HETATM   25  C   UNL     1     -42.269  60.247 -54.790  1.00  0.00     0.124 C 
BRANCH  25  26
HETATM   26  C   UNL     1     -41.766  58.872 -54.319  1.00  0.00     0.047 C 
BRANCH  26  27
HETATM   27  C   UNL     1     -41.964  58.335 -52.894  1.00  0.00     0.236 C 
BRANCH  27  28
HETATM   28  N   UNL     1     -42.541  56.927 -52.703  1.00  0.00    -0.071 N 
HETATM   29  H   UNL     1     -43.518  57.051 -52.410  1.00  0.00     0.279 HD
HETATM   30  C   UNL     1     -42.589  56.240 -54.065  1.00  0.00     0.235 C 
HETATM   31  C   UNL     1     -43.094  54.803 -53.968  1.00  0.00     0.032 C 
HETATM   32  C   UNL     1     -42.328  53.963 -52.934  1.00  0.00    -0.007 C 
HETATM   33  C   UNL     1     -42.461  54.682 -51.592  1.00  0.00     0.032 C 
HETATM   34  C   UNL     1     -41.893  56.090 -51.640  1.00  0.00     0.235 C 
BRANCH  32  35
HETATM   35  C   UNL     1     -40.869  53.712 -53.389  1.00  0.00     0.043 C 
BRANCH  35  36
HETATM   36  C   UNL     1     -40.368  52.294 -53.249  1.00  0.00    -0.058 A 
HETATM   37  C   UNL     1     -39.859  51.837 -52.029  1.00  0.00     0.007 A 
HETATM   38  C   UNL     1     -39.454  50.506 -51.887  1.00  0.00     0.001 A 
HETATM   39  C   UNL     1     -39.548  49.623 -52.961  1.00  0.00     0.000 A 
HETATM   40  C   UNL     1     -40.039  50.069 -54.183  1.00  0.00     0.001 A 
HETATM   41  C   UNL     1     -40.440  51.397 -54.326  1.00  0.00     0.007 A 
ENDBRANCH  35  36
ENDBRANCH  32  35
ENDBRANCH  27  28
ENDBRANCH  26  27
ENDBRANCH  25  26
ENDBRANCH   2  25
TORSDOF 10
ENDMDL
MODEL 9
REMARK VINA RESULT:      -7.6      2.063      6.419
REMARK  10 active torsions:
REMARK  status: ('A' for Active; 'I' for Inactive)
REMARK    1  A    between atoms: S_2  and  C_3 
REMARK    2  A    between atoms: C_5  and  N_6 
REMARK    3  A    between atoms: N_6  and  C_7 
REMARK    4  A    between atoms: C_11  and  C_12 
REMARK       I    between atoms: C_12  and  N_13 
REMARK    5  A    between atoms: N_13  and  C_14 
REMARK    6  A    between atoms: C_14  and  C_15 
REMARK    7  A    between atoms: C_15  and  C_16 
REMARK    8  A    between atoms: C_16  and  N_17 
REMARK    9  A    between atoms: C_21  and  C_22 
REMARK   10  A    between atoms: C_22  and  C_23 
ROOT
HETATM    1  C   UNL     1     -44.419  59.941 -54.823  1.00  0.00     0.252 C 
HETATM    2  N   UNL     1     -45.654  60.348 -54.363  1.00  0.00    -0.357 N 
HETATM    3  O   UNL     1     -43.547  60.741 -55.144  1.00  0.00    -0.268 OA
HETATM    4  H   UNL     1     -46.354  59.615 -54.330  1.00  0.00     0.162 HD
ENDROOT
BRANCH   1   5
HETATM    5  C   UNL     1     -44.206  58.490 -55.127  1.00  0.00     0.048 A 
HETATM    6  C   UNL     1     -43.849  57.932 -56.373  1.00  0.00     0.009 A 
HETATM    7  C   UNL     1     -43.413  56.589 -56.335  1.00  0.00     0.070 A 
HETATM    8  C   UNL     1     -43.914  58.583 -57.635  1.00  0.00     0.015 A 
HETATM    9  N   UNL     1     -43.378  55.852 -55.212  1.00  0.00    -0.231 NA
HETATM   10  C   UNL     1     -42.984  55.986 -57.507  1.00  0.00     0.032 A 
HETATM   11  C   UNL     1     -43.789  56.369 -54.046  1.00  0.00     0.129 A 
HETATM   12  C   UNL     1     -44.251  57.671 -53.991  1.00  0.00     0.068 A 
HETATM   13  C   UNL     1     -42.997  56.653 -58.732  1.00  0.00     0.002 A 
HETATM   14  C   UNL     1     -43.478  57.951 -58.799  1.00  0.00     0.001 A 
BRANCH  11  15
HETATM   15  N   UNL     1     -43.841  55.614 -52.848  1.00  0.00    -0.341 N 
HETATM   16  H   UNL     1     -44.646  55.911 -52.300  1.00  0.00     0.167 HD
BRANCH  15  17
HETATM   17  C   UNL     1     -42.805  55.340 -51.922  1.00  0.00     0.034 A 
HETATM   18  C   UNL     1     -41.892  54.292 -52.062  1.00  0.00     0.048 A 
HETATM   19  C   UNL     1     -40.837  54.132 -51.154  1.00  0.00     0.002 A 
HETATM   20  C   UNL     1     -40.679  55.044 -50.107  1.00  0.00     0.018 A 
HETATM   21  C   UNL     1     -41.578  56.098 -49.958  1.00  0.00     0.004 A 
HETATM   22  C   UNL     1     -42.629  56.245 -50.862  1.00  0.00     0.029 A 
BRANCH  19  23
HETATM   23  S   UNL     1     -39.677  52.797 -51.391  1.00  0.00    -0.134 SA
HETATM   24  C   UNL     1     -40.233  52.212 -53.013  1.00  0.00     0.095 C 
ENDBRANCH  19  23
ENDBRANCH  15  17
ENDBRANCH  11  15
ENDBRANCH   1   5
BRANCH   2  25
HETATM   25  C   UNL     1     -46.237  61.660 -54.604  1.00  0.00     0.124 C 
BRANCH  25  26
HETATM   26  C   UNL     1     -47.219  62.305 -53.612  1.00  0.00     0.047 C 
BRANCH  26  27
HETATM   27  C   UNL     1     -46.825  63.401 -52.613  1.00  0.00     0.236 C 
BRANCH  27  28
HETATM   28  N   UNL     1     -45.900  63.043 -51.442  1.00  0.00    -0.071 N 
HETATM   29  H   UNL     1     -46.121  63.701 -50.685  1.00  0.00     0.279 HD
HETATM   30  C   UNL     1     -46.288  61.658 -50.931  1.00  0.00     0.235 C 
HETATM   31  C   UNL     1     -45.379  61.186 -49.800  1.00  0.00     0.032 C 
HETATM   32  C   UNL     1     -43.885  61.262 -50.155  1.00  0.00    -0.007 C 
HETATM   33  C   UNL     1     -43.591  62.716 -50.524  1.00  0.00     0.032 C 
HETATM   34  C   UNL     1     -44.429  63.188 -51.700  1.00  0.00     0.235 C 
BRANCH  32  35
HETATM   35  C   UNL     1     -43.519  60.232 -51.253  1.00  0.00     0.043 C 
BRANCH  35  36
HETATM   36  C   UNL     1     -42.064  59.835 -51.326  1.00  0.00    -0.058 A 
HETATM   37  C   UNL     1     -41.235  59.962 -50.206  1.00  0.00     0.007 A 
HETATM   38  C   UNL     1     -39.904  59.537 -50.261  1.00  0.00     0.001 A 
HETATM   39  C   UNL     1     -39.388  58.986 -51.433  1.00  0.00     0.000 A 
HETATM   40  C   UNL     1     -40.198  58.868 -52.557  1.00  0.00     0.001 A 
HETATM   41  C   UNL     1     -41.524  59.296 -52.504  1.00  0.00     0.007 A 
ENDBRANCH  35  36
ENDBRANCH  32  35
ENDBRANCH  27  28
ENDBRANCH  26  27
ENDBRANCH  25  26
ENDBRANCH   2  25
TORSDOF 10
ENDMDL
MODEL 10
REMARK VINA RESULT:      -7.6      4.367      8.091
REMARK  10 active torsions:
REMARK  status: ('A' for Active; 'I' for Inactive)
REMARK    1  A    between atoms: S_2  and  C_3 
REMARK    2  A    between atoms: C_5  and  N_6 
REMARK    3  A    between atoms: N_6  and  C_7 
REMARK    4  A    between atoms: C_11  and  C_12 
REMARK       I    between atoms: C_12  and  N_13 
REMARK    5  A    between atoms: N_13  and  C_14 
REMARK    6  A    between atoms: C_14  and  C_15 
REMARK    7  A    between atoms: C_15  and  C_16 
REMARK    8  A    between atoms: C_16  and  N_17 
REMARK    9  A    between atoms: C_21  and  C_22 
REMARK   10  A    between atoms: C_22  and  C_23 
ROOT
HETATM    1  C   UNL     1     -44.179  57.990 -56.654  1.00  0.00     0.252 C 
HETATM    2  N   UNL     1     -44.942  58.451 -55.601  1.00  0.00    -0.357 N 
HETATM    3  O   UNL     1     -42.976  57.780 -56.543  1.00  0.00    -0.268 OA
HETATM    4  H   UNL     1     -45.865  58.783 -55.863  1.00  0.00     0.162 HD
ENDROOT
BRANCH   1   5
HETATM    5  C   UNL     1     -44.794  57.932 -58.018  1.00  0.00     0.048 A 
HETATM    6  C   UNL     1     -44.786  56.831 -58.901  1.00  0.00     0.009 A 
HETATM    7  C   UNL     1     -45.685  56.917 -59.987  1.00  0.00     0.070 A 
HETATM    8  C   UNL     1     -43.955  55.683 -58.806  1.00  0.00     0.015 A 
HETATM    9  N   UNL     1     -46.469  57.984 -60.219  1.00  0.00    -0.231 NA
HETATM   10  C   UNL     1     -45.785  55.850 -60.866  1.00  0.00     0.032 A 
HETATM   11  C   UNL     1     -46.415  59.055 -59.415  1.00  0.00     0.129 A 
HETATM   12  C   UNL     1     -45.550  59.068 -58.337  1.00  0.00     0.068 A 
HETATM   13  C   UNL     1     -45.004  54.702 -60.731  1.00  0.00     0.002 A 
HETATM   14  C   UNL     1     -44.074  54.625 -59.706  1.00  0.00     0.001 A 
BRANCH  11  15
HETATM   15  N   UNL     1     -47.166  60.233 -59.655  1.00  0.00    -0.341 N 
HETATM   16  H   UNL     1     -46.865  60.959 -59.008  1.00  0.00     0.167 HD
BRANCH  15  17
HETATM   17  C   UNL     1     -48.566  60.382 -59.801  1.00  0.00     0.034 A 
HETATM   18  C   UNL     1     -49.418  60.795 -58.773  1.00  0.00     0.048 A 
HETATM   19  C   UNL     1     -50.782  61.008 -59.011  1.00  0.00     0.002 A 
HETATM   20  C   UNL     1     -51.297  60.827 -60.297  1.00  0.00     0.018 A 
HETATM   21  C   UNL     1     -50.460  60.421 -61.334  1.00  0.00     0.004 A 
HETATM   22  C   UNL     1     -49.105  60.206 -61.086  1.00  0.00     0.029 A 
BRANCH  19  23
HETATM   23  S   UNL     1     -51.824  61.566 -57.675  1.00  0.00    -0.134 SA
HETATM   24  C   UNL     1     -51.451  60.279 -56.456  1.00  0.00     0.095 C 
ENDBRANCH  19  23
ENDBRANCH  15  17
ENDBRANCH  11  15
ENDBRANCH   1   5
BRANCH   2  25
HETATM   25  C   UNL     1     -44.413  59.146 -54.436  1.00  0.00     0.124 C 
BRANCH  25  26
HETATM   26  C   UNL     1     -44.520  58.553 -53.021  1.00  0.00     0.047 C 
BRANCH  26  27
HETATM   27  C   UNL     1     -43.832  57.251 -52.589  1.00  0.00     0.236 C 
BRANCH  27  28
HETATM   28  N   UNL     1     -43.054  56.439 -53.633  1.00  0.00    -0.071 N 
HETATM   29  H   UNL     1     -43.278  56.851 -54.547  1.00  0.00     0.279 HD
HETATM   30  C   UNL     1     -41.563  56.679 -53.411  1.00  0.00     0.235 C 
HETATM   31  C   UNL     1     -40.700  55.860 -54.368  1.00  0.00     0.032 C 
HETATM   32  C   UNL     1     -41.042  54.362 -54.357  1.00  0.00    -0.007 C 
HETATM   33  C   UNL     1     -42.523  54.243 -54.718  1.00  0.00     0.032 C 
HETATM   34  C   UNL     1     -43.411  54.986 -53.734  1.00  0.00     0.235 C 
BRANCH  32  35
HETATM   35  C   UNL     1     -40.653  53.709 -53.007  1.00  0.00     0.043 C 
BRANCH  35  36
HETATM   36  C   UNL     1     -40.227  52.263 -53.072  1.00  0.00    -0.058 A 
HETATM   37  C   UNL     1     -39.783  51.600 -51.923  1.00  0.00     0.007 A 
HETATM   38  C   UNL     1     -39.448  50.243 -51.975  1.00  0.00     0.001 A 
HETATM   39  C   UNL     1     -39.548  49.538 -53.173  1.00  0.00     0.000 A 
HETATM   40  C   UNL     1     -39.975  50.189 -54.325  1.00  0.00     0.001 A 
HETATM   41  C   UNL     1     -40.306  51.543 -54.274  1.00  0.00     0.007 A 
ENDBRANCH  35  36
ENDBRANCH  32  35
ENDBRANCH  27  28
ENDBRANCH  26  27
ENDBRANCH  25  26
ENDBRANCH   2  25
TORSDOF 10
ENDMDL
