MODEL 1
REMARK VINA RESULT:      -9.1      0.000      0.000
REMARK  7 active torsions:
REMARK  status: ('A' for Active; 'I' for Inactive)
REMARK    1  A    between atoms: N_6  and  C_7 
REMARK    2  A    between atoms: C_11  and  N_12 
REMARK    3  A    between atoms: N_12  and  C_13 
REMARK    4  A    between atoms: C_13  and  N_14 
REMARK       I    between atoms: N_14  and  C_15 
REMARK    5  A    between atoms: C_15  and  C_16 
REMARK    6  A    between atoms: C_17  and  C_18 
REMARK    7  A    between atoms: C_20  and  C_21 
ROOT
HETATM    1  C   UNL     1     -44.049  56.543 -54.049  1.00  0.00     0.179 C 
HETATM    2  S   UNL     1     -43.446  55.051 -54.497  1.00  0.00    -0.040 SA
ENDROOT
BRANCH   1   3
HETATM    3  N   UNL     1     -43.980  57.518 -55.010  1.00  0.00    -0.333 N 
HETATM    4  H   UNL     1     -43.539  58.359 -54.640  1.00  0.00     0.168 HD
BRANCH   3   5
HETATM    5  C   UNL     1     -44.494  57.636 -56.316  1.00  0.00     0.036 A 
HETATM    6  C   UNL     1     -45.734  58.269 -56.436  1.00  0.00     0.055 A 
HETATM    7  C   UNL     1     -46.379  58.364 -57.674  1.00  0.00     0.062 A 
HETATM    8  C   UNL     1     -45.802  57.839 -58.852  1.00  0.00     0.052 A 
HETATM    9 CL   UNL     1     -47.980  59.039 -57.665  1.00  0.00    -0.082 Cl
HETATM   10  C   UNL     1     -44.552  57.217 -58.711  1.00  0.00     0.033 A 
HETATM   11  C   UNL     1     -43.910  57.105 -57.465  1.00  0.00     0.032 A 
BRANCH   8  12
HETATM   12  N   UNL     1     -46.466  57.870 -60.077  1.00  0.00    -0.376 N 
HETATM   13  C   UNL     1     -46.390  59.106 -60.875  1.00  0.00     0.150 C 
HETATM   14  C   UNL     1     -47.712  59.273 -61.655  1.00  0.00     0.254 C 
HETATM   15  N   UNL     1     -47.998  58.027 -62.506  1.00  0.00    -0.072 N 
HETATM   16  C   UNL     1     -49.297  58.155 -63.246  1.00  0.00     0.269 C 
HETATM   17  H   UNL     1     -47.244  57.957 -63.200  1.00  0.00     0.279 HD
HETATM   18  C   UNL     1     -47.960  56.747 -61.664  1.00  0.00     0.254 C 
HETATM   19  C   UNL     1     -46.642  56.642 -60.861  1.00  0.00     0.150 C 
ENDBRANCH   8  12
ENDBRANCH   3   5
ENDBRANCH   1   3
BRANCH   1  20
HETATM   20  N   UNL     1     -44.663  56.883 -52.858  1.00  0.00    -0.300 N 
HETATM   21  C   UNL     1     -44.269  57.431 -51.647  1.00  0.00     0.247 C 
HETATM   22  O   UNL     1     -44.895  57.129 -50.633  1.00  0.00    -0.268 OA
HETATM   23  H   UNL     1     -45.487  56.323 -52.686  1.00  0.00     0.171 HD
BRANCH  21  24
HETATM   24  C   UNL     1     -43.103  58.341 -51.604  1.00  0.00     0.077 C 
HETATM   25  C   UNL     1     -41.839  57.961 -51.359  1.00  0.00     0.042 C 
BRANCH  25  26
HETATM   26  C   UNL     1     -41.459  56.647 -50.989  1.00  0.00     0.076 A 
HETATM   27  O   UNL     1     -41.134  55.654 -51.888  1.00  0.00    -0.310 OA
HETATM   28  C   UNL     1     -40.837  54.522 -51.189  1.00  0.00     0.086 A 
HETATM   29  C   UNL     1     -40.966  54.759 -49.840  1.00  0.00     0.041 A 
HETATM   30  C   UNL     1     -41.388  56.102 -49.714  1.00  0.00     0.040 A 
BRANCH  28  31
HETATM   31  C   UNL     1     -40.463  53.358 -51.977  1.00  0.00    -0.002 A 
HETATM   32  C   UNL     1     -40.589  53.374 -53.374  1.00  0.00     0.016 A 
HETATM   33  C   UNL     1     -40.213  52.264 -54.137  1.00  0.00     0.024 A 
HETATM   34  C   UNL     1     -39.699  51.134 -53.505  1.00  0.00     0.034 A 
HETATM   35 CL   UNL     1     -39.245  49.761 -54.438  1.00  0.00    -0.084 Cl
HETATM   36  C   UNL     1     -39.556  51.104 -52.120  1.00  0.00     0.024 A 
HETATM   37  C   UNL     1     -39.944  52.210 -51.359  1.00  0.00     0.016 A 
ENDBRANCH  28  31
ENDBRANCH  25  26
ENDBRANCH  21  24
ENDBRANCH   1  20
TORSDOF 7
ENDMDL
MODEL 2
REMARK VINA RESULT:      -9.1      2.606      3.353
REMARK  7 active torsions:
REMARK  status: ('A' for Active; 'I' for Inactive)
REMARK    1  A    between atoms: N_6  and  C_7 
REMARK    2  A    between atoms: C_11  and  N_12 
REMARK    3  A    between atoms: N_12  and  C_13 
REMARK    4  A    between atoms: C_13  and  N_14 
REMARK       I    between atoms: N_14  and  C_15 
REMARK    5  A    between atoms: C_15  and  C_16 
REMARK    6  A    between atoms: C_17  and  C_18 
REMARK    7  A    between atoms: C_20  and  C_21 
ROOT
HETATM    1  C   UNL     1     -42.880  60.167 -52.345  1.00  0.00     0.179 C 
HETATM    2  S   UNL     1     -43.126  61.488 -51.353  1.00  0.00    -0.040 SA
ENDROOT
BRANCH   1   3
HETATM    3  N   UNL     1     -44.002  59.674 -52.957  1.00  0.00    -0.333 N 
HETATM    4  H   UNL     1     -44.766  59.580 -52.290  1.00  0.00     0.168 HD
BRANCH   3   5
HETATM    5  C   UNL     1     -44.265  59.165 -54.244  1.00  0.00     0.036 A 
HETATM    6  C   UNL     1     -43.809  57.869 -54.499  1.00  0.00     0.055 A 
HETATM    7  C   UNL     1     -43.938  57.296 -55.770  1.00  0.00     0.062 A 
HETATM    8  C   UNL     1     -44.544  57.993 -56.839  1.00  0.00     0.052 A 
HETATM    9 CL   UNL     1     -43.198  55.740 -55.997  1.00  0.00    -0.082 Cl
HETATM   10  C   UNL     1     -45.003  59.288 -56.558  1.00  0.00     0.033 A 
HETATM   11  C   UNL     1     -44.859  59.873 -55.287  1.00  0.00     0.032 A 
BRANCH   8  12
HETATM   12  N   UNL     1     -44.617  57.457 -58.123  1.00  0.00    -0.376 N 
HETATM   13  C   UNL     1     -45.882  57.604 -58.864  1.00  0.00     0.150 C 
HETATM   14  C   UNL     1     -46.074  56.367 -59.767  1.00  0.00     0.254 C 
HETATM   15  N   UNL     1     -44.859  56.177 -60.687  1.00  0.00    -0.072 N 
HETATM   16  C   UNL     1     -45.010  54.959 -61.551  1.00  0.00     0.269 C 
HETATM   17  H   UNL     1     -44.816  56.998 -61.303  1.00  0.00     0.279 HD
HETATM   18  C   UNL     1     -43.548  56.139 -59.893  1.00  0.00     0.254 C 
HETATM   19  C   UNL     1     -43.418  57.368 -58.964  1.00  0.00     0.150 C 
ENDBRANCH   8  12
ENDBRANCH   3   5
ENDBRANCH   1   3
BRANCH   1  20
HETATM   20  N   UNL     1     -41.678  59.564 -52.665  1.00  0.00    -0.300 N 
HETATM   21  C   UNL     1     -40.515  59.223 -51.992  1.00  0.00     0.247 C 
HETATM   22  O   UNL     1     -39.458  59.193 -52.619  1.00  0.00    -0.268 OA
HETATM   23  H   UNL     1     -41.439  59.696 -53.639  1.00  0.00     0.171 HD
BRANCH  21  24
HETATM   24  C   UNL     1     -40.573  58.926 -50.543  1.00  0.00     0.077 C 
HETATM   25  C   UNL     1     -41.000  57.771 -50.011  1.00  0.00     0.042 C 
BRANCH  25  26
HETATM   26  C   UNL     1     -41.568  56.710 -50.759  1.00  0.00     0.076 A 
HETATM   27  O   UNL     1     -40.852  55.642 -51.252  1.00  0.00    -0.310 OA
HETATM   28  C   UNL     1     -41.707  54.827 -51.933  1.00  0.00     0.086 A 
HETATM   29  C   UNL     1     -42.980  55.350 -51.894  1.00  0.00     0.041 A 
HETATM   30  C   UNL     1     -42.886  56.561 -51.171  1.00  0.00     0.040 A 
BRANCH  28  31
HETATM   31  C   UNL     1     -41.125  53.633 -52.526  1.00  0.00    -0.002 A 
HETATM   32  C   UNL     1     -41.492  53.230 -53.818  1.00  0.00     0.016 A 
HETATM   33  C   UNL     1     -40.922  52.093 -54.400  1.00  0.00     0.024 A 
HETATM   34  C   UNL     1     -39.972  51.359 -53.693  1.00  0.00     0.034 A 
HETATM   35 CL   UNL     1     -39.275  49.953 -54.400  1.00  0.00    -0.084 Cl
HETATM   36  C   UNL     1     -39.587  51.750 -52.413  1.00  0.00     0.024 A 
HETATM   37  C   UNL     1     -40.167  52.880 -51.830  1.00  0.00     0.016 A 
ENDBRANCH  28  31
ENDBRANCH  25  26
ENDBRANCH  21  24
ENDBRANCH   1  20
TORSDOF 7
ENDMDL
MODEL 3
REMARK VINA RESULT:      -9.1      1.585      2.184
REMARK  7 active torsions:
REMARK  status: ('A' for Active; 'I' for Inactive)
REMARK    1  A    between atoms: N_6  and  C_7 
REMARK    2  A    between atoms: C_11  and  N_12 
REMARK    3  A    between atoms: N_12  and  C_13 
REMARK    4  A    between atoms: C_13  and  N_14 
REMARK       I    between atoms: N_14  and  C_15 
REMARK    5  A    between atoms: C_15  and  C_16 
REMARK    6  A    between atoms: C_17  and  C_18 
REMARK    7  A    between atoms: C_20  and  C_21 
ROOT
HETATM    1  C   UNL     1     -42.268  56.821 -54.886  1.00  0.00     0.179 C 
HETATM    2  S   UNL     1     -43.465  55.820 -54.289  1.00  0.00    -0.040 SA
ENDROOT
BRANCH   1   3
HETATM    3  N   UNL     1     -42.440  57.236 -56.180  1.00  0.00    -0.333 N 
HETATM    4  H   UNL     1     -41.583  57.646 -56.545  1.00  0.00     0.168 HD
BRANCH   3   5
HETATM    5  C   UNL     1     -43.558  57.329 -57.032  1.00  0.00     0.036 A 
HETATM    6  C   UNL     1     -43.489  56.598 -58.221  1.00  0.00     0.055 A 
HETATM    7  C   UNL     1     -44.504  56.685 -59.181  1.00  0.00     0.062 A 
HETATM    8  C   UNL     1     -45.641  57.499 -58.986  1.00  0.00     0.052 A 
HETATM    9 CL   UNL     1     -44.229  55.845 -60.678  1.00  0.00    -0.082 Cl
HETATM   10  C   UNL     1     -45.695  58.217 -57.781  1.00  0.00     0.033 A 
HETATM   11  C   UNL     1     -44.668  58.145 -56.823  1.00  0.00     0.032 A 
BRANCH   8  12
HETATM   12  N   UNL     1     -46.624  57.644 -59.963  1.00  0.00    -0.376 N 
HETATM   13  C   UNL     1     -47.431  56.462 -60.314  1.00  0.00     0.150 C 
HETATM   14  C   UNL     1     -47.800  56.542 -61.811  1.00  0.00     0.254 C 
HETATM   15  N   UNL     1     -48.511  57.867 -62.122  1.00  0.00    -0.072 N 
HETATM   16  C   UNL     1     -48.849  57.979 -63.580  1.00  0.00     0.269 C 
HETATM   17  H   UNL     1     -49.391  57.868 -61.592  1.00  0.00     0.279 HD
HETATM   18  C   UNL     1     -47.694  59.073 -61.644  1.00  0.00     0.254 C 
HETATM   19  C   UNL     1     -47.302  58.931 -60.155  1.00  0.00     0.150 C 
ENDBRANCH   8  12
ENDBRANCH   3   5
ENDBRANCH   1   3
BRANCH   1  20
HETATM   20  N   UNL     1     -41.173  57.324 -54.209  1.00  0.00    -0.300 N 
HETATM   21  C   UNL     1     -40.953  58.257 -53.206  1.00  0.00     0.247 C 
HETATM   22  O   UNL     1     -39.883  58.860 -53.188  1.00  0.00    -0.268 OA
HETATM   23  H   UNL     1     -40.330  57.270 -54.765  1.00  0.00     0.171 HD
BRANCH  21  24
HETATM   24  C   UNL     1     -42.014  58.513 -52.206  1.00  0.00     0.077 C 
HETATM   25  C   UNL     1     -42.252  57.754 -51.126  1.00  0.00     0.042 C 
BRANCH  25  26
HETATM   26  C   UNL     1     -41.596  56.529 -50.852  1.00  0.00     0.076 A 
HETATM   27  O   UNL     1     -41.399  55.532 -51.782  1.00  0.00    -0.310 OA
HETATM   28  C   UNL     1     -40.753  54.496 -51.174  1.00  0.00     0.086 A 
HETATM   29  C   UNL     1     -40.525  54.801 -49.851  1.00  0.00     0.041 A 
HETATM   30  C   UNL     1     -41.086  56.082 -49.640  1.00  0.00     0.040 A 
BRANCH  28  31
HETATM   31  C   UNL     1     -40.453  53.344 -52.010  1.00  0.00    -0.002 A 
HETATM   32  C   UNL     1     -40.747  53.364 -53.380  1.00  0.00     0.016 A 
HETATM   33  C   UNL     1     -40.444  52.265 -54.191  1.00  0.00     0.024 A 
HETATM   34  C   UNL     1     -39.834  51.143 -53.634  1.00  0.00     0.034 A 
HETATM   35 CL   UNL     1     -39.469  49.785 -54.624  1.00  0.00    -0.084 Cl
HETATM   36  C   UNL     1     -39.525  51.110 -52.277  1.00  0.00     0.024 A 
HETATM   37  C   UNL     1     -39.840  52.205 -51.467  1.00  0.00     0.016 A 
ENDBRANCH  28  31
ENDBRANCH  25  26
ENDBRANCH  21  24
ENDBRANCH   1  20
TORSDOF 7
ENDMDL
MODEL 4
REMARK VINA RESULT:      -8.9      3.458      3.962
REMARK  7 active torsions:
REMARK  status: ('A' for Active; 'I' for Inactive)
REMARK    1  A    between atoms: N_6  and  C_7 
REMARK    2  A    between atoms: C_11  and  N_12 
REMARK    3  A    between atoms: N_12  and  C_13 
REMARK    4  A    between atoms: C_13  and  N_14 
REMARK       I    between atoms: N_14  and  C_15 
REMARK    5  A    between atoms: C_15  and  C_16 
REMARK    6  A    between atoms: C_17  and  C_18 
REMARK    7  A    between atoms: C_20  and  C_21 
ROOT
HETATM    1  C   UNL     1     -43.509  56.185 -53.803  1.00  0.00     0.179 C 
HETATM    2  S   UNL     1     -43.615  54.748 -54.649  1.00  0.00    -0.040 SA
ENDROOT
BRANCH   1   3
HETATM    3  N   UNL     1     -42.537  57.049 -54.232  1.00  0.00    -0.333 N 
HETATM    4  H   UNL     1     -41.681  56.927 -53.693  1.00  0.00     0.168 HD
BRANCH   3   5
HETATM    5  C   UNL     1     -42.522  58.125 -55.142  1.00  0.00     0.036 A 
HETATM    6  C   UNL     1     -42.425  57.786 -56.494  1.00  0.00     0.055 A 
HETATM    7  C   UNL     1     -42.314  58.775 -57.479  1.00  0.00     0.062 A 
HETATM    8  C   UNL     1     -42.310  60.149 -57.152  1.00  0.00     0.052 A 
HETATM    9 CL   UNL     1     -42.050  58.223 -59.106  1.00  0.00    -0.082 Cl
HETATM   10  C   UNL     1     -42.418  60.467 -55.789  1.00  0.00     0.033 A 
HETATM   11  C   UNL     1     -42.512  59.475 -54.797  1.00  0.00     0.032 A 
BRANCH   8  12
HETATM   12  N   UNL     1     -42.134  61.138 -58.118  1.00  0.00    -0.376 N 
HETATM   13  C   UNL     1     -43.301  61.953 -58.496  1.00  0.00     0.150 C 
HETATM   14  C   UNL     1     -43.179  62.333 -59.987  1.00  0.00     0.254 C 
HETATM   15  N   UNL     1     -41.842  63.040 -60.256  1.00  0.00    -0.072 N 
HETATM   16  C   UNL     1     -41.688  63.387 -61.707  1.00  0.00     0.269 C 
HETATM   17  H   UNL     1     -41.852  63.916 -59.720  1.00  0.00     0.279 HD
HETATM   18  C   UNL     1     -40.654  62.213 -59.751  1.00  0.00     0.254 C 
HETATM   19  C   UNL     1     -40.839  61.811 -58.269  1.00  0.00     0.150 C 
ENDBRANCH   8  12
ENDBRANCH   3   5
ENDBRANCH   1   3
BRANCH   1  20
HETATM   20  N   UNL     1     -44.325  56.622 -52.777  1.00  0.00    -0.300 N 
HETATM   21  C   UNL     1     -44.151  57.270 -51.563  1.00  0.00     0.247 C 
HETATM   22  O   UNL     1     -44.955  57.053 -50.659  1.00  0.00    -0.268 OA
HETATM   23  H   UNL     1     -45.173  56.075 -52.712  1.00  0.00     0.171 HD
BRANCH  21  24
HETATM   24  C   UNL     1     -43.000  58.184 -51.384  1.00  0.00     0.077 C 
HETATM   25  C   UNL     1     -41.752  57.798 -51.078  1.00  0.00     0.042 C 
BRANCH  25  26
HETATM   26  C   UNL     1     -41.383  56.466 -50.765  1.00  0.00     0.076 A 
HETATM   27  O   UNL     1     -41.077  55.508 -51.706  1.00  0.00    -0.310 OA
HETATM   28  C   UNL     1     -40.786  54.344 -51.057  1.00  0.00     0.086 A 
HETATM   29  C   UNL     1     -40.901  54.528 -49.698  1.00  0.00     0.041 A 
HETATM   30  C   UNL     1     -41.307  55.869 -49.514  1.00  0.00     0.040 A 
BRANCH  28  31
HETATM   31  C   UNL     1     -40.431  53.210 -51.895  1.00  0.00    -0.002 A 
HETATM   32  C   UNL     1     -40.594  53.275 -53.287  1.00  0.00     0.016 A 
HETATM   33  C   UNL     1     -40.237  52.193 -54.098  1.00  0.00     0.024 A 
HETATM   34  C   UNL     1     -39.704  51.043 -53.520  1.00  0.00     0.034 A 
HETATM   35 CL   UNL     1     -39.273  49.705 -54.513  1.00  0.00    -0.084 Cl
HETATM   36  C   UNL     1     -39.525  50.964 -52.142  1.00  0.00     0.024 A 
HETATM   37  C   UNL     1     -39.894  52.042 -51.332  1.00  0.00     0.016 A 
ENDBRANCH  28  31
ENDBRANCH  25  26
ENDBRANCH  21  24
ENDBRANCH   1  20
TORSDOF 7
ENDMDL
MODEL 5
REMARK VINA RESULT:      -8.7      2.808      3.518
REMARK  7 active torsions:
REMARK  status: ('A' for Active; 'I' for Inactive)
REMARK    1  A    between atoms: N_6  and  C_7 
REMARK    2  A    between atoms: C_11  and  N_12 
REMARK    3  A    between atoms: N_12  and  C_13 
REMARK    4  A    between atoms: C_13  and  N_14 
REMARK       I    between atoms: N_14  and  C_15 
REMARK    5  A    between atoms: C_15  and  C_16 
REMARK    6  A    between atoms: C_17  and  C_18 
REMARK    7  A    between atoms: C_20  and  C_21 
ROOT
HETATM    1  C   UNL     1     -42.756  61.202 -52.690  1.00  0.00     0.179 C 
HETATM    2  S   UNL     1     -43.740  62.333 -51.955  1.00  0.00    -0.040 SA
ENDROOT
BRANCH   1   3
HETATM    3  N   UNL     1     -42.526  61.402 -54.026  1.00  0.00    -0.333 N 
HETATM    4  H   UNL     1     -42.219  62.357 -54.201  1.00  0.00     0.168 HD
BRANCH   3   5
HETATM    5  C   UNL     1     -42.748  60.624 -55.180  1.00  0.00     0.036 A 
HETATM    6  C   UNL     1     -43.897  59.830 -55.176  1.00  0.00     0.055 A 
HETATM    7  C   UNL     1     -44.171  58.951 -56.231  1.00  0.00     0.062 A 
HETATM    8  C   UNL     1     -43.309  58.841 -57.345  1.00  0.00     0.052 A 
HETATM    9 CL   UNL     1     -45.550  57.912 -56.037  1.00  0.00    -0.082 Cl
HETATM   10  C   UNL     1     -42.166  59.655 -57.333  1.00  0.00     0.033 A 
HETATM   11  C   UNL     1     -41.880  60.525 -56.266  1.00  0.00     0.032 A 
BRANCH   8  12
HETATM   12  N   UNL     1     -43.538  57.923 -58.368  1.00  0.00    -0.376 N 
HETATM   13  C   UNL     1     -43.859  58.444 -59.708  1.00  0.00     0.150 C 
HETATM   14  C   UNL     1     -44.822  57.460 -60.405  1.00  0.00     0.254 C 
HETATM   15  N   UNL     1     -44.219  56.048 -60.440  1.00  0.00    -0.072 N 
HETATM   16  C   UNL     1     -45.155  55.068 -61.084  1.00  0.00     0.269 C 
HETATM   17  H   UNL     1     -43.369  56.098 -61.015  1.00  0.00     0.279 HD
HETATM   18  C   UNL     1     -43.795  55.580 -59.043  1.00  0.00     0.254 C 
HETATM   19  C   UNL     1     -42.872  56.616 -58.360  1.00  0.00     0.150 C 
ENDBRANCH   8  12
ENDBRANCH   3   5
ENDBRANCH   1   3
BRANCH   1  20
HETATM   20  N   UNL     1     -42.102  60.138 -52.097  1.00  0.00    -0.300 N 
HETATM   21  C   UNL     1     -42.470  58.959 -51.467  1.00  0.00     0.247 C 
HETATM   22  O   UNL     1     -41.728  58.497 -50.603  1.00  0.00    -0.268 OA
HETATM   23  H   UNL     1     -41.197  60.407 -51.736  1.00  0.00     0.171 HD
BRANCH  21  24
HETATM   24  C   UNL     1     -43.746  58.304 -51.835  1.00  0.00     0.077 C 
HETATM   25  C   UNL     1     -43.852  57.160 -52.527  1.00  0.00     0.042 C 
BRANCH  25  26
HETATM   26  C   UNL     1     -42.756  56.474 -53.106  1.00  0.00     0.076 A 
HETATM   27  O   UNL     1     -42.411  55.174 -52.806  1.00  0.00    -0.310 OA
HETATM   28  C   UNL     1     -41.303  54.844 -53.529  1.00  0.00     0.086 A 
HETATM   29  C   UNL     1     -40.914  55.915 -54.301  1.00  0.00     0.041 A 
HETATM   30  C   UNL     1     -41.822  56.960 -54.011  1.00  0.00     0.040 A 
BRANCH  28  31
HETATM   31  C   UNL     1     -40.791  53.495 -53.344  1.00  0.00    -0.002 A 
HETATM   32  C   UNL     1     -40.760  52.593 -54.417  1.00  0.00     0.016 A 
HETATM   33  C   UNL     1     -40.252  51.301 -54.249  1.00  0.00     0.024 A 
HETATM   34  C   UNL     1     -39.760  50.909 -53.006  1.00  0.00     0.034 A 
HETATM   35 CL   UNL     1     -39.144  49.317 -52.791  1.00  0.00    -0.084 Cl
HETATM   36  C   UNL     1     -39.772  51.795 -51.932  1.00  0.00     0.024 A 
HETATM   37  C   UNL     1     -40.292  53.081 -52.100  1.00  0.00     0.016 A 
ENDBRANCH  28  31
ENDBRANCH  25  26
ENDBRANCH  21  24
ENDBRANCH   1  20
TORSDOF 7
ENDMDL
MODEL 6
REMARK VINA RESULT:      -8.6      3.433      8.495
REMARK  7 active torsions:
REMARK  status: ('A' for Active; 'I' for Inactive)
REMARK    1  A    between atoms: N_6  and  C_7 
REMARK    2  A    between atoms: C_11  and  N_12 
REMARK    3  A    between atoms: N_12  and  C_13 
REMARK    4  A    between atoms: C_13  and  N_14 
REMARK       I    between atoms: N_14  and  C_15 
REMARK    5  A    between atoms: C_15  and  C_16 
REMARK    6  A    between atoms: C_17  and  C_18 
REMARK    7  A    between atoms: C_20  and  C_21 
ROOT
HETATM    1  C   UNL     1     -44.077  56.968 -57.578  1.00  0.00     0.179 C 
HETATM    2  S   UNL     1     -42.804  56.920 -58.658  1.00  0.00    -0.040 SA
ENDROOT
BRANCH   1   3
HETATM    3  N   UNL     1     -43.750  56.721 -56.271  1.00  0.00    -0.333 N 
HETATM    4  H   UNL     1     -44.054  57.486 -55.671  1.00  0.00     0.168 HD
BRANCH   3   5
HETATM    5  C   UNL     1     -42.989  55.724 -55.630  1.00  0.00     0.036 A 
HETATM    6  C   UNL     1     -43.481  55.266 -54.405  1.00  0.00     0.055 A 
HETATM    7  C   UNL     1     -42.761  54.340 -53.639  1.00  0.00     0.062 A 
HETATM    8  C   UNL     1     -41.522  53.822 -54.076  1.00  0.00     0.052 A 
HETATM    9 CL   UNL     1     -43.406  53.965 -52.069  1.00  0.00    -0.082 Cl
HETATM   10  C   UNL     1     -41.052  54.288 -55.313  1.00  0.00     0.033 A 
HETATM   11  C   UNL     1     -41.764  55.231 -56.076  1.00  0.00     0.032 A 
BRANCH   8  12
HETATM   12  N   UNL     1     -40.768  52.951 -53.292  1.00  0.00    -0.376 N 
HETATM   13  C   UNL     1     -39.946  51.938 -53.975  1.00  0.00     0.150 C 
HETATM   14  C   UNL     1     -39.888  50.671 -53.095  1.00  0.00     0.254 C 
HETATM   15  N   UNL     1     -39.369  51.014 -51.690  1.00  0.00    -0.072 N 
HETATM   16  C   UNL     1     -39.337  49.802 -50.807  1.00  0.00     0.269 C 
HETATM   17  H   UNL     1     -38.406  51.352 -51.800  1.00  0.00     0.279 HD
HETATM   18  C   UNL     1     -40.178  52.149 -51.051  1.00  0.00     0.254 C 
HETATM   19  C   UNL     1     -40.255  53.379 -51.985  1.00  0.00     0.150 C 
ENDBRANCH   8  12
ENDBRANCH   3   5
ENDBRANCH   1   3
BRANCH   1  20
HETATM   20  N   UNL     1     -45.395  57.290 -57.841  1.00  0.00    -0.300 N 
HETATM   21  C   UNL     1     -46.153  58.451 -57.903  1.00  0.00     0.247 C 
HETATM   22  O   UNL     1     -47.351  58.387 -57.637  1.00  0.00    -0.268 OA
HETATM   23  H   UNL     1     -46.021  56.530 -57.613  1.00  0.00     0.171 HD
BRANCH  21  24
HETATM   24  C   UNL     1     -45.498  59.728 -58.264  1.00  0.00     0.077 C 
HETATM   25  C   UNL     1     -44.891  60.554 -57.398  1.00  0.00     0.042 C 
BRANCH  25  26
HETATM   26  C   UNL     1     -44.893  60.376 -55.993  1.00  0.00     0.076 A 
HETATM   27  O   UNL     1     -44.013  59.561 -55.315  1.00  0.00    -0.310 OA
HETATM   28  C   UNL     1     -44.311  59.615 -53.986  1.00  0.00     0.086 A 
HETATM   29  C   UNL     1     -45.381  60.457 -53.782  1.00  0.00     0.041 A 
HETATM   30  C   UNL     1     -45.768  60.919 -55.061  1.00  0.00     0.040 A 
BRANCH  28  31
HETATM   31  C   UNL     1     -43.476  58.814 -53.104  1.00  0.00    -0.002 A 
HETATM   32  C   UNL     1     -44.021  58.216 -51.959  1.00  0.00     0.016 A 
HETATM   33  C   UNL     1     -43.226  57.430 -51.118  1.00  0.00     0.024 A 
HETATM   34  C   UNL     1     -41.883  57.229 -51.427  1.00  0.00     0.034 A 
HETATM   35 CL   UNL     1     -40.898  56.272 -50.391  1.00  0.00    -0.084 Cl
HETATM   36  C   UNL     1     -41.328  57.806 -52.567  1.00  0.00     0.024 A 
HETATM   37  C   UNL     1     -42.121  58.601 -53.398  1.00  0.00     0.016 A 
ENDBRANCH  28  31
ENDBRANCH  25  26
ENDBRANCH  21  24
ENDBRANCH   1  20
TORSDOF 7
ENDMDL
MODEL 7
REMARK VINA RESULT:      -8.4      1.387      2.069
REMARK  7 active torsions:
REMARK  status: ('A' for Active; 'I' for Inactive)
REMARK    1  A    between atoms: N_6  and  C_7 
REMARK    2  A    between atoms: C_11  and  N_12 
REMARK    3  A    between atoms: N_12  and  C_13 
REMARK    4  A    between atoms: C_13  and  N_14 
REMARK       I    between atoms: N_14  and  C_15 
REMARK    5  A    between atoms: C_15  and  C_16 
REMARK    6  A    between atoms: C_17  and  C_18 
REMARK    7  A    between atoms: C_20  and  C_21 
ROOT
HETATM    1  C   UNL     1     -43.885  56.241 -54.161  1.00  0.00     0.179 C 
HETATM    2  S   UNL     1     -43.457  54.681 -54.578  1.00  0.00    -0.040 SA
ENDROOT
BRANCH   1   3
HETATM    3  N   UNL     1     -43.570  57.204 -55.083  1.00  0.00    -0.333 N 
HETATM    4  H   UNL     1     -42.670  57.629 -54.869  1.00  0.00     0.168 HD
BRANCH   3   5
HETATM    5  C   UNL     1     -44.273  57.796 -56.151  1.00  0.00     0.036 A 
HETATM    6  C   UNL     1     -44.005  57.285 -57.424  1.00  0.00     0.055 A 
HETATM    7  C   UNL     1     -44.579  57.855 -58.566  1.00  0.00     0.062 A 
HETATM    8  C   UNL     1     -45.460  58.956 -58.481  1.00  0.00     0.052 A 
HETATM    9 CL   UNL     1     -44.050  57.225 -60.097  1.00  0.00    -0.082 Cl
HETATM   10  C   UNL     1     -45.724  59.446 -57.193  1.00  0.00     0.033 A 
HETATM   11  C   UNL     1     -45.134  58.886 -56.046  1.00  0.00     0.032 A 
BRANCH   8  12
HETATM   12  N   UNL     1     -45.985  59.571 -59.616  1.00  0.00    -0.376 N 
HETATM   13  C   UNL     1     -47.326  59.163 -60.068  1.00  0.00     0.150 C 
HETATM   14  C   UNL     1     -47.381  59.263 -61.608  1.00  0.00     0.254 C 
HETATM   15  N   UNL     1     -46.997  60.676 -62.071  1.00  0.00    -0.072 N 
HETATM   16  C   UNL     1     -47.011  60.786 -63.567  1.00  0.00     0.269 C 
HETATM   17  H   UNL     1     -47.708  61.318 -61.700  1.00  0.00     0.279 HD
HETATM   18  C   UNL     1     -45.647  61.113 -61.492  1.00  0.00     0.254 C 
HETATM   19  C   UNL     1     -45.615  60.950 -59.954  1.00  0.00     0.150 C 
ENDBRANCH   8  12
ENDBRANCH   3   5
ENDBRANCH   1   3
BRANCH   1  20
HETATM   20  N   UNL     1     -44.571  56.655 -53.035  1.00  0.00    -0.300 N 
HETATM   21  C   UNL     1     -44.257  57.302 -51.849  1.00  0.00     0.247 C 
HETATM   22  O   UNL     1     -44.933  57.063 -50.851  1.00  0.00    -0.268 OA
HETATM   23  H   UNL     1     -45.393  56.091 -52.866  1.00  0.00     0.171 HD
BRANCH  21  24
HETATM   24  C   UNL     1     -43.112  58.240 -51.813  1.00  0.00     0.077 C 
HETATM   25  C   UNL     1     -41.845  57.896 -51.539  1.00  0.00     0.042 C 
BRANCH  25  26
HETATM   26  C   UNL     1     -41.441  56.601 -51.128  1.00  0.00     0.076 A 
HETATM   27  O   UNL     1     -41.101  55.586 -51.995  1.00  0.00    -0.310 OA
HETATM   28  C   UNL     1     -40.782  54.481 -51.261  1.00  0.00     0.086 A 
HETATM   29  C   UNL     1     -40.912  54.760 -49.920  1.00  0.00     0.041 A 
HETATM   30  C   UNL     1     -41.357  56.099 -49.836  1.00  0.00     0.040 A 
BRANCH  28  31
HETATM   31  C   UNL     1     -40.390  53.300 -52.013  1.00  0.00    -0.002 A 
HETATM   32  C   UNL     1     -39.845  52.187 -51.355  1.00  0.00     0.016 A 
HETATM   33  C   UNL     1     -39.483  51.042 -52.071  1.00  0.00     0.024 A 
HETATM   34  C   UNL     1     -39.675  51.000 -53.451  1.00  0.00     0.034 A 
HETATM   35 CL   UNL     1     -39.221  49.598 -54.338  1.00  0.00    -0.084 Cl
HETATM   36  C   UNL     1     -40.224  52.091 -54.119  1.00  0.00     0.024 A 
HETATM   37  C   UNL     1     -40.574  53.239 -53.402  1.00  0.00     0.016 A 
ENDBRANCH  28  31
ENDBRANCH  25  26
ENDBRANCH  21  24
ENDBRANCH   1  20
TORSDOF 7
ENDMDL
MODEL 8
REMARK VINA RESULT:      -8.2      4.578      8.215
REMARK  7 active torsions:
REMARK  status: ('A' for Active; 'I' for Inactive)
REMARK    1  A    between atoms: N_6  and  C_7 
REMARK    2  A    between atoms: C_11  and  N_12 
REMARK    3  A    between atoms: N_12  and  C_13 
REMARK    4  A    between atoms: C_13  and  N_14 
REMARK       I    between atoms: N_14  and  C_15 
REMARK    5  A    between atoms: C_15  and  C_16 
REMARK    6  A    between atoms: C_17  and  C_18 
REMARK    7  A    between atoms: C_20  and  C_21 
ROOT
HETATM    1  C   UNL     1     -40.629  53.909 -51.671  1.00  0.00     0.179 C 
HETATM    2  S   UNL     1     -40.172  52.449 -51.001  1.00  0.00    -0.040 SA
ENDROOT
BRANCH   1   3
HETATM    3  N   UNL     1     -41.324  54.746 -50.838  1.00  0.00    -0.333 N 
HETATM    4  H   UNL     1     -41.197  54.475 -49.865  1.00  0.00     0.168 HD
BRANCH   3   5
HETATM    5  C   UNL     1     -42.250  55.786 -51.054  1.00  0.00     0.036 A 
HETATM    6  C   UNL     1     -41.711  57.034 -51.376  1.00  0.00     0.055 A 
HETATM    7  C   UNL     1     -42.532  58.158 -51.526  1.00  0.00     0.062 A 
HETATM    8  C   UNL     1     -43.934  58.076 -51.374  1.00  0.00     0.052 A 
HETATM    9 CL   UNL     1     -41.729  59.678 -51.776  1.00  0.00    -0.082 Cl
HETATM   10  C   UNL     1     -44.455  56.811 -51.061  1.00  0.00     0.033 A 
HETATM   11  C   UNL     1     -43.630  55.684 -50.892  1.00  0.00     0.032 A 
BRANCH   8  12
HETATM   12  N   UNL     1     -44.754  59.200 -51.456  1.00  0.00    -0.376 N 
HETATM   13  C   UNL     1     -45.287  59.574 -52.777  1.00  0.00     0.150 C 
HETATM   14  C   UNL     1     -45.414  61.111 -52.844  1.00  0.00     0.254 C 
HETATM   15  N   UNL     1     -46.272  61.632 -51.682  1.00  0.00    -0.072 N 
HETATM   16  C   UNL     1     -46.380  63.129 -51.708  1.00  0.00     0.269 C 
HETATM   17  H   UNL     1     -47.215  61.245 -51.806  1.00  0.00     0.279 HD
HETATM   18  C   UNL     1     -45.754  61.134 -50.328  1.00  0.00     0.254 C 
HETATM   19  C   UNL     1     -45.593  59.596 -50.319  1.00  0.00     0.150 C 
ENDBRANCH   8  12
ENDBRANCH   3   5
ENDBRANCH   1   3
BRANCH   1  20
HETATM   20  N   UNL     1     -40.332  54.388 -52.932  1.00  0.00    -0.300 N 
HETATM   21  C   UNL     1     -40.623  54.026 -54.239  1.00  0.00     0.247 C 
HETATM   22  O   UNL     1     -39.815  54.306 -55.122  1.00  0.00    -0.268 OA
HETATM   23  H   UNL     1     -39.458  54.898 -52.945  1.00  0.00     0.171 HD
BRANCH  21  24
HETATM   24  C   UNL     1     -41.879  53.298 -54.529  1.00  0.00     0.077 C 
HETATM   25  C   UNL     1     -42.964  53.836 -55.106  1.00  0.00     0.042 C 
BRANCH  25  26
HETATM   26  C   UNL     1     -43.104  55.212 -55.414  1.00  0.00     0.076 A 
HETATM   27  O   UNL     1     -42.742  55.776 -56.618  1.00  0.00    -0.310 OA
HETATM   28  C   UNL     1     -42.997  57.114 -56.561  1.00  0.00     0.086 A 
HETATM   29  C   UNL     1     -43.522  57.437 -55.330  1.00  0.00     0.041 A 
HETATM   30  C   UNL     1     -43.563  56.232 -54.592  1.00  0.00     0.040 A 
BRANCH  28  31
HETATM   31  C   UNL     1     -42.680  57.882 -57.755  1.00  0.00    -0.002 A 
HETATM   32  C   UNL     1     -42.878  57.331 -59.029  1.00  0.00     0.016 A 
HETATM   33  C   UNL     1     -42.591  58.072 -60.180  1.00  0.00     0.024 A 
HETATM   34  C   UNL     1     -42.114  59.376 -60.060  1.00  0.00     0.034 A 
HETATM   35 CL   UNL     1     -41.750  60.288 -61.472  1.00  0.00    -0.084 Cl
HETATM   36  C   UNL     1     -41.922  59.944 -58.803  1.00  0.00     0.024 A 
HETATM   37  C   UNL     1     -42.198  59.196 -57.655  1.00  0.00     0.016 A 
ENDBRANCH  28  31
ENDBRANCH  25  26
ENDBRANCH  21  24
ENDBRANCH   1  20
TORSDOF 7
ENDMDL
MODEL 9
REMARK VINA RESULT:      -8.1      1.883      2.449
REMARK  7 active torsions:
REMARK  status: ('A' for Active; 'I' for Inactive)
REMARK    1  A    between atoms: N_6  and  C_7 
REMARK    2  A    between atoms: C_11  and  N_12 
REMARK    3  A    between atoms: N_12  and  C_13 
REMARK    4  A    between atoms: C_13  and  N_14 
REMARK       I    between atoms: N_14  and  C_15 
REMARK    5  A    between atoms: C_15  and  C_16 
REMARK    6  A    between atoms: C_17  and  C_18 
REMARK    7  A    between atoms: C_20  and  C_21 
ROOT
HETATM    1  C   UNL     1     -43.794  56.872 -52.731  1.00  0.00     0.179 C 
HETATM    2  S   UNL     1     -44.455  56.781 -51.200  1.00  0.00    -0.040 SA
ENDROOT
BRANCH   1   3
HETATM    3  N   UNL     1     -44.694  57.033 -53.752  1.00  0.00    -0.333 N 
HETATM    4  H   UNL     1     -45.603  56.649 -53.497  1.00  0.00     0.168 HD
BRANCH   3   5
HETATM    5  C   UNL     1     -44.587  57.485 -55.082  1.00  0.00     0.036 A 
HETATM    6  C   UNL     1     -45.343  58.613 -55.412  1.00  0.00     0.055 A 
HETATM    7  C   UNL     1     -45.381  59.097 -56.725  1.00  0.00     0.062 A 
HETATM    8  C   UNL     1     -44.651  58.478 -57.764  1.00  0.00     0.052 A 
HETATM    9 CL   UNL     1     -46.473  60.413 -57.035  1.00  0.00    -0.082 Cl
HETATM   10  C   UNL     1     -43.892  57.353 -57.408  1.00  0.00     0.033 A 
HETATM   11  C   UNL     1     -43.866  56.854 -56.093  1.00  0.00     0.032 A 
BRANCH   8  12
HETATM   12  N   UNL     1     -44.734  58.912 -59.085  1.00  0.00    -0.376 N 
HETATM   13  C   UNL     1     -43.479  59.174 -59.809  1.00  0.00     0.150 C 
HETATM   14  C   UNL     1     -43.713  60.330 -60.805  1.00  0.00     0.254 C 
HETATM   15  N   UNL     1     -44.887  60.007 -61.741  1.00  0.00    -0.072 N 
HETATM   16  C   UNL     1     -45.154  61.133 -62.695  1.00  0.00     0.269 C 
HETATM   17  H   UNL     1     -44.616  59.183 -62.291  1.00  0.00     0.279 HD
HETATM   18  C   UNL     1     -46.149  59.630 -60.955  1.00  0.00     0.254 C 
HETATM   19  C   UNL     1     -45.860  58.505 -59.934  1.00  0.00     0.150 C 
ENDBRANCH   8  12
ENDBRANCH   3   5
ENDBRANCH   1   3
BRANCH   1  20
HETATM   20  N   UNL     1     -42.455  56.868 -53.074  1.00  0.00    -0.300 N 
HETATM   21  C   UNL     1     -41.325  57.587 -52.715  1.00  0.00     0.247 C 
HETATM   22  O   UNL     1     -40.424  57.720 -53.541  1.00  0.00    -0.268 OA
HETATM   23  H   UNL     1     -42.308  56.517 -54.011  1.00  0.00     0.171 HD
BRANCH  21  24
HETATM   24  C   UNL     1     -41.243  58.186 -51.364  1.00  0.00     0.077 C 
HETATM   25  C   UNL     1     -41.025  57.503 -50.231  1.00  0.00     0.042 C 
BRANCH  25  26
HETATM   26  C   UNL     1     -40.959  56.089 -50.152  1.00  0.00     0.076 A 
HETATM   27  O   UNL     1     -40.674  55.269 -51.222  1.00  0.00    -0.310 OA
HETATM   28  C   UNL     1     -40.711  53.974 -50.793  1.00  0.00     0.086 A 
HETATM   29  C   UNL     1     -41.020  53.936 -49.452  1.00  0.00     0.041 A 
HETATM   30  C   UNL     1     -41.205  55.279 -49.052  1.00  0.00     0.040 A 
BRANCH  28  31
HETATM   31  C   UNL     1     -40.427  52.956 -51.792  1.00  0.00    -0.002 A 
HETATM   32  C   UNL     1     -39.793  51.760 -51.428  1.00  0.00     0.016 A 
HETATM   33  C   UNL     1     -39.535  50.770 -52.381  1.00  0.00     0.024 A 
HETATM   34  C   UNL     1     -39.921  50.969 -53.705  1.00  0.00     0.034 A 
HETATM   35 CL   UNL     1     -39.596  49.759 -54.884  1.00  0.00    -0.084 Cl
HETATM   36  C   UNL     1     -40.562  52.146 -54.083  1.00  0.00     0.024 A 
HETATM   37  C   UNL     1     -40.808  53.138 -53.130  1.00  0.00     0.016 A 
ENDBRANCH  28  31
ENDBRANCH  25  26
ENDBRANCH  21  24
ENDBRANCH   1  20
TORSDOF 7
ENDMDL
MODEL 10
REMARK VINA RESULT:      -8.1      3.117      4.125
REMARK  7 active torsions:
REMARK  status: ('A' for Active; 'I' for Inactive)
REMARK    1  A    between atoms: N_6  and  C_7 
REMARK    2  A    between atoms: C_11  and  N_12 
REMARK    3  A    between atoms: N_12  and  C_13 
REMARK    4  A    between atoms: C_13  and  N_14 
REMARK       I    between atoms: N_14  and  C_15 
REMARK    5  A    between atoms: C_15  and  C_16 
REMARK    6  A    between atoms: C_17  and  C_18 
REMARK    7  A    between atoms: C_20  and  C_21 
ROOT
HETATM    1  C   UNL     1     -44.142  62.248 -52.461  1.00  0.00     0.179 C 
HETATM    2  S   UNL     1     -43.160  63.515 -51.992  1.00  0.00    -0.040 SA
ENDROOT
BRANCH   1   3
HETATM    3  N   UNL     1     -44.517  62.251 -53.779  1.00  0.00    -0.333 N 
HETATM    4  H   UNL     1     -45.039  63.095 -54.005  1.00  0.00     0.168 HD
BRANCH   3   5
HETATM    5  C   UNL     1     -44.444  61.298 -54.814  1.00  0.00     0.036 A 
HETATM    6  C   UNL     1     -44.983  60.040 -54.532  1.00  0.00     0.055 A 
HETATM    7  C   UNL     1     -44.887  58.991 -55.455  1.00  0.00     0.062 A 
HETATM    8  C   UNL     1     -44.257  59.162 -56.708  1.00  0.00     0.052 A 
HETATM    9 CL   UNL     1     -45.463  57.439 -54.926  1.00  0.00    -0.082 Cl
HETATM   10  C   UNL     1     -43.731  60.435 -56.973  1.00  0.00     0.033 A 
HETATM   11  C   UNL     1     -43.811  61.485 -56.041  1.00  0.00     0.032 A 
BRANCH   8  12
HETATM   12  N   UNL     1     -44.099  58.107 -57.605  1.00  0.00    -0.376 N 
HETATM   13  C   UNL     1     -44.743  58.217 -58.924  1.00  0.00     0.150 C 
HETATM   14  C   UNL     1     -45.165  56.807 -59.389  1.00  0.00     0.254 C 
HETATM   15  N   UNL     1     -43.959  55.855 -59.389  1.00  0.00    -0.072 N 
HETATM   16  C   UNL     1     -44.354  54.469 -59.805  1.00  0.00     0.269 C 
HETATM   17  H   UNL     1     -43.292  56.216 -60.081  1.00  0.00     0.279 HD
HETATM   18  C   UNL     1     -43.245  55.849 -58.032  1.00  0.00     0.254 C 
HETATM   19  C   UNL     1     -42.885  57.283 -57.580  1.00  0.00     0.150 C 
ENDBRANCH   8  12
ENDBRANCH   3   5
ENDBRANCH   1   3
BRANCH   1  20
HETATM   20  N   UNL     1     -44.561  61.176 -51.695  1.00  0.00    -0.300 N 
HETATM   21  C   UNL     1     -43.954  60.144 -50.995  1.00  0.00     0.247 C 
HETATM   22  O   UNL     1     -44.559  59.082 -50.869  1.00  0.00    -0.268 OA
HETATM   23  H   UNL     1     -45.485  60.862 -51.961  1.00  0.00     0.171 HD
BRANCH  21  24
HETATM   24  C   UNL     1     -42.595  60.341 -50.442  1.00  0.00     0.077 C 
HETATM   25  C   UNL     1     -41.461  59.908 -51.013  1.00  0.00     0.042 C 
BRANCH  25  26
HETATM   26  C   UNL     1     -41.412  59.095 -52.173  1.00  0.00     0.076 A 
HETATM   27  O   UNL     1     -41.209  57.733 -52.154  1.00  0.00    -0.310 OA
HETATM   28  C   UNL     1     -41.204  57.280 -53.440  1.00  0.00     0.086 A 
HETATM   29  C   UNL     1     -41.400  58.332 -54.305  1.00  0.00     0.041 A 
HETATM   30  C   UNL     1     -41.505  59.490 -53.501  1.00  0.00     0.040 A 
BRANCH  28  31
HETATM   31  C   UNL     1     -41.004  55.851 -53.620  1.00  0.00    -0.002 A 
HETATM   32  C   UNL     1     -40.593  55.340 -54.859  1.00  0.00     0.016 A 
HETATM   33  C   UNL     1     -40.383  53.968 -55.032  1.00  0.00     0.024 A 
HETATM   34  C   UNL     1     -40.573  53.100 -53.959  1.00  0.00     0.034 A 
HETATM   35 CL   UNL     1     -40.326  51.411 -54.168  1.00  0.00    -0.084 Cl
HETATM   36  C   UNL     1     -40.970  53.590 -52.717  1.00  0.00     0.024 A 
HETATM   37  C   UNL     1     -41.192  54.961 -52.551  1.00  0.00     0.016 A 
ENDBRANCH  28  31
ENDBRANCH  25  26
ENDBRANCH  21  24
ENDBRANCH   1  20
TORSDOF 7
ENDMDL
