MODEL 1
REMARK VINA RESULT:      -6.7      0.000      0.000
REMARK  3 active torsions:
REMARK  status: ('A' for Active; 'I' for Inactive)
REMARK    1  A    between atoms: C_4  and  N_5 
REMARK    2  A    between atoms: N_5  and  C_6 
REMARK    3  A    between atoms: C_14  and  C_15 
REMARK       I    between atoms: C_15  and  N_16 
ROOT
HETATM    1  C   UNL     1     -39.451  51.257 -53.494  1.00  0.00     0.020 A 
HETATM    2  C   UNL     1     -39.581  51.589 -52.159  1.00  0.00     0.119 A 
HETATM    3  N   UNL     1     -40.350  52.604 -51.708  1.00  0.00    -0.242 NA
HETATM    4  C   UNL     1     -41.028  53.362 -52.607  1.00  0.00     0.143 A 
HETATM    5  C   UNL     1     -40.958  53.072 -53.981  1.00  0.00     0.077 A 
HETATM    6  C   UNL     1     -40.154  52.012 -54.423  1.00  0.00     0.022 A 
ENDROOT
BRANCH   4   7
HETATM    7  N   UNL     1     -41.862  54.409 -52.149  1.00  0.00    -0.339 N 
HETATM    8  H   UNL     1     -42.775  54.365 -52.613  1.00  0.00     0.167 HD
BRANCH   7   9
HETATM    9  C   UNL     1     -41.515  55.722 -51.759  1.00  0.00     0.055 A 
HETATM   10  C   UNL     1     -41.271  56.030 -50.405  1.00  0.00     0.062 A 
HETATM   11 CL   UNL     1     -41.443  54.818 -49.180  1.00  0.00    -0.082 Cl
HETATM   12  C   UNL     1     -40.898  57.315 -50.005  1.00  0.00     0.050 A 
HETATM   13  C   UNL     1     -40.750  58.312 -50.962  1.00  0.00     0.035 A 
HETATM   14 CL   UNL     1     -40.284  59.898 -50.482  1.00  0.00    -0.084 Cl
HETATM   15  C   UNL     1     -40.969  58.035 -52.308  1.00  0.00     0.026 A 
HETATM   16  C   UNL     1     -41.347  56.747 -52.700  1.00  0.00     0.033 A 
ENDBRANCH   7   9
ENDBRANCH   4   7
BRANCH   5  17
HETATM   17  C   UNL     1     -41.685  53.909 -54.963  1.00  0.00     0.253 C 
HETATM   18  N   UNL     1     -40.932  54.693 -55.794  1.00  0.00    -0.366 N 
HETATM   19  H   UNL     1     -39.939  54.556 -55.917  1.00  0.00     0.159 HD
HETATM   20  H   UNL     1     -41.433  55.171 -56.534  1.00  0.00     0.159 HD
HETATM   21  O   UNL     1     -42.907  53.890 -55.038  1.00  0.00    -0.268 OA
ENDBRANCH   5  17
TORSDOF 3
ENDMDL
MODEL 2
REMARK VINA RESULT:      -6.7      2.775      5.603
REMARK  3 active torsions:
REMARK  status: ('A' for Active; 'I' for Inactive)
REMARK    1  A    between atoms: C_4  and  N_5 
REMARK    2  A    between atoms: N_5  and  C_6 
REMARK    3  A    between atoms: C_14  and  C_15 
REMARK       I    between atoms: C_15  and  N_16 
ROOT
HETATM    1  C   UNL     1     -41.456  59.680 -51.234  1.00  0.00     0.020 A 
HETATM    2  C   UNL     1     -40.437  58.832 -50.848  1.00  0.00     0.119 A 
HETATM    3  N   UNL     1     -40.589  57.498 -50.689  1.00  0.00    -0.242 NA
HETATM    4  C   UNL     1     -41.811  56.947 -50.902  1.00  0.00     0.143 A 
HETATM    5  C   UNL     1     -42.890  57.747 -51.315  1.00  0.00     0.077 A 
HETATM    6  C   UNL     1     -42.707  59.127 -51.474  1.00  0.00     0.022 A 
ENDROOT
BRANCH   4   7
HETATM    7  N   UNL     1     -41.978  55.549 -50.770  1.00  0.00    -0.339 N 
HETATM    8  H   UNL     1     -42.147  55.303 -49.789  1.00  0.00     0.167 HD
BRANCH   7   9
HETATM    9  C   UNL     1     -41.360  54.503 -51.492  1.00  0.00     0.055 A 
HETATM   10  C   UNL     1     -40.333  53.734 -50.908  1.00  0.00     0.062 A 
HETATM   11 CL   UNL     1     -39.765  54.089 -49.311  1.00  0.00    -0.082 Cl
HETATM   12  C   UNL     1     -39.732  52.677 -51.595  1.00  0.00     0.050 A 
HETATM   13  C   UNL     1     -40.164  52.365 -52.880  1.00  0.00     0.035 A 
HETATM   14 CL   UNL     1     -39.435  51.060 -53.734  1.00  0.00    -0.084 Cl
HETATM   15  C   UNL     1     -41.186  53.096 -53.477  1.00  0.00     0.026 A 
HETATM   16  C   UNL     1     -41.779  54.156 -52.784  1.00  0.00     0.033 A 
ENDBRANCH   7   9
ENDBRANCH   4   7
BRANCH   5  17
HETATM   17  C   UNL     1     -44.228  57.148 -51.532  1.00  0.00     0.253 C 
HETATM   18  N   UNL     1     -44.604  56.910 -52.825  1.00  0.00    -0.366 N 
HETATM   19  H   UNL     1     -43.945  56.910 -53.591  1.00  0.00     0.159 HD
HETATM   20  H   UNL     1     -45.468  56.397 -52.954  1.00  0.00     0.159 HD
HETATM   21  O   UNL     1     -44.960  56.864 -50.592  1.00  0.00    -0.268 OA
ENDBRANCH   5  17
TORSDOF 3
ENDMDL
MODEL 3
REMARK VINA RESULT:      -6.5      3.016      5.384
REMARK  3 active torsions:
REMARK  status: ('A' for Active; 'I' for Inactive)
REMARK    1  A    between atoms: C_4  and  N_5 
REMARK    2  A    between atoms: N_5  and  C_6 
REMARK    3  A    between atoms: C_14  and  C_15 
REMARK       I    between atoms: C_15  and  N_16 
ROOT
HETATM    1  C   UNL     1     -44.508  57.453 -52.139  1.00  0.00     0.020 A 
HETATM    2  C   UNL     1     -43.597  57.136 -51.151  1.00  0.00     0.119 A 
HETATM    3  N   UNL     1     -42.469  56.423 -51.368  1.00  0.00    -0.242 NA
HETATM    4  C   UNL     1     -42.210  55.972 -52.622  1.00  0.00     0.143 A 
HETATM    5  C   UNL     1     -43.083  56.273 -53.682  1.00  0.00     0.077 A 
HETATM    6  C   UNL     1     -44.246  57.015 -53.430  1.00  0.00     0.022 A 
ENDROOT
BRANCH   4   7
HETATM    7  N   UNL     1     -41.019  55.252 -52.871  1.00  0.00    -0.339 N 
HETATM    8  H   UNL     1     -40.666  55.464 -53.811  1.00  0.00     0.167 HD
BRANCH   7   9
HETATM    9  C   UNL     1     -40.645  53.963 -52.430  1.00  0.00     0.055 A 
HETATM   10  C   UNL     1     -40.219  52.983 -53.350  1.00  0.00     0.062 A 
HETATM   11 CL   UNL     1     -40.196  53.319 -55.049  1.00  0.00    -0.082 Cl
HETATM   12  C   UNL     1     -39.817  51.713 -52.930  1.00  0.00     0.050 A 
HETATM   13  C   UNL     1     -39.822  51.410 -51.573  1.00  0.00     0.035 A 
HETATM   14 CL   UNL     1     -39.323  49.851 -51.042  1.00  0.00    -0.084 Cl
HETATM   15  C   UNL     1     -40.223  52.361 -50.640  1.00  0.00     0.026 A 
HETATM   16  C   UNL     1     -40.629  53.629 -51.069  1.00  0.00     0.033 A 
ENDBRANCH   7   9
ENDBRANCH   4   7
BRANCH   5  17
HETATM   17  C   UNL     1     -42.809  55.767 -55.046  1.00  0.00     0.253 C 
HETATM   18  N   UNL     1     -43.626  54.778 -55.522  1.00  0.00    -0.366 N 
HETATM   19  H   UNL     1     -44.511  54.551 -55.092  1.00  0.00     0.159 HD
HETATM   20  H   UNL     1     -43.501  54.523 -56.495  1.00  0.00     0.159 HD
HETATM   21  O   UNL     1     -41.899  56.224 -55.727  1.00  0.00    -0.268 OA
ENDBRANCH   5  17
TORSDOF 3
ENDMDL
MODEL 4
REMARK VINA RESULT:      -6.4      2.702      5.591
REMARK  3 active torsions:
REMARK  status: ('A' for Active; 'I' for Inactive)
REMARK    1  A    between atoms: C_4  and  N_5 
REMARK    2  A    between atoms: N_5  and  C_6 
REMARK    3  A    between atoms: C_14  and  C_15 
REMARK       I    between atoms: C_15  and  N_16 
ROOT
HETATM    1  C   UNL     1     -44.279  57.160 -54.871  1.00  0.00     0.020 A 
HETATM    2  C   UNL     1     -43.117  56.853 -55.551  1.00  0.00     0.119 A 
HETATM    3  N   UNL     1     -42.042  56.267 -54.978  1.00  0.00    -0.242 NA
HETATM    4  C   UNL     1     -42.085  55.972 -53.654  1.00  0.00     0.143 A 
HETATM    5  C   UNL     1     -43.242  56.239 -52.901  1.00  0.00     0.077 A 
HETATM    6  C   UNL     1     -44.344  56.845 -53.520  1.00  0.00     0.022 A 
ENDROOT
BRANCH   4   7
HETATM    7  N   UNL     1     -40.980  55.331 -53.046  1.00  0.00    -0.339 N 
HETATM    8  H   UNL     1     -40.173  55.965 -53.018  1.00  0.00     0.167 HD
BRANCH   7   9
HETATM    9  C   UNL     1     -40.599  53.972 -53.092  1.00  0.00     0.055 A 
HETATM   10  C   UNL     1     -40.242  53.284 -51.913  1.00  0.00     0.062 A 
HETATM   11 CL   UNL     1     -40.210  54.105 -50.389  1.00  0.00    -0.082 Cl
HETATM   12  C   UNL     1     -39.892  51.932 -51.935  1.00  0.00     0.050 A 
HETATM   13  C   UNL     1     -39.908  51.242 -53.142  1.00  0.00     0.035 A 
HETATM   14 CL   UNL     1     -39.485  49.574 -53.181  1.00  0.00    -0.084 Cl
HETATM   15  C   UNL     1     -40.271  51.890 -54.319  1.00  0.00     0.026 A 
HETATM   16  C   UNL     1     -40.615  53.244 -54.290  1.00  0.00     0.033 A 
ENDBRANCH   7   9
ENDBRANCH   4   7
BRANCH   5  17
HETATM   17  C   UNL     1     -43.283  55.931 -51.453  1.00  0.00     0.253 C 
HETATM   18  N   UNL     1     -43.081  56.971 -50.588  1.00  0.00    -0.366 N 
HETATM   19  H   UNL     1     -43.134  57.937 -50.878  1.00  0.00     0.159 HD
HETATM   20  H   UNL     1     -43.225  56.771 -49.605  1.00  0.00     0.159 HD
HETATM   21  O   UNL     1     -43.503  54.797 -51.046  1.00  0.00    -0.268 OA
ENDBRANCH   5  17
TORSDOF 3
ENDMDL
MODEL 5
REMARK VINA RESULT:      -6.3      2.813      5.441
REMARK  3 active torsions:
REMARK  status: ('A' for Active; 'I' for Inactive)
REMARK    1  A    between atoms: C_4  and  N_5 
REMARK    2  A    between atoms: N_5  and  C_6 
REMARK    3  A    between atoms: C_14  and  C_15 
REMARK       I    between atoms: C_15  and  N_16 
ROOT
HETATM    1  C   UNL     1     -44.719  57.574 -51.575  1.00  0.00     0.020 A 
HETATM    2  C   UNL     1     -44.306  56.490 -50.826  1.00  0.00     0.119 A 
HETATM    3  N   UNL     1     -43.117  55.870 -50.992  1.00  0.00    -0.242 NA
HETATM    4  C   UNL     1     -42.275  56.315 -51.958  1.00  0.00     0.143 A 
HETATM    5  C   UNL     1     -42.620  57.426 -52.748  1.00  0.00     0.077 A 
HETATM    6  C   UNL     1     -43.858  58.053 -52.555  1.00  0.00     0.022 A 
ENDROOT
BRANCH   4   7
HETATM    7  N   UNL     1     -41.014  55.696 -52.124  1.00  0.00    -0.339 N 
HETATM    8  H   UNL     1     -40.297  56.400 -52.330  1.00  0.00     0.167 HD
BRANCH   7   9
HETATM    9  C   UNL     1     -40.705  54.432 -52.673  1.00  0.00     0.055 A 
HETATM   10  C   UNL     1     -40.252  53.380 -51.849  1.00  0.00     0.062 A 
HETATM   11 CL   UNL     1     -40.012  53.631 -50.153  1.00  0.00    -0.082 Cl
HETATM   12  C   UNL     1     -39.970  52.115 -52.370  1.00  0.00     0.050 A 
HETATM   13  C   UNL     1     -40.152  51.879 -53.728  1.00  0.00     0.035 A 
HETATM   14 CL   UNL     1     -39.814  50.323 -54.380  1.00  0.00    -0.084 Cl
HETATM   15  C   UNL     1     -40.612  52.893 -54.563  1.00  0.00     0.026 A 
HETATM   16  C   UNL     1     -40.888  54.158 -54.036  1.00  0.00     0.033 A 
ENDBRANCH   7   9
ENDBRANCH   4   7
BRANCH   5  17
HETATM   17  C   UNL     1     -41.708  57.901 -53.814  1.00  0.00     0.253 C 
HETATM   18  N   UNL     1     -42.140  57.781 -55.106  1.00  0.00    -0.366 N 
HETATM   19  H   UNL     1     -43.107  57.604 -55.341  1.00  0.00     0.159 HD
HETATM   20  H   UNL     1     -41.559  58.214 -55.815  1.00  0.00     0.159 HD
HETATM   21  O   UNL     1     -40.619  58.396 -53.549  1.00  0.00    -0.268 OA
ENDBRANCH   5  17
TORSDOF 3
ENDMDL
MODEL 6
REMARK VINA RESULT:      -6.1     14.273     16.733
REMARK  3 active torsions:
REMARK  status: ('A' for Active; 'I' for Inactive)
REMARK    1  A    between atoms: C_4  and  N_5 
REMARK    2  A    between atoms: N_5  and  C_6 
REMARK    3  A    between atoms: C_14  and  C_15 
REMARK       I    between atoms: C_15  and  N_16 
ROOT
HETATM    1  C   UNL     1     -37.226  41.841 -57.461  1.00  0.00     0.020 A 
HETATM    2  C   UNL     1     -35.959  41.550 -57.927  1.00  0.00     0.119 A 
HETATM    3  N   UNL     1     -34.870  41.450 -57.133  1.00  0.00    -0.242 NA
HETATM    4  C   UNL     1     -35.010  41.661 -55.800  1.00  0.00     0.143 A 
HETATM    5  C   UNL     1     -36.273  41.943 -55.252  1.00  0.00     0.077 A 
HETATM    6  C   UNL     1     -37.387  42.040 -56.096  1.00  0.00     0.022 A 
ENDROOT
BRANCH   4   7
HETATM    7  N   UNL     1     -33.886  41.530 -54.952  1.00  0.00    -0.339 N 
HETATM    8  H   UNL     1     -33.459  42.448 -54.783  1.00  0.00     0.167 HD
BRANCH   7   9
HETATM    9  C   UNL     1     -32.952  40.474 -54.863  1.00  0.00     0.055 A 
HETATM   10  C   UNL     1     -32.958  39.599 -53.757  1.00  0.00     0.062 A 
HETATM   11 CL   UNL     1     -34.075  39.832 -52.455  1.00  0.00    -0.082 Cl
HETATM   12  C   UNL     1     -32.062  38.532 -53.666  1.00  0.00     0.050 A 
HETATM   13  C   UNL     1     -31.151  38.316 -54.694  1.00  0.00     0.035 A 
HETATM   14 CL   UNL     1     -30.045  37.000 -54.596  1.00  0.00    -0.084 Cl
HETATM   15  C   UNL     1     -31.131  39.153 -55.805  1.00  0.00     0.026 A 
HETATM   16  C   UNL     1     -32.028  40.223 -55.886  1.00  0.00     0.033 A 
ENDBRANCH   7   9
ENDBRANCH   4   7
BRANCH   5  17
HETATM   17  C   UNL     1     -36.423  42.190 -53.799  1.00  0.00     0.253 C 
HETATM   18  N   UNL     1     -37.504  41.628 -53.177  1.00  0.00    -0.366 N 
HETATM   19  H   UNL     1     -38.053  40.893 -53.602  1.00  0.00     0.159 HD
HETATM   20  H   UNL     1     -37.532  41.707 -52.168  1.00  0.00     0.159 HD
HETATM   21  O   UNL     1     -35.605  42.856 -53.176  1.00  0.00    -0.268 OA
ENDBRANCH   5  17
TORSDOF 3
ENDMDL
MODEL 7
REMARK VINA RESULT:      -6.1      3.261      5.978
REMARK  3 active torsions:
REMARK  status: ('A' for Active; 'I' for Inactive)
REMARK    1  A    between atoms: C_4  and  N_5 
REMARK    2  A    between atoms: N_5  and  C_6 
REMARK    3  A    between atoms: C_14  and  C_15 
REMARK       I    between atoms: C_15  and  N_16 
ROOT
HETATM    1  C   UNL     1     -44.658  58.609 -54.424  1.00  0.00     0.020 A 
HETATM    2  C   UNL     1     -44.406  57.351 -54.935  1.00  0.00     0.119 A 
HETATM    3  N   UNL     1     -43.228  56.703 -54.793  1.00  0.00    -0.242 NA
HETATM    4  C   UNL     1     -42.219  57.318 -54.125  1.00  0.00     0.143 A 
HETATM    5  C   UNL     1     -42.409  58.591 -53.561  1.00  0.00     0.077 A 
HETATM    6  C   UNL     1     -43.640  59.241 -53.722  1.00  0.00     0.022 A 
ENDROOT
BRANCH   4   7
HETATM    7  N   UNL     1     -40.991  56.641 -53.942  1.00  0.00    -0.339 N 
HETATM    8  H   UNL     1     -40.229  57.157 -54.396  1.00  0.00     0.167 HD
BRANCH   7   9
HETATM    9  C   UNL     1     -40.737  55.253 -53.870  1.00  0.00     0.055 A 
HETATM   10  C   UNL     1     -40.958  54.542 -52.673  1.00  0.00     0.062 A 
HETATM   11 CL   UNL     1     -41.494  55.363 -51.245  1.00  0.00    -0.082 Cl
HETATM   12  C   UNL     1     -40.742  53.164 -52.592  1.00  0.00     0.050 A 
HETATM   13  C   UNL     1     -40.312  52.473 -53.719  1.00  0.00     0.035 A 
HETATM   14 CL   UNL     1     -40.048  50.774 -53.634  1.00  0.00    -0.084 Cl
HETATM   15  C   UNL     1     -40.100  53.145 -54.919  1.00  0.00     0.026 A 
HETATM   16  C   UNL     1     -40.314  54.525 -54.991  1.00  0.00     0.033 A 
ENDBRANCH   7   9
ENDBRANCH   4   7
BRANCH   5  17
HETATM   17  C   UNL     1     -41.302  59.268 -52.847  1.00  0.00     0.253 C 
HETATM   18  N   UNL     1     -41.590  59.821 -51.630  1.00  0.00    -0.366 N 
HETATM   19  H   UNL     1     -42.430  59.596 -51.116  1.00  0.00     0.159 HD
HETATM   20  H   UNL     1     -40.802  60.179 -51.102  1.00  0.00     0.159 HD
HETATM   21  O   UNL     1     -40.173  59.318 -53.319  1.00  0.00    -0.268 OA
ENDBRANCH   5  17
TORSDOF 3
ENDMDL
MODEL 8
REMARK VINA RESULT:      -6.0      3.187      5.738
REMARK  3 active torsions:
REMARK  status: ('A' for Active; 'I' for Inactive)
REMARK    1  A    between atoms: C_4  and  N_5 
REMARK    2  A    between atoms: N_5  and  C_6 
REMARK    3  A    between atoms: C_14  and  C_15 
REMARK       I    between atoms: C_15  and  N_16 
ROOT
HETATM    1  C   UNL     1     -44.837  57.438 -54.814  1.00  0.00     0.020 A 
HETATM    2  C   UNL     1     -43.872  56.815 -55.579  1.00  0.00     0.119 A 
HETATM    3  N   UNL     1     -42.690  56.377 -55.090  1.00  0.00    -0.242 NA
HETATM    4  C   UNL     1     -42.415  56.569 -53.774  1.00  0.00     0.143 A 
HETATM    5  C   UNL     1     -43.358  57.180 -52.930  1.00  0.00     0.077 A 
HETATM    6  C   UNL     1     -44.577  57.624 -53.462  1.00  0.00     0.022 A 
ENDROOT
BRANCH   4   7
HETATM    7  N   UNL     1     -41.196  56.090 -53.240  1.00  0.00    -0.339 N 
HETATM    8  H   UNL     1     -40.402  56.505 -53.740  1.00  0.00     0.167 HD
BRANCH   7   9
HETATM    9  C   UNL     1     -40.894  54.818 -52.705  1.00  0.00     0.055 A 
HETATM   10  C   UNL     1     -40.412  53.784 -53.535  1.00  0.00     0.062 A 
HETATM   11 CL   UNL     1     -40.233  54.032 -55.239  1.00  0.00    -0.082 Cl
HETATM   12  C   UNL     1     -40.080  52.529 -53.018  1.00  0.00     0.050 A 
HETATM   13  C   UNL     1     -40.211  52.296 -51.654  1.00  0.00     0.035 A 
HETATM   14 CL   UNL     1     -39.799  50.756 -51.005  1.00  0.00    -0.084 Cl
HETATM   15  C   UNL     1     -40.669  53.302 -50.808  1.00  0.00     0.026 A 
HETATM   16  C   UNL     1     -41.005  54.553 -51.333  1.00  0.00     0.033 A 
ENDBRANCH   7   9
ENDBRANCH   4   7
BRANCH   5  17
HETATM   17  C   UNL     1     -43.050  57.405 -51.499  1.00  0.00     0.253 C 
HETATM   18  N   UNL     1     -43.860  56.793 -50.582  1.00  0.00    -0.366 N 
HETATM   19  H   UNL     1     -44.490  56.042 -50.829  1.00  0.00     0.159 HD
HETATM   20  H   UNL     1     -43.572  56.860 -49.613  1.00  0.00     0.159 HD
HETATM   21  O   UNL     1     -42.101  58.096 -51.150  1.00  0.00    -0.268 OA
ENDBRANCH   5  17
TORSDOF 3
ENDMDL
MODEL 9
REMARK VINA RESULT:      -6.0     14.238     16.226
REMARK  3 active torsions:
REMARK  status: ('A' for Active; 'I' for Inactive)
REMARK    1  A    between atoms: C_4  and  N_5 
REMARK    2  A    between atoms: N_5  and  C_6 
REMARK    3  A    between atoms: C_14  and  C_15 
REMARK       I    between atoms: C_15  and  N_16 
ROOT
HETATM    1  C   UNL     1     -34.450  41.716 -56.903  1.00  0.00     0.020 A 
HETATM    2  C   UNL     1     -33.807  40.515 -56.676  1.00  0.00     0.119 A 
HETATM    3  N   UNL     1     -33.879  39.830 -55.513  1.00  0.00    -0.242 NA
HETATM    4  C   UNL     1     -34.609  40.348 -54.493  1.00  0.00     0.143 A 
HETATM    5  C   UNL     1     -35.306  41.557 -54.657  1.00  0.00     0.077 A 
HETATM    6  C   UNL     1     -35.216  42.247 -55.874  1.00  0.00     0.022 A 
ENDROOT
BRANCH   4   7
HETATM    7  N   UNL     1     -34.720  39.629 -53.280  1.00  0.00    -0.339 N 
HETATM    8  H   UNL     1     -35.703  39.410 -53.085  1.00  0.00     0.167 HD
BRANCH   7   9
HETATM    9  C   UNL     1     -33.946  39.737 -52.103  1.00  0.00     0.055 A 
HETATM   10  C   UNL     1     -34.565  39.786 -50.837  1.00  0.00     0.062 A 
HETATM   11 CL   UNL     1     -36.290  39.768 -50.697  1.00  0.00    -0.082 Cl
HETATM   12  C   UNL     1     -33.815  39.862 -49.661  1.00  0.00     0.050 A 
HETATM   13  C   UNL     1     -32.426  39.878 -49.736  1.00  0.00     0.035 A 
HETATM   14 CL   UNL     1     -31.491  39.966 -48.293  1.00  0.00    -0.084 Cl
HETATM   15  C   UNL     1     -31.787  39.816 -50.970  1.00  0.00     0.026 A 
HETATM   16  C   UNL     1     -32.545  39.744 -52.143  1.00  0.00     0.033 A 
ENDBRANCH   7   9
ENDBRANCH   4   7
BRANCH   5  17
HETATM   17  C   UNL     1     -36.089  42.130 -53.538  1.00  0.00     0.253 C 
HETATM   18  N   UNL     1     -37.439  41.908 -53.541  1.00  0.00    -0.366 N 
HETATM   19  H   UNL     1     -37.872  41.205 -54.124  1.00  0.00     0.159 HD
HETATM   20  H   UNL     1     -37.944  42.205 -52.714  1.00  0.00     0.159 HD
HETATM   21  O   UNL     1     -35.550  42.763 -52.638  1.00  0.00    -0.268 OA
ENDBRANCH   5  17
TORSDOF 3
ENDMDL
MODEL 10
REMARK VINA RESULT:      -5.9     14.551     15.900
REMARK  3 active torsions:
REMARK  status: ('A' for Active; 'I' for Inactive)
REMARK    1  A    between atoms: C_4  and  N_5 
REMARK    2  A    between atoms: N_5  and  C_6 
REMARK    3  A    between atoms: C_14  and  C_15 
REMARK       I    between atoms: C_15  and  N_16 
ROOT
HETATM    1  C   UNL     1     -34.064  41.173 -50.996  1.00  0.00     0.020 A 
HETATM    2  C   UNL     1     -33.405  40.768 -52.140  1.00  0.00     0.119 A 
HETATM    3  N   UNL     1     -34.030  40.294 -53.241  1.00  0.00    -0.242 NA
HETATM    4  C   UNL     1     -35.384  40.189 -53.231  1.00  0.00     0.143 A 
HETATM    5  C   UNL     1     -36.123  40.600 -52.108  1.00  0.00     0.077 A 
HETATM    6  C   UNL     1     -35.450  41.089 -50.980  1.00  0.00     0.022 A 
ENDROOT
BRANCH   4   7
HETATM    7  N   UNL     1     -36.055  39.725 -54.386  1.00  0.00    -0.339 N 
HETATM    8  H   UNL     1     -35.887  38.721 -54.515  1.00  0.00     0.167 HD
BRANCH   7   9
HETATM    9  C   UNL     1     -36.302  40.393 -55.606  1.00  0.00     0.055 A 
HETATM   10  C   UNL     1     -35.702  39.951 -56.803  1.00  0.00     0.062 A 
HETATM   11 CL   UNL     1     -34.605  38.611 -56.798  1.00  0.00    -0.082 Cl
HETATM   12  C   UNL     1     -35.958  40.581 -58.024  1.00  0.00     0.050 A 
HETATM   13  C   UNL     1     -36.835  41.659 -58.064  1.00  0.00     0.035 A 
HETATM   14 CL   UNL     1     -37.163  42.440 -59.563  1.00  0.00    -0.084 Cl
HETATM   15  C   UNL     1     -37.453  42.109 -56.902  1.00  0.00     0.026 A 
HETATM   16  C   UNL     1     -37.188  41.476 -55.683  1.00  0.00     0.033 A 
ENDBRANCH   7   9
ENDBRANCH   4   7
BRANCH   5  17
HETATM   17  C   UNL     1     -37.598  40.469 -52.092  1.00  0.00     0.253 C 
HETATM   18  N   UNL     1     -38.328  41.604 -52.319  1.00  0.00    -0.366 N 
HETATM   19  H   UNL     1     -37.922  42.442 -52.709  1.00  0.00     0.159 HD
HETATM   20  H   UNL     1     -39.329  41.480 -52.419  1.00  0.00     0.159 HD
HETATM   21  O   UNL     1     -38.142  39.389 -51.899  1.00  0.00    -0.268 OA
ENDBRANCH   5  17
TORSDOF 3
ENDMDL
