MODEL 1
REMARK VINA RESULT:      -8.9      0.000      0.000
REMARK  6 active torsions:
REMARK  status: ('A' for Active; 'I' for Inactive)
REMARK    1  A    between atoms: O_2  and  C_3 
REMARK    2  A    between atoms: C_4  and  C_5 
REMARK    3  A    between atoms: C_5  and  N_6 
REMARK       I    between atoms: N_6  and  C_7 
REMARK    4  A    between atoms: C_7  and  C_8 
REMARK    5  A    between atoms: C_8  and  O_9 
REMARK    6  A    between atoms: N_10  and  C_11 
ROOT
HETATM    1  C   UNL     1     -41.435  55.395 -53.013  1.00  0.00     0.256 C 
HETATM    2  N   UNL     1     -41.875  55.818 -51.669  1.00  0.00    -0.254 N 
HETATM    3  C   UNL     1     -41.467  55.127 -50.537  1.00  0.00     0.330 C 
HETATM    4  O   UNL     1     -41.620  55.506 -49.375  1.00  0.00    -0.246 OA
HETATM    5  N   UNL     1     -40.815  53.945 -50.705  1.00  0.00    -0.308 N 
HETATM    6  C   UNL     1     -40.515  53.344 -51.912  1.00  0.00     0.048 A 
HETATM    7  C   UNL     1     -40.808  54.016 -53.088  1.00  0.00     0.034 A 
HETATM    8  C   UNL     1     -39.911  52.083 -51.922  1.00  0.00     0.030 A 
HETATM    9  C   UNL     1     -39.597  51.475 -53.135  1.00  0.00     0.002 A 
HETATM   10  C   UNL     1     -39.874  52.134 -54.328  1.00  0.00     0.001 A 
HETATM   11  C   UNL     1     -40.466  53.398 -54.306  1.00  0.00     0.015 A 
HETATM   12  H   UNL     1     -40.577  53.482 -49.838  1.00  0.00     0.170 HD
ENDROOT
BRANCH   1  13
HETATM   13  C   UNL     1     -42.672  55.423 -54.017  1.00  0.00     0.279 C 
HETATM   14  N   UNL     1     -42.510  56.334 -55.055  1.00  0.00    -0.352 N 
HETATM   15  H   UNL     1     -41.729  56.978 -54.973  1.00  0.00     0.162 HD
HETATM   16  O   UNL     1     -43.661  54.701 -53.905  1.00  0.00    -0.268 OA
BRANCH  14  17
HETATM   17  C   UNL     1     -43.556  56.608 -56.016  1.00  0.00     0.164 C 
BRANCH  17  18
HETATM   18  C   UNL     1     -43.075  56.748 -57.445  1.00  0.00    -0.007 A 
HETATM   19  C   UNL     1     -42.353  57.905 -57.805  1.00  0.00     0.076 A 
HETATM   20  C   UNL     1     -41.910  58.074 -59.122  1.00  0.00     0.037 A 
HETATM   21  C   UNL     1     -42.184  57.106 -60.088  1.00  0.00     0.003 A 
HETATM   22  C   UNL     1     -42.893  55.961 -59.743  1.00  0.00     0.001 A 
HETATM   23  C   UNL     1     -43.335  55.781 -58.432  1.00  0.00     0.011 A 
BRANCH  19  24
HETATM   24  O   UNL     1     -42.118  58.798 -56.790  1.00  0.00    -0.355 OA
HETATM   25  C   UNL     1     -42.112  60.180 -57.130  1.00  0.00     0.210 C 
ENDBRANCH  19  24
ENDBRANCH  17  18
ENDBRANCH  14  17
ENDBRANCH   1  13
BRANCH   1  26
HETATM   26  O   UNL     1     -40.397  56.297 -53.410  1.00  0.00    -0.359 OA
HETATM   27  H   UNL     1     -39.859  55.760 -54.018  1.00  0.00     0.213 HD
ENDBRANCH   1  26
BRANCH   2  28
HETATM   28  C   UNL     1     -42.753  56.966 -51.529  1.00  0.00     0.043 A 
HETATM   29  C   UNL     1     -44.124  56.835 -51.248  1.00  0.00     0.031 A 
HETATM   30  C   UNL     1     -44.946  57.958 -51.078  1.00  0.00     0.026 A 
HETATM   31  C   UNL     1     -44.409  59.235 -51.180  1.00  0.00     0.034 A 
HETATM   32 CL   UNL     1     -45.417  60.611 -50.963  1.00  0.00    -0.084 Cl
HETATM   33  C   UNL     1     -43.059  59.398 -51.454  1.00  0.00     0.026 A 
HETATM   34  C   UNL     1     -42.242  58.273 -51.626  1.00  0.00     0.031 A 
ENDBRANCH   2  28
TORSDOF 6
ENDMDL
MODEL 2
REMARK VINA RESULT:      -8.8      2.015      2.539
REMARK  6 active torsions:
REMARK  status: ('A' for Active; 'I' for Inactive)
REMARK    1  A    between atoms: O_2  and  C_3 
REMARK    2  A    between atoms: C_4  and  C_5 
REMARK    3  A    between atoms: C_5  and  N_6 
REMARK       I    between atoms: N_6  and  C_7 
REMARK    4  A    between atoms: C_7  and  C_8 
REMARK    5  A    between atoms: C_8  and  O_9 
REMARK    6  A    between atoms: N_10  and  C_11 
ROOT
HETATM    1  C   UNL     1     -41.228  55.110 -54.234  1.00  0.00     0.256 C 
HETATM    2  N   UNL     1     -41.761  56.045 -53.224  1.00  0.00    -0.254 N 
HETATM    3  C   UNL     1     -41.517  55.845 -51.873  1.00  0.00     0.330 C 
HETATM    4  O   UNL     1     -41.750  56.659 -50.977  1.00  0.00    -0.246 OA
HETATM    5  N   UNL     1     -40.942  54.674 -51.489  1.00  0.00    -0.308 N 
HETATM    6  C   UNL     1     -40.574  53.634 -52.321  1.00  0.00     0.048 A 
HETATM    7  C   UNL     1     -40.703  53.795 -53.692  1.00  0.00     0.034 A 
HETATM    8  C   UNL     1     -40.069  52.455 -51.767  1.00  0.00     0.030 A 
HETATM    9  C   UNL     1     -39.687  51.407 -52.601  1.00  0.00     0.002 A 
HETATM   10  C   UNL     1     -39.798  51.547 -53.981  1.00  0.00     0.001 A 
HETATM   11  C   UNL     1     -40.293  52.735 -54.523  1.00  0.00     0.015 A 
HETATM   12  H   UNL     1     -40.823  54.585 -50.488  1.00  0.00     0.170 HD
ENDROOT
BRANCH   1  13
HETATM   13  C   UNL     1     -42.358  54.778 -55.308  1.00  0.00     0.279 C 
HETATM   14  N   UNL     1     -42.125  55.368 -56.544  1.00  0.00    -0.352 N 
HETATM   15  H   UNL     1     -41.380  56.058 -56.583  1.00  0.00     0.162 HD
HETATM   16  O   UNL     1     -43.327  54.056 -55.080  1.00  0.00    -0.268 OA
BRANCH  14  17
HETATM   17  C   UNL     1     -43.078  55.295 -57.630  1.00  0.00     0.164 C 
BRANCH  17  18
HETATM   18  C   UNL     1     -43.362  56.620 -58.307  1.00  0.00    -0.007 A 
HETATM   19  C   UNL     1     -43.636  56.626 -59.691  1.00  0.00     0.076 A 
HETATM   20  C   UNL     1     -43.885  57.835 -60.351  1.00  0.00     0.037 A 
HETATM   21  C   UNL     1     -43.859  59.041 -59.649  1.00  0.00     0.003 A 
HETATM   22  C   UNL     1     -43.593  59.045 -58.284  1.00  0.00     0.001 A 
HETATM   23  C   UNL     1     -43.348  57.845 -57.617  1.00  0.00     0.011 A 
BRANCH  19  24
HETATM   24  O   UNL     1     -43.654  55.396 -60.299  1.00  0.00    -0.355 OA
HETATM   25  C   UNL     1     -44.896  54.956 -60.837  1.00  0.00     0.210 C 
ENDBRANCH  19  24
ENDBRANCH  17  18
ENDBRANCH  14  17
ENDBRANCH   1  13
BRANCH   1  26
HETATM   26  O   UNL     1     -40.092  55.748 -54.827  1.00  0.00    -0.359 OA
HETATM   27  H   UNL     1     -39.552  55.997 -54.057  1.00  0.00     0.213 HD
ENDBRANCH   1  26
BRANCH   2  28
HETATM   28  C   UNL     1     -42.559  57.181 -53.647  1.00  0.00     0.043 A 
HETATM   29  C   UNL     1     -43.965  57.168 -53.612  1.00  0.00     0.031 A 
HETATM   30  C   UNL     1     -44.716  58.291 -53.988  1.00  0.00     0.026 A 
HETATM   31  C   UNL     1     -44.073  59.451 -54.400  1.00  0.00     0.034 A 
HETATM   32 CL   UNL     1     -44.995  60.831 -54.853  1.00  0.00    -0.084 Cl
HETATM   33  C   UNL     1     -42.687  59.497 -54.443  1.00  0.00     0.026 A 
HETATM   34  C   UNL     1     -41.941  58.372 -54.069  1.00  0.00     0.031 A 
ENDBRANCH   2  28
TORSDOF 6
ENDMDL
MODEL 3
REMARK VINA RESULT:      -8.8      2.048      6.511
REMARK  6 active torsions:
REMARK  status: ('A' for Active; 'I' for Inactive)
REMARK    1  A    between atoms: O_2  and  C_3 
REMARK    2  A    between atoms: C_4  and  C_5 
REMARK    3  A    between atoms: C_5  and  N_6 
REMARK       I    between atoms: N_6  and  C_7 
REMARK    4  A    between atoms: C_7  and  C_8 
REMARK    5  A    between atoms: C_8  and  O_9 
REMARK    6  A    between atoms: N_10  and  C_11 
ROOT
HETATM    1  C   UNL     1     -42.913  57.003 -55.807  1.00  0.00     0.256 C 
HETATM    2  N   UNL     1     -42.323  58.288 -55.383  1.00  0.00    -0.254 N 
HETATM    3  C   UNL     1     -42.070  59.292 -56.307  1.00  0.00     0.330 C 
HETATM    4  O   UNL     1     -41.763  60.453 -56.032  1.00  0.00    -0.246 OA
HETATM    5  N   UNL     1     -42.197  58.998 -57.628  1.00  0.00    -0.308 N 
HETATM    6  C   UNL     1     -42.553  57.774 -58.161  1.00  0.00     0.048 A 
HETATM    7  C   UNL     1     -42.910  56.747 -57.301  1.00  0.00     0.034 A 
HETATM    8  C   UNL     1     -42.561  57.603 -59.548  1.00  0.00     0.030 A 
HETATM    9  C   UNL     1     -42.928  56.374 -60.092  1.00  0.00     0.002 A 
HETATM   10  C   UNL     1     -43.299  55.331 -59.250  1.00  0.00     0.001 A 
HETATM   11  C   UNL     1     -43.299  55.517 -57.866  1.00  0.00     0.015 A 
HETATM   12  H   UNL     1     -41.966  59.767 -58.243  1.00  0.00     0.170 HD
ENDROOT
BRANCH   1  13
HETATM   13  C   UNL     1     -42.139  55.799 -55.105  1.00  0.00     0.279 C 
HETATM   14  N   UNL     1     -42.957  55.032 -54.284  1.00  0.00    -0.352 N 
HETATM   15  H   UNL     1     -43.883  55.403 -54.093  1.00  0.00     0.162 HD
HETATM   16  O   UNL     1     -40.947  55.555 -55.284  1.00  0.00    -0.268 OA
BRANCH  14  17
HETATM   17  C   UNL     1     -42.441  53.960 -53.460  1.00  0.00     0.164 C 
BRANCH  17  18
HETATM   18  C   UNL     1     -41.871  54.408 -52.131  1.00  0.00    -0.007 A 
HETATM   19  C   UNL     1     -40.677  53.813 -51.672  1.00  0.00     0.076 A 
HETATM   20  C   UNL     1     -40.133  54.191 -50.439  1.00  0.00     0.037 A 
HETATM   21  C   UNL     1     -40.769  55.152 -49.653  1.00  0.00     0.003 A 
HETATM   22  C   UNL     1     -41.945  55.747 -50.097  1.00  0.00     0.001 A 
HETATM   23  C   UNL     1     -42.492  55.380 -51.326  1.00  0.00     0.011 A 
BRANCH  19  24
HETATM   24  O   UNL     1     -40.113  52.887 -52.514  1.00  0.00    -0.355 OA
HETATM   25  C   UNL     1     -39.546  51.727 -51.916  1.00  0.00     0.210 C 
ENDBRANCH  19  24
ENDBRANCH  17  18
ENDBRANCH  14  17
ENDBRANCH   1  13
BRANCH   1  26
HETATM   26  O   UNL     1     -44.296  57.042 -55.439  1.00  0.00    -0.359 OA
HETATM   27  H   UNL     1     -44.310  56.577 -54.584  1.00  0.00     0.213 HD
ENDBRANCH   1  26
BRANCH   2  28
HETATM   28  C   UNL     1     -41.995  58.502 -53.985  1.00  0.00     0.043 A 
HETATM   29  C   UNL     1     -40.676  58.431 -53.503  1.00  0.00     0.031 A 
HETATM   30  C   UNL     1     -40.377  58.679 -52.156  1.00  0.00     0.026 A 
HETATM   31  C   UNL     1     -41.392  59.010 -51.267  1.00  0.00     0.034 A 
HETATM   32 CL   UNL     1     -41.021  59.323 -49.617  1.00  0.00    -0.084 Cl
HETATM   33  C   UNL     1     -42.703  59.091 -51.713  1.00  0.00     0.026 A 
HETATM   34  C   UNL     1     -42.998  58.839 -53.059  1.00  0.00     0.031 A 
ENDBRANCH   2  28
TORSDOF 6
ENDMDL
MODEL 4
REMARK VINA RESULT:      -8.1      2.653      4.600
REMARK  6 active torsions:
REMARK  status: ('A' for Active; 'I' for Inactive)
REMARK    1  A    between atoms: O_2  and  C_3 
REMARK    2  A    between atoms: C_4  and  C_5 
REMARK    3  A    between atoms: C_5  and  N_6 
REMARK       I    between atoms: N_6  and  C_7 
REMARK    4  A    between atoms: C_7  and  C_8 
REMARK    5  A    between atoms: C_8  and  O_9 
REMARK    6  A    between atoms: N_10  and  C_11 
ROOT
HETATM    1  C   UNL     1     -42.356  54.922 -52.432  1.00  0.00     0.256 C 
HETATM    2  N   UNL     1     -41.696  54.510 -53.686  1.00  0.00    -0.254 N 
HETATM    3  C   UNL     1     -40.590  53.671 -53.664  1.00  0.00     0.330 C 
HETATM    4  O   UNL     1     -40.091  53.122 -54.648  1.00  0.00    -0.246 OA
HETATM    5  N   UNL     1     -40.016  53.395 -52.463  1.00  0.00    -0.308 N 
HETATM    6  C   UNL     1     -40.422  53.879 -51.234  1.00  0.00     0.048 A 
HETATM    7  C   UNL     1     -41.573  54.649 -51.163  1.00  0.00     0.034 A 
HETATM    8  C   UNL     1     -39.677  53.571 -50.093  1.00  0.00     0.030 A 
HETATM    9  C   UNL     1     -40.086  54.047 -48.849  1.00  0.00     0.002 A 
HETATM   10  C   UNL     1     -41.242  54.815 -48.751  1.00  0.00     0.001 A 
HETATM   11  C   UNL     1     -41.985  55.105 -49.897  1.00  0.00     0.015 A 
HETATM   12  H   UNL     1     -39.197  52.806 -52.526  1.00  0.00     0.170 HD
ENDROOT
BRANCH   1  13
HETATM   13  C   UNL     1     -42.674  56.483 -52.481  1.00  0.00     0.279 C 
HETATM   14  N   UNL     1     -44.019  56.758 -52.695  1.00  0.00    -0.352 N 
HETATM   15  H   UNL     1     -44.606  55.971 -52.955  1.00  0.00     0.162 HD
HETATM   16  O   UNL     1     -41.825  57.360 -52.324  1.00  0.00    -0.268 OA
BRANCH  14  17
HETATM   17  C   UNL     1     -44.514  58.104 -52.890  1.00  0.00     0.164 C 
BRANCH  17  18
HETATM   18  C   UNL     1     -44.581  58.546 -54.337  1.00  0.00    -0.007 A 
HETATM   19  C   UNL     1     -43.724  59.580 -54.768  1.00  0.00     0.076 A 
HETATM   20  C   UNL     1     -43.773  60.024 -56.095  1.00  0.00     0.037 A 
HETATM   21  C   UNL     1     -44.672  59.454 -56.996  1.00  0.00     0.003 A 
HETATM   22  C   UNL     1     -45.520  58.433 -56.582  1.00  0.00     0.001 A 
HETATM   23  C   UNL     1     -45.475  57.980 -55.263  1.00  0.00     0.011 A 
BRANCH  19  24
HETATM   24  O   UNL     1     -42.864  60.073 -53.820  1.00  0.00    -0.355 OA
HETATM   25  C   UNL     1     -42.922  61.470 -53.555  1.00  0.00     0.210 C 
ENDBRANCH  19  24
ENDBRANCH  17  18
ENDBRANCH  14  17
ENDBRANCH   1  13
BRANCH   1  26
HETATM   26  O   UNL     1     -43.545  54.134 -52.313  1.00  0.00    -0.359 OA
HETATM   27  H   UNL     1     -43.243  53.354 -51.815  1.00  0.00     0.213 HD
ENDBRANCH   1  26
BRANCH   2  28
HETATM   28  C   UNL     1     -42.203  54.993 -54.958  1.00  0.00     0.043 A 
HETATM   29  C   UNL     1     -41.786  56.213 -55.519  1.00  0.00     0.031 A 
HETATM   30  C   UNL     1     -42.259  56.643 -56.767  1.00  0.00     0.026 A 
HETATM   31  C   UNL     1     -43.153  55.855 -57.481  1.00  0.00     0.034 A 
HETATM   32 CL   UNL     1     -43.725  56.379 -59.016  1.00  0.00    -0.084 Cl
HETATM   33  C   UNL     1     -43.580  54.644 -56.956  1.00  0.00     0.026 A 
HETATM   34  C   UNL     1     -43.108  54.221 -55.707  1.00  0.00     0.031 A 
ENDBRANCH   2  28
TORSDOF 6
ENDMDL
MODEL 5
REMARK VINA RESULT:      -8.1      2.418      4.969
REMARK  6 active torsions:
REMARK  status: ('A' for Active; 'I' for Inactive)
REMARK    1  A    between atoms: O_2  and  C_3 
REMARK    2  A    between atoms: C_4  and  C_5 
REMARK    3  A    between atoms: C_5  and  N_6 
REMARK       I    between atoms: N_6  and  C_7 
REMARK    4  A    between atoms: C_7  and  C_8 
REMARK    5  A    between atoms: C_8  and  O_9 
REMARK    6  A    between atoms: N_10  and  C_11 
ROOT
HETATM    1  C   UNL     1     -42.425  55.341 -52.890  1.00  0.00     0.256 C 
HETATM    2  N   UNL     1     -42.900  55.338 -54.287  1.00  0.00    -0.254 N 
HETATM    3  C   UNL     1     -42.686  54.239 -55.107  1.00  0.00     0.330 C 
HETATM    4  O   UNL     1     -43.203  54.063 -56.212  1.00  0.00    -0.246 OA
HETATM    5  N   UNL     1     -41.867  53.251 -54.659  1.00  0.00    -0.308 N 
HETATM    6  C   UNL     1     -41.204  53.228 -53.447  1.00  0.00     0.048 A 
HETATM    7  C   UNL     1     -41.439  54.245 -52.535  1.00  0.00     0.034 A 
HETATM    8  C   UNL     1     -40.328  52.177 -53.162  1.00  0.00     0.030 A 
HETATM    9  C   UNL     1     -39.664  52.143 -51.938  1.00  0.00     0.002 A 
HETATM   10  C   UNL     1     -39.889  53.148 -51.002  1.00  0.00     0.001 A 
HETATM   11  C   UNL     1     -40.776  54.186 -51.294  1.00  0.00     0.015 A 
HETATM   12  H   UNL     1     -41.732  52.499 -55.322  1.00  0.00     0.170 HD
ENDROOT
BRANCH   1  13
HETATM   13  C   UNL     1     -41.738  56.740 -52.559  1.00  0.00     0.279 C 
HETATM   14  N   UNL     1     -42.476  57.513 -51.670  1.00  0.00    -0.352 N 
HETATM   15  H   UNL     1     -43.417  57.191 -51.465  1.00  0.00     0.162 HD
HETATM   16  O   UNL     1     -40.655  57.097 -53.022  1.00  0.00    -0.268 OA
BRANCH  14  17
HETATM   17  C   UNL     1     -42.098  58.865 -51.321  1.00  0.00     0.164 C 
BRANCH  17  18
HETATM   18  C   UNL     1     -42.771  59.939 -52.149  1.00  0.00    -0.007 A 
HETATM   19  C   UNL     1     -44.037  60.412 -51.743  1.00  0.00     0.076 A 
HETATM   20  C   UNL     1     -44.694  61.392 -52.496  1.00  0.00     0.037 A 
HETATM   21  C   UNL     1     -44.108  61.903 -53.654  1.00  0.00     0.003 A 
HETATM   22  C   UNL     1     -42.860  61.446 -54.061  1.00  0.00     0.001 A 
HETATM   23  C   UNL     1     -42.194  60.473 -53.315  1.00  0.00     0.011 A 
BRANCH  19  24
HETATM   24  O   UNL     1     -44.533  59.864 -50.587  1.00  0.00    -0.355 OA
HETATM   25  C   UNL     1     -45.765  59.158 -50.680  1.00  0.00     0.210 C 
ENDBRANCH  19  24
ENDBRANCH  17  18
ENDBRANCH  14  17
ENDBRANCH   1  13
BRANCH   1  26
HETATM   26  O   UNL     1     -43.568  55.094 -52.064  1.00  0.00    -0.359 OA
HETATM   27  H   UNL     1     -43.188  55.044 -51.170  1.00  0.00     0.213 HD
ENDBRANCH   1  26
BRANCH   2  28
HETATM   28  C   UNL     1     -43.592  56.500 -54.813  1.00  0.00     0.043 A 
HETATM   29  C   UNL     1     -44.852  56.906 -54.338  1.00  0.00     0.031 A 
HETATM   30  C   UNL     1     -45.485  58.055 -54.833  1.00  0.00     0.026 A 
HETATM   31  C   UNL     1     -44.865  58.824 -55.809  1.00  0.00     0.034 A 
HETATM   32 CL   UNL     1     -45.638  60.238 -56.409  1.00  0.00    -0.084 Cl
HETATM   33  C   UNL     1     -43.620  58.453 -56.296  1.00  0.00     0.026 A 
HETATM   34  C   UNL     1     -42.993  57.302 -55.801  1.00  0.00     0.031 A 
ENDBRANCH   2  28
TORSDOF 6
ENDMDL
MODEL 6
REMARK VINA RESULT:      -8.0      2.895      7.377
REMARK  6 active torsions:
REMARK  status: ('A' for Active; 'I' for Inactive)
REMARK    1  A    between atoms: O_2  and  C_3 
REMARK    2  A    between atoms: C_4  and  C_5 
REMARK    3  A    between atoms: C_5  and  N_6 
REMARK       I    between atoms: N_6  and  C_7 
REMARK    4  A    between atoms: C_7  and  C_8 
REMARK    5  A    between atoms: C_8  and  O_9 
REMARK    6  A    between atoms: N_10  and  C_11 
ROOT
HETATM    1  C   UNL     1     -43.633  57.827 -55.827  1.00  0.00     0.256 C 
HETATM    2  N   UNL     1     -43.209  56.512 -56.344  1.00  0.00    -0.254 N 
HETATM    3  C   UNL     1     -43.525  56.122 -57.638  1.00  0.00     0.330 C 
HETATM    4  O   UNL     1     -43.061  55.140 -58.220  1.00  0.00    -0.246 OA
HETATM    5  N   UNL     1     -44.390  56.892 -58.349  1.00  0.00    -0.308 N 
HETATM    6  C   UNL     1     -45.009  58.045 -57.906  1.00  0.00     0.048 A 
HETATM    7  C   UNL     1     -44.676  58.549 -56.658  1.00  0.00     0.034 A 
HETATM    8  C   UNL     1     -45.942  58.684 -58.727  1.00  0.00     0.030 A 
HETATM    9  C   UNL     1     -46.562  59.853 -58.291  1.00  0.00     0.002 A 
HETATM   10  C   UNL     1     -46.238  60.382 -57.046  1.00  0.00     0.001 A 
HETATM   11  C   UNL     1     -45.296  59.741 -56.240  1.00  0.00     0.015 A 
HETATM   12  H   UNL     1     -44.598  56.531 -59.270  1.00  0.00     0.170 HD
ENDROOT
BRANCH   1  13
HETATM   13  C   UNL     1     -44.215  57.663 -54.352  1.00  0.00     0.279 C 
HETATM   14  N   UNL     1     -43.405  58.238 -53.380  1.00  0.00    -0.352 N 
HETATM   15  H   UNL     1     -42.483  58.542 -53.681  1.00  0.00     0.162 HD
HETATM   16  O   UNL     1     -45.281  57.106 -54.095  1.00  0.00    -0.268 OA
BRANCH  14  17
HETATM   17  C   UNL     1     -43.680  58.109 -51.966  1.00  0.00     0.164 C 
BRANCH  17  18
HETATM   18  C   UNL     1     -42.968  56.955 -51.290  1.00  0.00    -0.007 A 
HETATM   19  C   UNL     1     -41.612  57.114 -50.935  1.00  0.00     0.076 A 
HETATM   20  C   UNL     1     -40.919  56.061 -50.325  1.00  0.00     0.037 A 
HETATM   21  C   UNL     1     -41.560  54.849 -50.071  1.00  0.00     0.003 A 
HETATM   22  C   UNL     1     -42.897  54.683 -50.415  1.00  0.00     0.001 A 
HETATM   23  C   UNL     1     -43.597  55.728 -51.019  1.00  0.00     0.011 A 
BRANCH  19  24
HETATM   24  O   UNL     1     -41.065  58.342 -51.209  1.00  0.00    -0.355 OA
HETATM   25  C   UNL     1     -40.781  59.189 -50.101  1.00  0.00     0.210 C 
ENDBRANCH  19  24
ENDBRANCH  17  18
ENDBRANCH  14  17
ENDBRANCH   1  13
BRANCH   1  26
HETATM   26  O   UNL     1     -42.480  58.674 -55.860  1.00  0.00    -0.359 OA
HETATM   27  H   UNL     1     -42.277  58.734 -56.810  1.00  0.00     0.213 HD
ENDBRANCH   1  26
BRANCH   2  28
HETATM   28  C   UNL     1     -42.462  55.609 -55.486  1.00  0.00     0.043 A 
HETATM   29  C   UNL     1     -41.137  55.868 -55.095  1.00  0.00     0.031 A 
HETATM   30  C   UNL     1     -40.447  55.003 -54.234  1.00  0.00     0.026 A 
HETATM   31  C   UNL     1     -41.073  53.864 -53.744  1.00  0.00     0.034 A 
HETATM   32 CL   UNL     1     -40.228  52.808 -52.681  1.00  0.00    -0.084 Cl
HETATM   33  C   UNL     1     -42.381  53.582 -54.109  1.00  0.00     0.026 A 
HETATM   34  C   UNL     1     -43.066  54.448 -54.972  1.00  0.00     0.031 A 
ENDBRANCH   2  28
TORSDOF 6
ENDMDL
MODEL 7
REMARK VINA RESULT:      -8.0     16.091     19.113
REMARK  6 active torsions:
REMARK  status: ('A' for Active; 'I' for Inactive)
REMARK    1  A    between atoms: O_2  and  C_3 
REMARK    2  A    between atoms: C_4  and  C_5 
REMARK    3  A    between atoms: C_5  and  N_6 
REMARK       I    between atoms: N_6  and  C_7 
REMARK    4  A    between atoms: C_7  and  C_8 
REMARK    5  A    between atoms: C_8  and  O_9 
REMARK    6  A    between atoms: N_10  and  C_11 
ROOT
HETATM    1  C   UNL     1     -34.944  40.492 -56.517  1.00  0.00     0.256 C 
HETATM    2  N   UNL     1     -34.536  39.082 -56.368  1.00  0.00    -0.254 N 
HETATM    3  C   UNL     1     -34.707  38.179 -57.408  1.00  0.00     0.330 C 
HETATM    4  O   UNL     1     -34.232  37.043 -57.453  1.00  0.00    -0.246 OA
HETATM    5  N   UNL     1     -35.430  38.573 -58.491  1.00  0.00    -0.308 N 
HETATM    6  C   UNL     1     -36.031  39.805 -58.665  1.00  0.00     0.048 A 
HETATM    7  C   UNL     1     -35.829  40.791 -57.711  1.00  0.00     0.034 A 
HETATM    8  C   UNL     1     -36.814  40.034 -59.799  1.00  0.00     0.030 A 
HETATM    9  C   UNL     1     -37.415  41.277 -59.986  1.00  0.00     0.002 A 
HETATM   10  C   UNL     1     -37.221  42.285 -59.048  1.00  0.00     0.001 A 
HETATM   11  C   UNL     1     -36.426  42.048 -57.924  1.00  0.00     0.015 A 
HETATM   12  H   UNL     1     -35.540  37.855 -59.193  1.00  0.00     0.170 HD
ENDROOT
BRANCH   1  13
HETATM   13  C   UNL     1     -35.716  40.969 -55.207  1.00  0.00     0.279 C 
HETATM   14  N   UNL     1     -34.943  41.780 -54.385  1.00  0.00    -0.352 N 
HETATM   15  H   UNL     1     -33.954  41.842 -54.611  1.00  0.00     0.162 HD
HETATM   16  O   UNL     1     -36.883  40.673 -54.954  1.00  0.00    -0.268 OA
BRANCH  14  17
HETATM   17  C   UNL     1     -35.402  42.232 -53.090  1.00  0.00     0.164 C 
BRANCH  17  18
HETATM   18  C   UNL     1     -34.994  41.343 -51.933  1.00  0.00    -0.007 A 
HETATM   19  C   UNL     1     -35.993  40.607 -51.262  1.00  0.00     0.076 A 
HETATM   20  C   UNL     1     -35.653  39.790 -50.177  1.00  0.00     0.037 A 
HETATM   21  C   UNL     1     -34.329  39.702 -49.748  1.00  0.00     0.003 A 
HETATM   22  C   UNL     1     -33.336  40.422 -50.405  1.00  0.00     0.001 A 
HETATM   23  C   UNL     1     -33.665  41.235 -51.490  1.00  0.00     0.011 A 
BRANCH  19  24
HETATM   24  O   UNL     1     -37.266  40.743 -51.757  1.00  0.00    -0.355 OA
HETATM   25  C   UNL     1     -38.112  39.601 -51.693  1.00  0.00     0.210 C 
ENDBRANCH  19  24
ENDBRANCH  17  18
ENDBRANCH  14  17
ENDBRANCH   1  13
BRANCH   1  26
HETATM   26  O   UNL     1     -33.748  41.246 -56.743  1.00  0.00    -0.359 OA
HETATM   27  H   UNL     1     -33.485  41.516 -55.846  1.00  0.00     0.213 HD
ENDBRANCH   1  26
BRANCH   2  28
HETATM   28  C   UNL     1     -33.957  38.630 -55.116  1.00  0.00     0.043 A 
HETATM   29  C   UNL     1     -34.711  37.961 -54.136  1.00  0.00     0.031 A 
HETATM   30  C   UNL     1     -34.123  37.498 -52.951  1.00  0.00     0.026 A 
HETATM   31  C   UNL     1     -32.766  37.690 -52.726  1.00  0.00     0.034 A 
HETATM   32 CL   UNL     1     -32.044  37.114 -51.275  1.00  0.00    -0.084 Cl
HETATM   33  C   UNL     1     -31.994  38.344 -53.675  1.00  0.00     0.026 A 
HETATM   34  C   UNL     1     -32.586  38.807 -54.857  1.00  0.00     0.031 A 
ENDBRANCH   2  28
TORSDOF 6
ENDMDL
MODEL 8
REMARK VINA RESULT:      -8.0      1.978      2.695
REMARK  6 active torsions:
REMARK  status: ('A' for Active; 'I' for Inactive)
REMARK    1  A    between atoms: O_2  and  C_3 
REMARK    2  A    between atoms: C_4  and  C_5 
REMARK    3  A    between atoms: C_5  and  N_6 
REMARK       I    between atoms: N_6  and  C_7 
REMARK    4  A    between atoms: C_7  and  C_8 
REMARK    5  A    between atoms: C_8  and  O_9 
REMARK    6  A    between atoms: N_10  and  C_11 
ROOT
HETATM    1  C   UNL     1     -41.806  57.576 -52.760  1.00  0.00     0.256 C 
HETATM    2  N   UNL     1     -43.043  57.867 -52.009  1.00  0.00    -0.254 N 
HETATM    3  C   UNL     1     -43.866  56.839 -51.571  1.00  0.00     0.330 C 
HETATM    4  O   UNL     1     -44.806  56.964 -50.784  1.00  0.00    -0.246 OA
HETATM    5  N   UNL     1     -43.611  55.578 -52.010  1.00  0.00    -0.308 N 
HETATM    6  C   UNL     1     -42.598  55.205 -52.874  1.00  0.00     0.048 A 
HETATM    7  C   UNL     1     -41.680  56.158 -53.283  1.00  0.00     0.034 A 
HETATM    8  C   UNL     1     -42.513  53.877 -53.301  1.00  0.00     0.030 A 
HETATM    9  C   UNL     1     -41.490  53.491 -54.163  1.00  0.00     0.002 A 
HETATM   10  C   UNL     1     -40.550  54.428 -54.581  1.00  0.00     0.001 A 
HETATM   11  C   UNL     1     -40.639  55.749 -54.137  1.00  0.00     0.015 A 
HETATM   12  H   UNL     1     -44.269  54.887 -51.677  1.00  0.00     0.170 HD
ENDROOT
BRANCH   1  13
HETATM   13  C   UNL     1     -41.686  58.566 -54.002  1.00  0.00     0.279 C 
HETATM   14  N   UNL     1     -42.577  58.266 -55.026  1.00  0.00    -0.352 N 
HETATM   15  H   UNL     1     -43.073  57.383 -54.949  1.00  0.00     0.162 HD
HETATM   16  O   UNL     1     -40.903  59.514 -54.049  1.00  0.00    -0.268 OA
BRANCH  14  17
HETATM   17  C   UNL     1     -42.564  58.962 -56.294  1.00  0.00     0.164 C 
BRANCH  17  18
HETATM   18  C   UNL     1     -42.600  58.057 -57.508  1.00  0.00    -0.007 A 
HETATM   19  C   UNL     1     -42.382  58.626 -58.781  1.00  0.00     0.076 A 
HETATM   20  C   UNL     1     -42.426  57.820 -59.925  1.00  0.00     0.037 A 
HETATM   21  C   UNL     1     -42.691  56.455 -59.817  1.00  0.00     0.003 A 
HETATM   22  C   UNL     1     -42.904  55.885 -58.567  1.00  0.00     0.001 A 
HETATM   23  C   UNL     1     -42.857  56.678 -57.420  1.00  0.00     0.011 A 
BRANCH  19  24
HETATM   24  O   UNL     1     -42.117  59.972 -58.793  1.00  0.00    -0.355 OA
HETATM   25  C   UNL     1     -41.783  60.556 -60.047  1.00  0.00     0.210 C 
ENDBRANCH  19  24
ENDBRANCH  17  18
ENDBRANCH  14  17
ENDBRANCH   1  13
BRANCH   1  26
HETATM   26  O   UNL     1     -40.719  57.731 -51.840  1.00  0.00    -0.359 OA
HETATM   27  H   UNL     1     -41.155  57.671 -50.972  1.00  0.00     0.213 HD
ENDBRANCH   1  26
BRANCH   2  28
HETATM   28  C   UNL     1     -43.409  59.244 -51.734  1.00  0.00     0.043 A 
HETATM   29  C   UNL     1     -44.477  59.884 -52.386  1.00  0.00     0.031 A 
HETATM   30  C   UNL     1     -44.839  61.203 -52.077  1.00  0.00     0.026 A 
HETATM   31  C   UNL     1     -44.141  61.905 -51.103  1.00  0.00     0.034 A 
HETATM   32 CL   UNL     1     -44.591  63.520 -50.718  1.00  0.00    -0.084 Cl
HETATM   33  C   UNL     1     -43.083  61.301 -50.438  1.00  0.00     0.026 A 
HETATM   34  C   UNL     1     -42.724  59.984 -50.753  1.00  0.00     0.031 A 
ENDBRANCH   2  28
TORSDOF 6
ENDMDL
MODEL 9
REMARK VINA RESULT:      -8.0      2.347      5.572
REMARK  6 active torsions:
REMARK  status: ('A' for Active; 'I' for Inactive)
REMARK    1  A    between atoms: O_2  and  C_3 
REMARK    2  A    between atoms: C_4  and  C_5 
REMARK    3  A    between atoms: C_5  and  N_6 
REMARK       I    between atoms: N_6  and  C_7 
REMARK    4  A    between atoms: C_7  and  C_8 
REMARK    5  A    between atoms: C_8  and  O_9 
REMARK    6  A    between atoms: N_10  and  C_11 
ROOT
HETATM    1  C   UNL     1     -43.324  55.994 -54.055  1.00  0.00     0.256 C 
HETATM    2  N   UNL     1     -43.138  56.947 -55.166  1.00  0.00    -0.254 N 
HETATM    3  C   UNL     1     -42.272  56.658 -56.211  1.00  0.00     0.330 C 
HETATM    4  O   UNL     1     -42.191  57.290 -57.266  1.00  0.00    -0.246 OA
HETATM    5  N   UNL     1     -41.461  55.572 -56.094  1.00  0.00    -0.308 N 
HETATM    6  C   UNL     1     -41.402  54.711 -55.015  1.00  0.00     0.048 A 
HETATM    7  C   UNL     1     -42.299  54.880 -53.972  1.00  0.00     0.034 A 
HETATM    8  C   UNL     1     -40.455  53.684 -55.007  1.00  0.00     0.030 A 
HETATM    9  C   UNL     1     -40.396  52.806 -53.927  1.00  0.00     0.002 A 
HETATM   10  C   UNL     1     -41.291  52.949 -52.872  1.00  0.00     0.001 A 
HETATM   11  C   UNL     1     -42.241  53.972 -52.898  1.00  0.00     0.015 A 
HETATM   12  H   UNL     1     -40.836  55.442 -56.878  1.00  0.00     0.170 HD
ENDROOT
BRANCH   1  13
HETATM   13  C   UNL     1     -43.305  56.776 -52.667  1.00  0.00     0.279 C 
HETATM   14  N   UNL     1     -44.577  57.005 -52.153  1.00  0.00    -0.352 N 
HETATM   15  H   UNL     1     -45.357  56.807 -52.772  1.00  0.00     0.162 HD
HETATM   16  O   UNL     1     -42.275  57.126 -52.092  1.00  0.00    -0.268 OA
BRANCH  14  17
HETATM   17  C   UNL     1     -44.801  57.797 -50.964  1.00  0.00     0.164 C 
BRANCH  17  18
HETATM   18  C   UNL     1     -45.144  59.248 -51.231  1.00  0.00    -0.007 A 
HETATM   19  C   UNL     1     -44.173  60.234 -50.957  1.00  0.00     0.076 A 
HETATM   20  C   UNL     1     -44.465  61.586 -51.175  1.00  0.00     0.037 A 
HETATM   21  C   UNL     1     -45.716  61.968 -51.658  1.00  0.00     0.003 A 
HETATM   22  C   UNL     1     -46.680  61.004 -51.933  1.00  0.00     0.001 A 
HETATM   23  C   UNL     1     -46.397  59.654 -51.723  1.00  0.00     0.011 A 
BRANCH  19  24
HETATM   24  O   UNL     1     -42.967  59.769 -50.497  1.00  0.00    -0.355 OA
HETATM   25  C   UNL     1     -41.794  60.398 -51.001  1.00  0.00     0.210 C 
ENDBRANCH  19  24
ENDBRANCH  17  18
ENDBRANCH  14  17
ENDBRANCH   1  13
BRANCH   1  26
HETATM   26  O   UNL     1     -44.573  55.333 -54.284  1.00  0.00    -0.359 OA
HETATM   27  H   UNL     1     -44.612  54.679 -53.563  1.00  0.00     0.213 HD
ENDBRANCH   1  26
BRANCH   2  28
HETATM   28  C   UNL     1     -43.860  58.206 -55.162  1.00  0.00     0.043 A 
HETATM   29  C   UNL     1     -43.300  59.393 -54.658  1.00  0.00     0.031 A 
HETATM   30  C   UNL     1     -44.000  60.607 -54.699  1.00  0.00     0.026 A 
HETATM   31  C   UNL     1     -45.274  60.656 -55.253  1.00  0.00     0.034 A 
HETATM   32 CL   UNL     1     -46.128  62.148 -55.311  1.00  0.00    -0.084 Cl
HETATM   33  C   UNL     1     -45.852  59.503 -55.761  1.00  0.00     0.026 A 
HETATM   34  C   UNL     1     -45.150  58.292 -55.714  1.00  0.00     0.031 A 
ENDBRANCH   2  28
TORSDOF 6
ENDMDL
MODEL 10
REMARK VINA RESULT:      -7.8     16.181     18.872
REMARK  6 active torsions:
REMARK  status: ('A' for Active; 'I' for Inactive)
REMARK    1  A    between atoms: O_2  and  C_3 
REMARK    2  A    between atoms: C_4  and  C_5 
REMARK    3  A    between atoms: C_5  and  N_6 
REMARK       I    between atoms: N_6  and  C_7 
REMARK    4  A    between atoms: C_7  and  C_8 
REMARK    5  A    between atoms: C_8  and  O_9 
REMARK    6  A    between atoms: N_10  and  C_11 
ROOT
HETATM    1  C   UNL     1     -33.692  40.223 -53.976  1.00  0.00     0.256 C 
HETATM    2  N   UNL     1     -34.882  41.072 -54.177  1.00  0.00    -0.254 N 
HETATM    3  C   UNL     1     -35.323  41.925 -53.176  1.00  0.00     0.330 C 
HETATM    4  O   UNL     1     -36.178  42.802 -53.311  1.00  0.00    -0.246 OA
HETATM    5  N   UNL     1     -34.753  41.823 -51.945  1.00  0.00    -0.308 N 
HETATM    6  C   UNL     1     -33.763  40.932 -51.577  1.00  0.00     0.048 A 
HETATM    7  C   UNL     1     -33.207  40.109 -52.544  1.00  0.00     0.034 A 
HETATM    8  C   UNL     1     -33.335  40.890 -50.247  1.00  0.00     0.030 A 
HETATM    9  C   UNL     1     -32.331  40.002 -49.871  1.00  0.00     0.002 A 
HETATM   10  C   UNL     1     -31.751  39.172 -50.825  1.00  0.00     0.001 A 
HETATM   11  C   UNL     1     -32.179  39.231 -52.153  1.00  0.00     0.015 A 
HETATM   12  H   UNL     1     -35.146  42.452 -51.258  1.00  0.00     0.170 HD
ENDROOT
BRANCH   1  13
HETATM   13  C   UNL     1     -33.986  38.750 -54.509  1.00  0.00     0.279 C 
HETATM   14  N   UNL     1     -33.244  38.421 -55.638  1.00  0.00    -0.352 N 
HETATM   15  H   UNL     1     -32.739  39.181 -56.084  1.00  0.00     0.162 HD
HETATM   16  O   UNL     1     -34.771  37.972 -53.970  1.00  0.00    -0.268 OA
BRANCH  14  17
HETATM   17  C   UNL     1     -33.435  37.180 -56.356  1.00  0.00     0.164 C 
BRANCH  17  18
HETATM   18  C   UNL     1     -34.432  37.259 -57.493  1.00  0.00    -0.007 A 
HETATM   19  C   UNL     1     -33.970  37.642 -58.771  1.00  0.00     0.076 A 
HETATM   20  C   UNL     1     -34.869  37.742 -59.839  1.00  0.00     0.037 A 
HETATM   21  C   UNL     1     -36.224  37.473 -59.649  1.00  0.00     0.003 A 
HETATM   22  C   UNL     1     -36.689  37.093 -58.395  1.00  0.00     0.001 A 
HETATM   23  C   UNL     1     -35.800  36.985 -57.325  1.00  0.00     0.011 A 
BRANCH  19  24
HETATM   24  O   UNL     1     -32.622  37.876 -58.870  1.00  0.00    -0.355 OA
HETATM   25  C   UNL     1     -31.906  37.137 -59.853  1.00  0.00     0.210 C 
ENDBRANCH  19  24
ENDBRANCH  17  18
ENDBRANCH  14  17
ENDBRANCH   1  13
BRANCH   1  26
HETATM   26  O   UNL     1     -32.615  40.848 -54.684  1.00  0.00    -0.359 OA
HETATM   27  H   UNL     1     -32.397  40.196 -55.373  1.00  0.00     0.213 HD
ENDBRANCH   1  26
BRANCH   2  28
HETATM   28  C   UNL     1     -35.607  41.008 -55.433  1.00  0.00     0.043 A 
HETATM   29  C   UNL     1     -35.082  41.523 -56.632  1.00  0.00     0.031 A 
HETATM   30  C   UNL     1     -35.783  41.415 -57.842  1.00  0.00     0.026 A 
HETATM   31  C   UNL     1     -37.020  40.783 -57.876  1.00  0.00     0.034 A 
HETATM   32 CL   UNL     1     -37.873  40.644 -59.363  1.00  0.00    -0.084 Cl
HETATM   33  C   UNL     1     -37.562  40.262 -56.711  1.00  0.00     0.026 A 
HETATM   34  C   UNL     1     -36.861  40.375 -55.504  1.00  0.00     0.031 A 
ENDBRANCH   2  28
TORSDOF 6
ENDMDL
