MODEL 1
REMARK VINA RESULT:     -10.2      0.000      0.000
REMARK  7 active torsions:
REMARK  status: ('A' for Active; 'I' for Inactive)
REMARK    1  A    between atoms: C_3  and  C_4 
REMARK       I    between atoms: C_4  and  N_5 
REMARK    2  A    between atoms: N_5  and  C_6 
REMARK    3  A    between atoms: C_6  and  C_7 
REMARK    4  A    between atoms: N_23  and  C_24 
REMARK    5  A    between atoms: C_24  and  C_25 
REMARK       I    between atoms: C_25  and  N_26 
REMARK    6  A    between atoms: N_26  and  C_27 
REMARK    7  A    between atoms: C_29  and  C_30 
ROOT
HETATM    1  C   UNL     1     -46.137  59.855 -51.383  1.00  0.00     0.051 C 
HETATM    2  C   UNL     1     -44.678  60.203 -51.339  1.00  0.00    -0.021 A 
HETATM    3  C   UNL     1     -44.128  61.206 -50.541  1.00  0.00     0.081 A 
HETATM    4  S   UNL     1     -42.418  61.270 -50.704  1.00  0.00    -0.063 SA
HETATM    5  C   UNL     1     -42.392  60.007 -51.834  1.00  0.00     0.116 A 
HETATM    6  C   UNL     1     -43.657  59.553 -52.129  1.00  0.00     0.075 A 
HETATM    7  C   UNL     1     -43.771  58.509 -53.138  1.00  0.00     0.262 A 
HETATM    8  O   UNL     1     -44.848  58.106 -53.567  1.00  0.00    -0.267 OA
HETATM    9  N   UNL     1     -42.546  58.037 -53.610  1.00  0.00    -0.299 N 
HETATM   10  C   UNL     1     -41.345  58.573 -53.179  1.00  0.00     0.214 A 
HETATM   11  N   UNL     1     -41.220  59.550 -52.343  1.00  0.00    -0.235 NA
ENDROOT
BRANCH   3  12
HETATM   12  C   UNL     1     -44.821  62.138 -49.644  1.00  0.00     0.259 C 
HETATM   13  N   UNL     1     -44.513  62.018 -48.306  1.00  0.00    -0.354 N 
HETATM   14  H   UNL     1     -43.754  61.390 -48.067  1.00  0.00     0.162 HD
HETATM   15  O   UNL     1     -45.614  62.994 -50.031  1.00  0.00    -0.267 OA
BRANCH  13  16
HETATM   16  C   UNL     1     -44.987  62.959 -47.313  1.00  0.00     0.157 C 
BRANCH  16  17
HETATM   17  C   UNL     1     -45.780  62.348 -46.140  1.00  0.00     0.171 C 
HETATM   18  O   UNL     1     -46.030  63.332 -45.123  1.00  0.00    -0.339 OA
HETATM   19  C   UNL     1     -45.129  63.308 -44.092  1.00  0.00     0.102 A 
HETATM   20  C   UNL     1     -44.146  62.327 -43.945  1.00  0.00     0.102 A 
HETATM   21  C   UNL     1     -45.201  64.361 -43.181  1.00  0.00     0.039 A 
HETATM   22  O   UNL     1     -43.995  61.285 -44.820  1.00  0.00    -0.346 OA
HETATM   23  C   UNL     1     -43.213  62.418 -42.913  1.00  0.00     0.039 A 
HETATM   24  C   UNL     1     -45.194  61.061 -45.564  1.00  0.00     0.209 C 
HETATM   25  C   UNL     1     -43.279  63.479 -42.009  1.00  0.00     0.003 A 
HETATM   26  C   UNL     1     -44.275  64.446 -42.140  1.00  0.00     0.003 A 
ENDBRANCH  16  17
ENDBRANCH  13  16
ENDBRANCH   3  12
BRANCH   9  27
HETATM   27  C   UNL     1     -42.533  56.917 -54.541  1.00  0.00     0.236 C 
BRANCH  27  28
HETATM   28  C   UNL     1     -42.374  55.530 -53.903  1.00  0.00     0.240 C 
HETATM   29  N   UNL     1     -41.099  54.996 -53.956  1.00  0.00    -0.326 N 
HETATM   30  H   UNL     1     -40.433  55.462 -54.561  1.00  0.00     0.169 HD
HETATM   31  O   UNL     1     -43.348  55.004 -53.368  1.00  0.00    -0.271 OA
BRANCH  29  32
HETATM   32  C   UNL     1     -40.620  53.851 -53.284  1.00  0.00     0.035 A 
HETATM   33  C   UNL     1     -40.459  52.600 -53.886  1.00  0.00     0.045 A 
HETATM   34  C   UNL     1     -40.014  51.490 -53.144  1.00  0.00     0.050 A 
HETATM   35  C   UNL     1     -39.732  51.651 -51.779  1.00  0.00     0.016 A 
HETATM   36  C   UNL     1     -39.887  52.894 -51.173  1.00  0.00     0.003 A 
HETATM   37  C   UNL     1     -40.329  53.988 -51.921  1.00  0.00     0.029 A 
BRANCH  34  38
HETATM   38  C   UNL     1     -39.852  50.135 -53.790  1.00  0.00     0.417 C 
HETATM   39  F   UNL     1     -38.751  50.027 -54.583  1.00  0.00    -0.166 F 
HETATM   40  F   UNL     1     -39.754  49.131 -52.874  1.00  0.00    -0.166 F 
HETATM   41  F   UNL     1     -40.914  49.812 -54.581  1.00  0.00    -0.166 F 
ENDBRANCH  34  38
ENDBRANCH  29  32
ENDBRANCH  27  28
ENDBRANCH   9  27
TORSDOF 7
ENDMDL
MODEL 2
REMARK VINA RESULT:     -10.1      5.587      9.380
REMARK  7 active torsions:
REMARK  status: ('A' for Active; 'I' for Inactive)
REMARK    1  A    between atoms: C_3  and  C_4 
REMARK       I    between atoms: C_4  and  N_5 
REMARK    2  A    between atoms: N_5  and  C_6 
REMARK    3  A    between atoms: C_6  and  C_7 
REMARK    4  A    between atoms: N_23  and  C_24 
REMARK    5  A    between atoms: C_24  and  C_25 
REMARK       I    between atoms: C_25  and  N_26 
REMARK    6  A    between atoms: N_26  and  C_27 
REMARK    7  A    between atoms: C_29  and  C_30 
ROOT
HETATM    1  C   UNL     1     -44.684  56.870 -53.859  1.00  0.00     0.051 C 
HETATM    2  C   UNL     1     -43.544  57.802 -53.571  1.00  0.00    -0.021 A 
HETATM    3  C   UNL     1     -43.272  58.965 -54.292  1.00  0.00     0.081 A 
HETATM    4  S   UNL     1     -41.930  59.812 -53.631  1.00  0.00    -0.063 SA
HETATM    5  C   UNL     1     -41.684  58.653 -52.419  1.00  0.00     0.116 A 
HETATM    6  C   UNL     1     -42.573  57.607 -52.518  1.00  0.00     0.075 A 
HETATM    7  C   UNL     1     -42.421  56.512 -51.569  1.00  0.00     0.262 A 
HETATM    8  O   UNL     1     -43.077  55.477 -51.631  1.00  0.00    -0.267 OA
HETATM    9  N   UNL     1     -41.432  56.724 -50.609  1.00  0.00    -0.299 N 
HETATM   10  C   UNL     1     -40.642  57.860 -50.618  1.00  0.00     0.214 A 
HETATM   11  N   UNL     1     -40.705  58.808 -51.493  1.00  0.00    -0.235 NA
ENDROOT
BRANCH   3  12
HETATM   12  C   UNL     1     -43.972  59.490 -55.468  1.00  0.00     0.259 C 
HETATM   13  N   UNL     1     -43.283  59.407 -56.660  1.00  0.00    -0.354 N 
HETATM   14  H   UNL     1     -42.414  58.886 -56.648  1.00  0.00     0.162 HD
HETATM   15  O   UNL     1     -45.107  59.962 -55.432  1.00  0.00    -0.267 OA
BRANCH  13  16
HETATM   16  C   UNL     1     -43.891  59.734 -57.933  1.00  0.00     0.157 C 
BRANCH  16  17
HETATM   17  C   UNL     1     -43.166  59.187 -59.178  1.00  0.00     0.171 C 
HETATM   18  O   UNL     1     -44.094  58.561 -60.078  1.00  0.00    -0.339 OA
HETATM   19  C   UNL     1     -44.175  57.200 -59.936  1.00  0.00     0.102 A 
HETATM   20  C   UNL     1     -43.329  56.457 -59.111  1.00  0.00     0.102 A 
HETATM   21  C   UNL     1     -45.196  56.564 -60.638  1.00  0.00     0.039 A 
HETATM   22  O   UNL     1     -42.327  57.020 -58.367  1.00  0.00    -0.346 OA
HETATM   23  C   UNL     1     -43.528  55.085 -58.957  1.00  0.00     0.039 A 
HETATM   24  C   UNL     1     -41.958  58.298 -58.885  1.00  0.00     0.209 C 
HETATM   25  C   UNL     1     -44.558  54.451 -59.652  1.00  0.00     0.003 A 
HETATM   26  C   UNL     1     -45.388  55.189 -60.496  1.00  0.00     0.003 A 
ENDBRANCH  16  17
ENDBRANCH  13  16
ENDBRANCH   3  12
BRANCH   9  27
HETATM   27  C   UNL     1     -41.264  55.748 -49.541  1.00  0.00     0.236 C 
BRANCH  27  28
HETATM   28  C   UNL     1     -40.412  54.521 -49.896  1.00  0.00     0.240 C 
HETATM   29  N   UNL     1     -41.118  53.414 -50.328  1.00  0.00    -0.326 N 
HETATM   30  H   UNL     1     -42.123  53.434 -50.199  1.00  0.00     0.169 HD
HETATM   31  O   UNL     1     -39.188  54.600 -49.811  1.00  0.00    -0.271 OA
BRANCH  29  32
HETATM   32  C   UNL     1     -40.598  52.236 -50.906  1.00  0.00     0.035 A 
HETATM   33  C   UNL     1     -40.472  52.028 -52.282  1.00  0.00     0.045 A 
HETATM   34  C   UNL     1     -39.983  50.811 -52.790  1.00  0.00     0.050 A 
HETATM   35  C   UNL     1     -39.620  49.795 -51.895  1.00  0.00     0.016 A 
HETATM   36  C   UNL     1     -39.740  49.994 -50.522  1.00  0.00     0.003 A 
HETATM   37  C   UNL     1     -40.227  51.207 -50.030  1.00  0.00     0.029 A 
BRANCH  34  38
HETATM   38  C   UNL     1     -39.858  50.581 -54.277  1.00  0.00     0.417 C 
HETATM   39  F   UNL     1     -40.850  49.813 -54.805  1.00  0.00    -0.166 F 
HETATM   40  F   UNL     1     -39.868  51.745 -54.987  1.00  0.00    -0.166 F 
HETATM   41  F   UNL     1     -38.690  49.958 -54.605  1.00  0.00    -0.166 F 
ENDBRANCH  34  38
ENDBRANCH  29  32
ENDBRANCH  27  28
ENDBRANCH   9  27
TORSDOF 7
ENDMDL
MODEL 3
REMARK VINA RESULT:     -10.0      1.303      1.784
REMARK  7 active torsions:
REMARK  status: ('A' for Active; 'I' for Inactive)
REMARK    1  A    between atoms: C_3  and  C_4 
REMARK       I    between atoms: C_4  and  N_5 
REMARK    2  A    between atoms: N_5  and  C_6 
REMARK    3  A    between atoms: C_6  and  C_7 
REMARK    4  A    between atoms: N_23  and  C_24 
REMARK    5  A    between atoms: C_24  and  C_25 
REMARK       I    between atoms: C_25  and  N_26 
REMARK    6  A    between atoms: N_26  and  C_27 
REMARK    7  A    between atoms: C_29  and  C_30 
ROOT
HETATM    1  C   UNL     1     -41.580  59.833 -51.011  1.00  0.00     0.051 C 
HETATM    2  C   UNL     1     -42.938  59.961 -51.637  1.00  0.00    -0.021 A 
HETATM    3  C   UNL     1     -43.904  60.888 -51.247  1.00  0.00     0.081 A 
HETATM    4  S   UNL     1     -45.307  60.784 -52.235  1.00  0.00    -0.063 SA
HETATM    5  C   UNL     1     -44.668  59.515 -53.158  1.00  0.00     0.116 A 
HETATM    6  C   UNL     1     -43.423  59.131 -52.715  1.00  0.00     0.075 A 
HETATM    7  C   UNL     1     -42.795  58.002 -53.389  1.00  0.00     0.262 A 
HETATM    8  O   UNL     1     -41.743  57.497 -53.012  1.00  0.00    -0.267 OA
HETATM    9  N   UNL     1     -43.520  57.514 -54.477  1.00  0.00    -0.299 N 
HETATM   10  C   UNL     1     -44.751  58.041 -54.826  1.00  0.00     0.214 A 
HETATM   11  N   UNL     1     -45.363  58.990 -54.199  1.00  0.00    -0.235 NA
ENDROOT
BRANCH   3  12
HETATM   12  C   UNL     1     -43.837  61.868 -50.157  1.00  0.00     0.259 C 
HETATM   13  N   UNL     1     -44.721  61.665 -49.117  1.00  0.00    -0.354 N 
HETATM   14  H   UNL     1     -45.250  60.801 -49.132  1.00  0.00     0.162 HD
HETATM   15  O   UNL     1     -43.044  62.807 -50.132  1.00  0.00    -0.267 OA
BRANCH  13  16
HETATM   16  C   UNL     1     -44.677  62.445 -47.898  1.00  0.00     0.157 C 
BRANCH  16  17
HETATM   17  C   UNL     1     -45.669  62.019 -46.798  1.00  0.00     0.171 C 
HETATM   18  O   UNL     1     -45.924  63.103 -45.890  1.00  0.00    -0.339 OA
HETATM   19  C   UNL     1     -45.161  63.067 -44.753  1.00  0.00     0.102 A 
HETATM   20  C   UNL     1     -44.322  62.003 -44.416  1.00  0.00     0.102 A 
HETATM   21  C   UNL     1     -45.220  64.192 -43.932  1.00  0.00     0.039 A 
HETATM   22  O   UNL     1     -44.189  60.883 -45.192  1.00  0.00    -0.346 OA
HETATM   23  C   UNL     1     -43.515  62.079 -43.282  1.00  0.00     0.039 A 
HETATM   24  C   UNL     1     -45.308  60.727 -46.066  1.00  0.00     0.209 C 
HETATM   25  C   UNL     1     -43.566  63.210 -42.467  1.00  0.00     0.003 A 
HETATM   26  C   UNL     1     -44.422  64.264 -42.789  1.00  0.00     0.003 A 
ENDBRANCH  16  17
ENDBRANCH  13  16
ENDBRANCH   3  12
BRANCH   9  27
HETATM   27  C   UNL     1     -42.939  56.458 -55.295  1.00  0.00     0.236 C 
BRANCH  27  28
HETATM   28  C   UNL     1     -42.674  55.132 -54.571  1.00  0.00     0.240 C 
HETATM   29  N   UNL     1     -41.342  54.779 -54.448  1.00  0.00    -0.326 N 
HETATM   30  H   UNL     1     -40.676  55.311 -54.995  1.00  0.00     0.169 HD
HETATM   31  O   UNL     1     -43.627  54.494 -54.125  1.00  0.00    -0.271 OA
BRANCH  29  32
HETATM   32  C   UNL     1     -40.799  53.738 -53.666  1.00  0.00     0.035 A 
HETATM   33  C   UNL     1     -40.543  52.450 -54.144  1.00  0.00     0.045 A 
HETATM   34  C   UNL     1     -40.038  51.448 -53.297  1.00  0.00     0.050 A 
HETATM   35  C   UNL     1     -39.792  51.754 -51.950  1.00  0.00     0.016 A 
HETATM   36  C   UNL     1     -40.042  53.035 -51.465  1.00  0.00     0.003 A 
HETATM   37  C   UNL     1     -40.542  54.021 -52.318  1.00  0.00     0.029 A 
BRANCH  34  38
HETATM   38  C   UNL     1     -39.773  50.053 -53.809  1.00  0.00     0.417 C 
HETATM   39  F   UNL     1     -39.611  49.123 -52.829  1.00  0.00    -0.166 F 
HETATM   40  F   UNL     1     -40.781  49.589 -54.602  1.00  0.00    -0.166 F 
HETATM   41  F   UNL     1     -38.644  49.991 -54.572  1.00  0.00    -0.166 F 
ENDBRANCH  34  38
ENDBRANCH  29  32
ENDBRANCH  27  28
ENDBRANCH   9  27
TORSDOF 7
ENDMDL
MODEL 4
REMARK VINA RESULT:      -9.7      5.746      9.571
REMARK  7 active torsions:
REMARK  status: ('A' for Active; 'I' for Inactive)
REMARK    1  A    between atoms: C_3  and  C_4 
REMARK       I    between atoms: C_4  and  N_5 
REMARK    2  A    between atoms: N_5  and  C_6 
REMARK    3  A    between atoms: C_6  and  C_7 
REMARK    4  A    between atoms: N_23  and  C_24 
REMARK    5  A    between atoms: C_24  and  C_25 
REMARK       I    between atoms: C_25  and  N_26 
REMARK    6  A    between atoms: N_26  and  C_27 
REMARK    7  A    between atoms: C_29  and  C_30 
ROOT
HETATM    1  C   UNL     1     -45.257  57.632 -54.477  1.00  0.00     0.051 C 
HETATM    2  C   UNL     1     -43.940  58.328 -54.651  1.00  0.00    -0.021 A 
HETATM    3  C   UNL     1     -43.624  59.166 -55.721  1.00  0.00     0.081 A 
HETATM    4  S   UNL     1     -42.051  59.837 -55.548  1.00  0.00    -0.063 SA
HETATM    5  C   UNL     1     -41.768  59.020 -54.090  1.00  0.00     0.116 A 
HETATM    6  C   UNL     1     -42.825  58.211 -53.739  1.00  0.00     0.075 A 
HETATM    7  C   UNL     1     -42.675  57.404 -52.536  1.00  0.00     0.262 A 
HETATM    8  O   UNL     1     -43.498  56.564 -52.186  1.00  0.00    -0.267 OA
HETATM    9  N   UNL     1     -41.491  57.639 -51.837  1.00  0.00    -0.299 N 
HETATM   10  C   UNL     1     -40.536  58.526 -52.302  1.00  0.00     0.214 A 
HETATM   11  N   UNL     1     -40.611  59.195 -53.404  1.00  0.00    -0.235 NA
ENDROOT
BRANCH   3  12
HETATM   12  C   UNL     1     -44.446  59.500 -56.889  1.00  0.00     0.259 C 
HETATM   13  N   UNL     1     -43.794  60.158 -57.910  1.00  0.00    -0.354 N 
HETATM   14  H   UNL     1     -42.787  60.247 -57.824  1.00  0.00     0.162 HD
HETATM   15  O   UNL     1     -45.636  59.208 -56.990  1.00  0.00    -0.267 OA
BRANCH  13  16
HETATM   16  C   UNL     1     -44.418  60.419 -59.190  1.00  0.00     0.157 C 
BRANCH  16  17
HETATM   17  C   UNL     1     -43.815  59.665 -60.391  1.00  0.00     0.171 C 
HETATM   18  O   UNL     1     -44.690  58.611 -60.826  1.00  0.00    -0.339 OA
HETATM   19  C   UNL     1     -44.372  57.379 -60.317  1.00  0.00     0.102 A 
HETATM   20  C   UNL     1     -43.219  57.123 -59.572  1.00  0.00     0.102 A 
HETATM   21  C   UNL     1     -45.295  56.359 -60.542  1.00  0.00     0.039 A 
HETATM   22  O   UNL     1     -42.287  58.084 -59.285  1.00  0.00    -0.346 OA
HETATM   23  C   UNL     1     -43.007  55.861 -59.020  1.00  0.00     0.039 A 
HETATM   24  C   UNL     1     -42.380  59.179 -60.197  1.00  0.00     0.209 C 
HETATM   25  C   UNL     1     -43.938  54.844 -59.235  1.00  0.00     0.003 A 
HETATM   26  C   UNL     1     -45.078  55.091 -60.000  1.00  0.00     0.003 A 
ENDBRANCH  16  17
ENDBRANCH  13  16
ENDBRANCH   3  12
BRANCH   9  27
HETATM   27  C   UNL     1     -41.282  56.972 -50.559  1.00  0.00     0.236 C 
BRANCH  27  28
HETATM   28  C   UNL     1     -40.770  55.527 -50.645  1.00  0.00     0.240 C 
HETATM   29  N   UNL     1     -41.172  54.822 -51.764  1.00  0.00    -0.326 N 
HETATM   30  H   UNL     1     -41.904  55.237 -52.328  1.00  0.00     0.169 HD
HETATM   31  O   UNL     1     -40.029  55.103 -49.760  1.00  0.00    -0.271 OA
BRANCH  29  32
HETATM   32  C   UNL     1     -40.698  53.567 -52.204  1.00  0.00     0.035 A 
HETATM   33  C   UNL     1     -40.465  52.478 -51.359  1.00  0.00     0.045 A 
HETATM   34  C   UNL     1     -39.953  51.268 -51.860  1.00  0.00     0.050 A 
HETATM   35  C   UNL     1     -39.672  51.161 -53.230  1.00  0.00     0.016 A 
HETATM   36  C   UNL     1     -39.903  52.240 -54.079  1.00  0.00     0.003 A 
HETATM   37  C   UNL     1     -40.413  53.436 -53.569  1.00  0.00     0.029 A 
BRANCH  34  38
HETATM   38  C   UNL     1     -39.690  50.095 -50.947  1.00  0.00     0.417 C 
HETATM   39  F   UNL     1     -40.184  50.250 -49.688  1.00  0.00    -0.166 F 
HETATM   40  F   UNL     1     -40.227  48.935 -51.420  1.00  0.00    -0.166 F 
HETATM   41  F   UNL     1     -38.357  49.850 -50.795  1.00  0.00    -0.166 F 
ENDBRANCH  34  38
ENDBRANCH  29  32
ENDBRANCH  27  28
ENDBRANCH   9  27
TORSDOF 7
ENDMDL
MODEL 5
REMARK VINA RESULT:      -9.5      2.045      2.716
REMARK  7 active torsions:
REMARK  status: ('A' for Active; 'I' for Inactive)
REMARK    1  A    between atoms: C_3  and  C_4 
REMARK       I    between atoms: C_4  and  N_5 
REMARK    2  A    between atoms: N_5  and  C_6 
REMARK    3  A    between atoms: C_6  and  C_7 
REMARK    4  A    between atoms: N_23  and  C_24 
REMARK    5  A    between atoms: C_24  and  C_25 
REMARK       I    between atoms: C_25  and  N_26 
REMARK    6  A    between atoms: N_26  and  C_27 
REMARK    7  A    between atoms: C_29  and  C_30 
ROOT
HETATM    1  C   UNL     1     -43.802  60.165 -50.552  1.00  0.00     0.051 C 
HETATM    2  C   UNL     1     -43.521  60.688 -51.929  1.00  0.00    -0.021 A 
HETATM    3  C   UNL     1     -43.397  62.039 -52.252  1.00  0.00     0.081 A 
HETATM    4  S   UNL     1     -43.009  62.254 -53.913  1.00  0.00    -0.063 SA
HETATM    5  C   UNL     1     -43.024  60.588 -54.222  1.00  0.00     0.116 A 
HETATM    6  C   UNL     1     -43.357  59.859 -53.102  1.00  0.00     0.075 A 
HETATM    7  C   UNL     1     -43.468  58.415 -53.256  1.00  0.00     0.262 A 
HETATM    8  O   UNL     1     -43.868  57.675 -52.364  1.00  0.00    -0.267 OA
HETATM    9  N   UNL     1     -43.122  57.950 -54.525  1.00  0.00    -0.299 N 
HETATM   10  C   UNL     1     -42.764  58.815 -55.544  1.00  0.00     0.214 A 
HETATM   11  N   UNL     1     -42.732  60.103 -55.454  1.00  0.00    -0.235 NA
ENDROOT
BRANCH   3  12
HETATM   12  C   UNL     1     -43.554  63.203 -51.373  1.00  0.00     0.259 C 
HETATM   13  N   UNL     1     -44.854  63.557 -51.077  1.00  0.00    -0.354 N 
HETATM   14  H   UNL     1     -45.580  62.921 -51.387  1.00  0.00     0.162 HD
HETATM   15  O   UNL     1     -42.610  63.830 -50.896  1.00  0.00    -0.267 OA
BRANCH  13  16
HETATM   16  C   UNL     1     -45.179  64.578 -50.104  1.00  0.00     0.157 C 
BRANCH  16  17
HETATM   17  C   UNL     1     -46.430  64.307 -49.246  1.00  0.00     0.171 C 
HETATM   18  O   UNL     1     -46.118  64.384 -47.845  1.00  0.00    -0.339 OA
HETATM   19  C   UNL     1     -45.864  63.170 -47.264  1.00  0.00     0.102 A 
HETATM   20  C   UNL     1     -46.040  61.948 -47.915  1.00  0.00     0.102 A 
HETATM   21  C   UNL     1     -45.364  63.199 -45.963  1.00  0.00     0.039 A 
HETATM   22  O   UNL     1     -46.495  61.847 -49.203  1.00  0.00    -0.346 OA
HETATM   23  C   UNL     1     -45.681  60.759 -47.283  1.00  0.00     0.039 A 
HETATM   24  C   UNL     1     -47.191  63.030 -49.596  1.00  0.00     0.209 C 
HETATM   25  C   UNL     1     -45.169  60.789 -45.985  1.00  0.00     0.003 A 
HETATM   26  C   UNL     1     -45.016  62.008 -45.324  1.00  0.00     0.003 A 
ENDBRANCH  16  17
ENDBRANCH  13  16
ENDBRANCH   3  12
BRANCH   9  27
HETATM   27  C   UNL     1     -43.089  56.514 -54.765  1.00  0.00     0.236 C 
BRANCH  27  28
HETATM   28  C   UNL     1     -41.880  55.774 -54.176  1.00  0.00     0.240 C 
HETATM   29  N   UNL     1     -42.173  54.606 -53.497  1.00  0.00    -0.326 N 
HETATM   30  H   UNL     1     -43.148  54.433 -53.284  1.00  0.00     0.169 HD
HETATM   31  O   UNL     1     -40.753  56.229 -54.363  1.00  0.00    -0.271 OA
BRANCH  29  32
HETATM   32  C   UNL     1     -41.264  53.630 -53.037  1.00  0.00     0.035 A 
HETATM   33  C   UNL     1     -40.997  52.431 -53.703  1.00  0.00     0.045 A 
HETATM   34  C   UNL     1     -40.108  51.483 -53.165  1.00  0.00     0.050 A 
HETATM   35  C   UNL     1     -39.484  51.753 -51.937  1.00  0.00     0.016 A 
HETATM   36  C   UNL     1     -39.743  52.946 -51.267  1.00  0.00     0.003 A 
HETATM   37  C   UNL     1     -40.627  53.879 -51.814  1.00  0.00     0.029 A 
BRANCH  34  38
HETATM   38  C   UNL     1     -39.829  50.182 -53.877  1.00  0.00     0.417 C 
HETATM   39  F   UNL     1     -38.778  50.237 -54.741  1.00  0.00    -0.166 F 
HETATM   40  F   UNL     1     -39.551  49.165 -53.014  1.00  0.00    -0.166 F 
HETATM   41  F   UNL     1     -40.895  49.761 -54.616  1.00  0.00    -0.166 F 
ENDBRANCH  34  38
ENDBRANCH  29  32
ENDBRANCH  27  28
ENDBRANCH   9  27
TORSDOF 7
ENDMDL
MODEL 6
REMARK VINA RESULT:      -9.4      5.568      9.561
REMARK  7 active torsions:
REMARK  status: ('A' for Active; 'I' for Inactive)
REMARK    1  A    between atoms: C_3  and  C_4 
REMARK       I    between atoms: C_4  and  N_5 
REMARK    2  A    between atoms: N_5  and  C_6 
REMARK    3  A    between atoms: C_6  and  C_7 
REMARK    4  A    between atoms: N_23  and  C_24 
REMARK    5  A    between atoms: C_24  and  C_25 
REMARK       I    between atoms: C_25  and  N_26 
REMARK    6  A    between atoms: N_26  and  C_27 
REMARK    7  A    between atoms: C_29  and  C_30 
ROOT
HETATM    1  C   UNL     1     -41.885  58.011 -55.696  1.00  0.00     0.051 C 
HETATM    2  C   UNL     1     -43.050  58.463 -54.864  1.00  0.00    -0.021 A 
HETATM    3  C   UNL     1     -44.016  59.376 -55.286  1.00  0.00     0.081 A 
HETATM    4  S   UNL     1     -45.232  59.598 -54.093  1.00  0.00    -0.063 SA
HETATM    5  C   UNL     1     -44.492  58.522 -53.013  1.00  0.00     0.116 A 
HETATM    6  C   UNL     1     -43.313  58.019 -53.514  1.00  0.00     0.075 A 
HETATM    7  C   UNL     1     -42.547  57.130 -52.650  1.00  0.00     0.262 A 
HETATM    8  O   UNL     1     -41.431  56.712 -52.940  1.00  0.00    -0.267 OA
HETATM    9  N   UNL     1     -43.176  56.832 -51.441  1.00  0.00    -0.299 N 
HETATM   10  C   UNL     1     -44.394  57.390 -51.097  1.00  0.00     0.214 A 
HETATM   11  N   UNL     1     -45.056  58.239 -51.812  1.00  0.00    -0.235 NA
ENDROOT
BRANCH   3  12
HETATM   12  C   UNL     1     -44.083  60.107 -56.557  1.00  0.00     0.259 C 
HETATM   13  N   UNL     1     -44.514  59.376 -57.644  1.00  0.00    -0.354 N 
HETATM   14  H   UNL     1     -44.861  58.443 -57.456  1.00  0.00     0.162 HD
HETATM   15  O   UNL     1     -43.801  61.298 -56.674  1.00  0.00    -0.267 OA
BRANCH  13  16
HETATM   16  C   UNL     1     -44.787  59.984 -58.929  1.00  0.00     0.157 C 
BRANCH  16  17
HETATM   17  C   UNL     1     -44.061  59.351 -60.133  1.00  0.00     0.171 C 
HETATM   18  O   UNL     1     -44.865  58.323 -60.733  1.00  0.00    -0.339 OA
HETATM   19  C   UNL     1     -44.559  57.057 -60.307  1.00  0.00     0.102 A 
HETATM   20  C   UNL     1     -43.469  56.759 -59.486  1.00  0.00     0.102 A 
HETATM   21  C   UNL     1     -45.431  56.043 -60.700  1.00  0.00     0.039 A 
HETATM   22  O   UNL     1     -42.593  57.708 -59.035  1.00  0.00    -0.346 OA
HETATM   23  C   UNL     1     -43.273  55.457 -59.028  1.00  0.00     0.039 A 
HETATM   24  C   UNL     1     -42.635  58.878 -59.853  1.00  0.00     0.209 C 
HETATM   25  C   UNL     1     -44.153  54.445 -59.413  1.00  0.00     0.003 A 
HETATM   26  C   UNL     1     -45.228  54.737 -60.253  1.00  0.00     0.003 A 
ENDBRANCH  16  17
ENDBRANCH  13  16
ENDBRANCH   3  12
BRANCH   9  27
HETATM   27  C   UNL     1     -42.556  55.866 -50.544  1.00  0.00     0.236 C 
BRANCH  27  28
HETATM   28  C   UNL     1     -42.328  54.468 -51.134  1.00  0.00     0.240 C 
HETATM   29  N   UNL     1     -41.019  54.022 -51.111  1.00  0.00    -0.326 N 
HETATM   30  H   UNL     1     -40.307  54.706 -50.887  1.00  0.00     0.169 HD
HETATM   31  O   UNL     1     -43.293  53.831 -51.552  1.00  0.00    -0.271 OA
BRANCH  29  32
HETATM   32  C   UNL     1     -40.551  52.720 -51.392  1.00  0.00     0.035 A 
HETATM   33  C   UNL     1     -40.382  52.210 -52.683  1.00  0.00     0.045 A 
HETATM   34  C   UNL     1     -39.950  50.888 -52.889  1.00  0.00     0.050 A 
HETATM   35  C   UNL     1     -39.688  50.074 -51.777  1.00  0.00     0.016 A 
HETATM   36  C   UNL     1     -39.851  50.574 -50.488  1.00  0.00     0.003 A 
HETATM   37  C   UNL     1     -40.280  51.890 -50.297  1.00  0.00     0.029 A 
BRANCH  34  38
HETATM   38  C   UNL     1     -39.780  50.332 -54.282  1.00  0.00     0.417 C 
HETATM   39  F   UNL     1     -38.727  49.479 -54.415  1.00  0.00    -0.166 F 
HETATM   40  F   UNL     1     -40.876  49.640 -54.705  1.00  0.00    -0.166 F 
HETATM   41  F   UNL     1     -39.582  51.313 -55.208  1.00  0.00    -0.166 F 
ENDBRANCH  34  38
ENDBRANCH  29  32
ENDBRANCH  27  28
ENDBRANCH   9  27
TORSDOF 7
ENDMDL
MODEL 7
REMARK VINA RESULT:      -9.3      5.020      9.378
REMARK  7 active torsions:
REMARK  status: ('A' for Active; 'I' for Inactive)
REMARK    1  A    between atoms: C_3  and  C_4 
REMARK       I    between atoms: C_4  and  N_5 
REMARK    2  A    between atoms: N_5  and  C_6 
REMARK    3  A    between atoms: C_6  and  C_7 
REMARK    4  A    between atoms: N_23  and  C_24 
REMARK    5  A    between atoms: C_24  and  C_25 
REMARK       I    between atoms: C_25  and  N_26 
REMARK    6  A    between atoms: N_26  and  C_27 
REMARK    7  A    between atoms: C_29  and  C_30 
ROOT
HETATM    1  C   UNL     1     -45.477  58.023 -56.545  1.00  0.00     0.051 C 
HETATM    2  C   UNL     1     -45.269  59.219 -55.664  1.00  0.00    -0.021 A 
HETATM    3  C   UNL     1     -45.320  60.542 -56.102  1.00  0.00     0.081 A 
HETATM    4  S   UNL     1     -45.101  61.643 -54.800  1.00  0.00    -0.063 SA
HETATM    5  C   UNL     1     -44.914  60.398 -53.665  1.00  0.00     0.116 A 
HETATM    6  C   UNL     1     -44.974  59.153 -54.251  1.00  0.00     0.075 A 
HETATM    7  C   UNL     1     -44.762  58.000 -53.387  1.00  0.00     0.262 A 
HETATM    8  O   UNL     1     -44.678  56.852 -53.810  1.00  0.00    -0.267 OA
HETATM    9  N   UNL     1     -44.616  58.320 -52.036  1.00  0.00    -0.299 N 
HETATM   10  C   UNL     1     -44.622  59.631 -51.595  1.00  0.00     0.214 A 
HETATM   11  N   UNL     1     -44.732  60.674 -52.350  1.00  0.00    -0.235 NA
ENDROOT
BRANCH   3  12
HETATM   12  C   UNL     1     -45.530  61.042 -57.465  1.00  0.00     0.259 C 
HETATM   13  N   UNL     1     -44.409  61.071 -58.269  1.00  0.00    -0.354 N 
HETATM   14  H   UNL     1     -43.572  60.637 -57.898  1.00  0.00     0.162 HD
HETATM   15  O   UNL     1     -46.623  61.398 -57.901  1.00  0.00    -0.267 OA
BRANCH  13  16
HETATM   16  C   UNL     1     -44.474  61.386 -59.681  1.00  0.00     0.157 C 
BRANCH  16  17
HETATM   17  C   UNL     1     -43.491  60.614 -60.582  1.00  0.00     0.171 C 
HETATM   18  O   UNL     1     -44.044  59.348 -60.977  1.00  0.00    -0.339 OA
HETATM   19  C   UNL     1     -43.638  58.296 -60.199  1.00  0.00     0.102 A 
HETATM   20  C   UNL     1     -42.659  58.398 -59.209  1.00  0.00     0.102 A 
HETATM   21  C   UNL     1     -44.292  57.083 -60.408  1.00  0.00     0.039 A 
HETATM   22  O   UNL     1     -42.001  59.564 -58.926  1.00  0.00    -0.346 OA
HETATM   23  C   UNL     1     -42.361  57.300 -58.403  1.00  0.00     0.039 A 
HETATM   24  C   UNL     1     -42.075  60.475 -60.024  1.00  0.00     0.209 C 
HETATM   25  C   UNL     1     -43.024  56.089 -58.605  1.00  0.00     0.003 A 
HETATM   26  C   UNL     1     -43.985  55.979 -59.611  1.00  0.00     0.003 A 
ENDBRANCH  16  17
ENDBRANCH  13  16
ENDBRANCH   3  12
BRANCH   9  27
HETATM   27  C   UNL     1     -44.509  57.241 -51.064  1.00  0.00     0.236 C 
BRANCH  27  28
HETATM   28  C   UNL     1     -43.141  56.548 -50.995  1.00  0.00     0.240 C 
HETATM   29  N   UNL     1     -43.161  55.178 -51.184  1.00  0.00    -0.326 N 
HETATM   30  H   UNL     1     -44.068  54.727 -51.165  1.00  0.00     0.169 HD
HETATM   31  O   UNL     1     -42.135  57.231 -50.814  1.00  0.00    -0.271 OA
BRANCH  29  32
HETATM   32  C   UNL     1     -42.055  54.323 -51.375  1.00  0.00     0.035 A 
HETATM   33  C   UNL     1     -41.712  53.746 -52.601  1.00  0.00     0.045 A 
HETATM   34  C   UNL     1     -40.619  52.868 -52.710  1.00  0.00     0.050 A 
HETATM   35  C   UNL     1     -39.866  52.571 -51.564  1.00  0.00     0.016 A 
HETATM   36  C   UNL     1     -40.198  53.143 -50.339  1.00  0.00     0.003 A 
HETATM   37  C   UNL     1     -41.286  54.013 -50.245  1.00  0.00     0.029 A 
BRANCH  34  38
HETATM   38  C   UNL     1     -40.256  52.235 -54.031  1.00  0.00     0.417 C 
HETATM   39  F   UNL     1     -41.211  51.401 -54.528  1.00  0.00    -0.166 F 
HETATM   40  F   UNL     1     -40.023  53.159 -55.005  1.00  0.00    -0.166 F 
HETATM   41  F   UNL     1     -39.118  51.489 -53.949  1.00  0.00    -0.166 F 
ENDBRANCH  34  38
ENDBRANCH  29  32
ENDBRANCH  27  28
ENDBRANCH   9  27
TORSDOF 7
ENDMDL
MODEL 8
REMARK VINA RESULT:      -9.2      2.342      3.091
REMARK  7 active torsions:
REMARK  status: ('A' for Active; 'I' for Inactive)
REMARK    1  A    between atoms: C_3  and  C_4 
REMARK       I    between atoms: C_4  and  N_5 
REMARK    2  A    between atoms: N_5  and  C_6 
REMARK    3  A    between atoms: C_6  and  C_7 
REMARK    4  A    between atoms: N_23  and  C_24 
REMARK    5  A    between atoms: C_24  and  C_25 
REMARK       I    between atoms: C_25  and  N_26 
REMARK    6  A    between atoms: N_26  and  C_27 
REMARK    7  A    between atoms: C_29  and  C_30 
ROOT
HETATM    1  C   UNL     1     -44.448  58.137 -51.477  1.00  0.00     0.051 C 
HETATM    2  C   UNL     1     -43.732  59.006 -52.467  1.00  0.00    -0.021 A 
HETATM    3  C   UNL     1     -43.370  60.333 -52.238  1.00  0.00     0.081 A 
HETATM    4  S   UNL     1     -42.504  60.986 -53.572  1.00  0.00    -0.063 SA
HETATM    5  C   UNL     1     -42.619  59.548 -54.462  1.00  0.00     0.116 A 
HETATM    6  C   UNL     1     -43.336  58.583 -53.791  1.00  0.00     0.075 A 
HETATM    7  C   UNL     1     -43.560  57.321 -54.482  1.00  0.00     0.262 A 
HETATM    8  O   UNL     1     -44.278  56.431 -54.036  1.00  0.00    -0.267 OA
HETATM    9  N   UNL     1     -42.923  57.228 -55.720  1.00  0.00    -0.299 N 
HETATM   10  C   UNL     1     -42.195  58.281 -56.244  1.00  0.00     0.214 A 
HETATM   11  N   UNL     1     -42.045  59.437 -55.686  1.00  0.00    -0.235 NA
ENDROOT
BRANCH   3  12
HETATM   12  C   UNL     1     -43.638  61.158 -51.055  1.00  0.00     0.259 C 
HETATM   13  N   UNL     1     -44.894  61.724 -50.994  1.00  0.00    -0.354 N 
HETATM   14  H   UNL     1     -45.561  61.429 -51.698  1.00  0.00     0.162 HD
HETATM   15  O   UNL     1     -42.825  61.336 -50.150  1.00  0.00    -0.267 OA
BRANCH  13  16
HETATM   16  C   UNL     1     -45.371  62.432 -49.825  1.00  0.00     0.157 C 
BRANCH  16  17
HETATM   17  C   UNL     1     -46.193  61.593 -48.827  1.00  0.00     0.171 C 
HETATM   18  O   UNL     1     -47.147  62.413 -48.132  1.00  0.00    -0.339 OA
HETATM   19  C   UNL     1     -46.719  62.847 -46.905  1.00  0.00     0.102 A 
HETATM   20  C   UNL     1     -45.536  62.416 -46.300  1.00  0.00     0.102 A 
HETATM   21  C   UNL     1     -47.513  63.802 -46.273  1.00  0.00     0.039 A 
HETATM   22  O   UNL     1     -44.691  61.506 -46.878  1.00  0.00    -0.346 OA
HETATM   23  C   UNL     1     -45.128  62.966 -45.086  1.00  0.00     0.039 A 
HETATM   24  C   UNL     1     -45.368  60.733 -47.870  1.00  0.00     0.209 C 
HETATM   25  C   UNL     1     -45.918  63.931 -44.461  1.00  0.00     0.003 A 
HETATM   26  C   UNL     1     -47.112  64.345 -45.051  1.00  0.00     0.003 A 
ENDBRANCH  16  17
ENDBRANCH  13  16
ENDBRANCH   3  12
BRANCH   9  27
HETATM   27  C   UNL     1     -42.985  55.970 -56.452  1.00  0.00     0.236 C 
BRANCH  27  28
HETATM   28  C   UNL     1     -42.597  54.720 -55.651  1.00  0.00     0.240 C 
HETATM   29  N   UNL     1     -41.393  54.798 -54.977  1.00  0.00    -0.326 N 
HETATM   30  H   UNL     1     -40.788  55.577 -55.209  1.00  0.00     0.169 HD
HETATM   31  O   UNL     1     -43.369  53.762 -55.628  1.00  0.00    -0.271 OA
BRANCH  29  32
HETATM   32  C   UNL     1     -40.888  53.898 -54.014  1.00  0.00     0.035 A 
HETATM   33  C   UNL     1     -40.903  54.134 -52.637  1.00  0.00     0.045 A 
HETATM   34  C   UNL     1     -40.345  53.209 -51.736  1.00  0.00     0.050 A 
HETATM   35  C   UNL     1     -39.764  52.035 -52.237  1.00  0.00     0.016 A 
HETATM   36  C   UNL     1     -39.746  51.790 -53.607  1.00  0.00     0.003 A 
HETATM   37  C   UNL     1     -40.305  52.716 -54.491  1.00  0.00     0.029 A 
BRANCH  34  38
HETATM   38  C   UNL     1     -40.349  53.469 -50.249  1.00  0.00     0.417 C 
HETATM   39  F   UNL     1     -39.273  54.175 -49.805  1.00  0.00    -0.166 F 
HETATM   40  F   UNL     1     -41.447  54.169 -49.846  1.00  0.00    -0.166 F 
HETATM   41  F   UNL     1     -40.360  52.314 -49.525  1.00  0.00    -0.166 F 
ENDBRANCH  34  38
ENDBRANCH  29  32
ENDBRANCH  27  28
ENDBRANCH   9  27
TORSDOF 7
ENDMDL
MODEL 9
REMARK VINA RESULT:      -9.2      5.684      9.056
REMARK  7 active torsions:
REMARK  status: ('A' for Active; 'I' for Inactive)
REMARK    1  A    between atoms: C_3  and  C_4 
REMARK       I    between atoms: C_4  and  N_5 
REMARK    2  A    between atoms: N_5  and  C_6 
REMARK    3  A    between atoms: C_6  and  C_7 
REMARK    4  A    between atoms: N_23  and  C_24 
REMARK    5  A    between atoms: C_24  and  C_25 
REMARK       I    between atoms: C_25  and  N_26 
REMARK    6  A    between atoms: N_26  and  C_27 
REMARK    7  A    between atoms: C_29  and  C_30 
ROOT
HETATM    1  C   UNL     1     -40.605  57.937 -53.661  1.00  0.00     0.051 C 
HETATM    2  C   UNL     1     -41.521  59.001 -53.133  1.00  0.00    -0.021 A 
HETATM    3  C   UNL     1     -41.846  59.168 -51.787  1.00  0.00     0.081 A 
HETATM    4  S   UNL     1     -42.866  60.531 -51.553  1.00  0.00    -0.063 SA
HETATM    5  C   UNL     1     -42.907  60.895 -53.208  1.00  0.00     0.116 A 
HETATM    6  C   UNL     1     -42.194  59.983 -53.953  1.00  0.00     0.075 A 
HETATM    7  C   UNL     1     -42.207  60.151 -55.400  1.00  0.00     0.262 A 
HETATM    8  O   UNL     1     -41.707  59.340 -56.173  1.00  0.00    -0.267 OA
HETATM    9  N   UNL     1     -42.879  61.294 -55.834  1.00  0.00    -0.299 N 
HETATM   10  C   UNL     1     -43.515  62.144 -54.948  1.00  0.00     0.214 A 
HETATM   11  N   UNL     1     -43.583  61.976 -53.669  1.00  0.00    -0.235 NA
ENDROOT
BRANCH   3  12
HETATM   12  C   UNL     1     -41.429  58.351 -50.642  1.00  0.00     0.259 C 
HETATM   13  N   UNL     1     -41.871  57.045 -50.648  1.00  0.00    -0.354 N 
HETATM   14  H   UNL     1     -42.338  56.726 -51.490  1.00  0.00     0.162 HD
HETATM   15  O   UNL     1     -40.715  58.767 -49.732  1.00  0.00    -0.267 OA
BRANCH  13  16
HETATM   16  C   UNL     1     -41.421  56.068 -49.679  1.00  0.00     0.157 C 
BRANCH  16  17
HETATM   17  C   UNL     1     -42.084  54.680 -49.775  1.00  0.00     0.171 C 
HETATM   18  O   UNL     1     -41.127  53.682 -50.167  1.00  0.00    -0.339 OA
HETATM   19  C   UNL     1     -41.128  53.408 -51.509  1.00  0.00     0.102 A 
HETATM   20  C   UNL     1     -42.067  53.923 -52.405  1.00  0.00     0.102 A 
HETATM   21  C   UNL     1     -40.093  52.599 -51.977  1.00  0.00     0.039 A 
HETATM   22  O   UNL     1     -43.089  54.750 -52.021  1.00  0.00    -0.346 OA
HETATM   23  C   UNL     1     -41.951  53.663 -53.769  1.00  0.00     0.039 A 
HETATM   24  C   UNL     1     -43.353  54.625 -50.623  1.00  0.00     0.209 C 
HETATM   25  C   UNL     1     -40.908  52.863 -54.238  1.00  0.00     0.003 A 
HETATM   26  C   UNL     1     -39.984  52.327 -53.342  1.00  0.00     0.003 A 
ENDBRANCH  16  17
ENDBRANCH  13  16
ENDBRANCH   3  12
BRANCH   9  27
HETATM   27  C   UNL     1     -42.863  61.625 -57.253  1.00  0.00     0.236 C 
BRANCH  27  28
HETATM   28  C   UNL     1     -43.869  60.857 -58.121  1.00  0.00     0.240 C 
HETATM   29  N   UNL     1     -43.764  59.479 -58.071  1.00  0.00    -0.326 N 
HETATM   30  H   UNL     1     -42.936  59.099 -57.629  1.00  0.00     0.169 HD
HETATM   31  O   UNL     1     -44.705  61.488 -58.765  1.00  0.00    -0.271 OA
BRANCH  29  32
HETATM   32  C   UNL     1     -44.669  58.530 -58.594  1.00  0.00     0.035 A 
HETATM   33  C   UNL     1     -44.284  57.314 -59.167  1.00  0.00     0.045 A 
HETATM   34  C   UNL     1     -45.239  56.433 -59.707  1.00  0.00     0.050 A 
HETATM   35  C   UNL     1     -46.595  56.788 -59.667  1.00  0.00     0.016 A 
HETATM   36  C   UNL     1     -46.987  57.997 -59.097  1.00  0.00     0.003 A 
HETATM   37  C   UNL     1     -46.029  58.862 -58.564  1.00  0.00     0.029 A 
BRANCH  34  38
HETATM   38  C   UNL     1     -44.824  55.125 -60.336  1.00  0.00     0.417 C 
HETATM   39  F   UNL     1     -43.507  54.823 -60.172  1.00  0.00    -0.166 F 
HETATM   40  F   UNL     1     -45.516  54.063 -59.836  1.00  0.00    -0.166 F 
HETATM   41  F   UNL     1     -45.044  55.110 -61.682  1.00  0.00    -0.166 F 
ENDBRANCH  34  38
ENDBRANCH  29  32
ENDBRANCH  27  28
ENDBRANCH   9  27
TORSDOF 7
ENDMDL
MODEL 10
REMARK VINA RESULT:      -9.1      5.247     11.999
REMARK  7 active torsions:
REMARK  status: ('A' for Active; 'I' for Inactive)
REMARK    1  A    between atoms: C_3  and  C_4 
REMARK       I    between atoms: C_4  and  N_5 
REMARK    2  A    between atoms: N_5  and  C_6 
REMARK    3  A    between atoms: C_6  and  C_7 
REMARK    4  A    between atoms: N_23  and  C_24 
REMARK    5  A    between atoms: C_24  and  C_25 
REMARK       I    between atoms: C_25  and  N_26 
REMARK    6  A    between atoms: N_26  and  C_27 
REMARK    7  A    between atoms: C_29  and  C_30 
ROOT
HETATM    1  C   UNL     1     -42.543  60.568 -50.205  1.00  0.00     0.051 C 
HETATM    2  C   UNL     1     -43.760  60.565 -51.083  1.00  0.00    -0.021 A 
HETATM    3  C   UNL     1     -43.930  59.741 -52.196  1.00  0.00     0.081 A 
HETATM    4  S   UNL     1     -45.475  59.969 -52.914  1.00  0.00    -0.063 SA
HETATM    5  C   UNL     1     -45.918  61.159 -51.791  1.00  0.00     0.116 A 
HETATM    6  C   UNL     1     -44.906  61.425 -50.896  1.00  0.00     0.075 A 
HETATM    7  C   UNL     1     -45.142  62.479 -49.918  1.00  0.00     0.262 A 
HETATM    8  O   UNL     1     -44.278  62.883 -49.148  1.00  0.00    -0.267 OA
HETATM    9  N   UNL     1     -46.426  63.021 -49.965  1.00  0.00    -0.299 N 
HETATM   10  C   UNL     1     -47.355  62.612 -50.906  1.00  0.00     0.214 A 
HETATM   11  N   UNL     1     -47.145  61.735 -51.831  1.00  0.00    -0.235 NA
ENDROOT
BRANCH   3  12
HETATM   12  C   UNL     1     -42.985  58.774 -52.765  1.00  0.00     0.259 C 
HETATM   13  N   UNL     1     -43.024  57.509 -52.217  1.00  0.00    -0.354 N 
HETATM   14  H   UNL     1     -43.774  57.319 -51.561  1.00  0.00     0.162 HD
HETATM   15  O   UNL     1     -42.212  59.035 -53.684  1.00  0.00    -0.267 OA
BRANCH  13  16
HETATM   16  C   UNL     1     -42.273  56.401 -52.768  1.00  0.00     0.157 C 
BRANCH  16  17
HETATM   17  C   UNL     1     -42.941  55.017 -52.649  1.00  0.00     0.171 C 
HETATM   18  O   UNL     1     -42.207  54.169 -51.751  1.00  0.00    -0.339 OA
HETATM   19  C   UNL     1     -41.330  53.323 -52.377  1.00  0.00     0.102 A 
HETATM   20  C   UNL     1     -41.254  53.173 -53.763  1.00  0.00     0.102 A 
HETATM   21  C   UNL     1     -40.452  52.621 -51.553  1.00  0.00     0.039 A 
HETATM   22  O   UNL     1     -42.062  53.855 -54.633  1.00  0.00    -0.346 OA
HETATM   23  C   UNL     1     -40.278  52.353 -54.327  1.00  0.00     0.039 A 
HETATM   24  C   UNL     1     -43.241  54.326 -53.978  1.00  0.00     0.209 C 
HETATM   25  C   UNL     1     -39.392  51.659 -53.502  1.00  0.00     0.003 A 
HETATM   26  C   UNL     1     -39.483  51.789 -52.116  1.00  0.00     0.003 A 
ENDBRANCH  16  17
ENDBRANCH  13  16
ENDBRANCH   3  12
BRANCH   9  27
HETATM   27  C   UNL     1     -46.814  64.005 -48.963  1.00  0.00     0.236 C 
BRANCH  27  28
HETATM   28  C   UNL     1     -46.659  63.556 -47.503  1.00  0.00     0.240 C 
HETATM   29  N   UNL     1     -45.848  64.356 -46.720  1.00  0.00    -0.326 N 
HETATM   30  H   UNL     1     -45.285  65.047 -47.202  1.00  0.00     0.169 HD
HETATM   31  O   UNL     1     -47.271  62.562 -47.116  1.00  0.00    -0.271 OA
BRANCH  29  32
HETATM   32  C   UNL     1     -45.689  64.306 -45.319  1.00  0.00     0.035 A 
HETATM   33  C   UNL     1     -44.556  63.798 -44.676  1.00  0.00     0.045 A 
HETATM   34  C   UNL     1     -44.482  63.741 -43.273  1.00  0.00     0.050 A 
HETATM   35  C   UNL     1     -45.568  64.202 -42.513  1.00  0.00     0.016 A 
HETATM   36  C   UNL     1     -46.700  64.711 -43.145  1.00  0.00     0.003 A 
HETATM   37  C   UNL     1     -46.760  64.763 -44.539  1.00  0.00     0.029 A 
BRANCH  34  38
HETATM   38  C   UNL     1     -43.265  63.181 -42.578  1.00  0.00     0.417 C 
HETATM   39  F   UNL     1     -42.837  61.991 -43.082  1.00  0.00    -0.166 F 
HETATM   40  F   UNL     1     -42.194  64.022 -42.645  1.00  0.00    -0.166 F 
HETATM   41  F   UNL     1     -43.484  62.965 -41.250  1.00  0.00    -0.166 F 
ENDBRANCH  34  38
ENDBRANCH  29  32
ENDBRANCH  27  28
ENDBRANCH   9  27
TORSDOF 7
ENDMDL
