MODEL 1
REMARK VINA RESULT:      -7.9      0.000      0.000
REMARK  13 active torsions:
REMARK  status: ('A' for Active; 'I' for Inactive)
REMARK    1  A    between atoms: O_2  and  C_3 
REMARK    2  A    between atoms: C_6  and  C_7 
REMARK    3  A    between atoms: C_7  and  C_8 
REMARK    4  A    between atoms: C_9  and  C_10 
REMARK    5  A    between atoms: N_17  and  C_18 
REMARK    6  A    between atoms: C_18  and  C_19 
REMARK    7  A    between atoms: C_19  and  O_20 
REMARK    8  A    between atoms: C_19  and  C_21 
REMARK    9  A    between atoms: C_21  and  N_22 
REMARK   10  A    between atoms: N_22  and  C_25 
REMARK   11  A    between atoms: C_25  and  C_26 
REMARK   12  A    between atoms: C_26  and  C_27 
REMARK   13  A    between atoms: C_32  and  O_33 
ROOT
HETATM    1  C   UNL     1     -43.587  56.180 -60.385  1.00  0.00     0.162 C 
ENDROOT
BRANCH   1   2
HETATM    2  N   UNL     1     -43.101  56.623 -59.087  1.00  0.00    -0.353 N 
HETATM    3  C   UNL     1     -42.671  57.895 -58.773  1.00  0.00     0.045 A 
HETATM    4  C   UNL     1     -42.424  57.911 -57.394  1.00  0.00     0.002 A 
HETATM    5  C   UNL     1     -42.488  59.036 -59.572  1.00  0.00     0.030 A 
HETATM    6  C   UNL     1     -42.635  56.581 -56.914  1.00  0.00    -0.008 A 
HETATM    7  C   UNL     1     -42.042  59.134 -56.797  1.00  0.00     0.014 A 
HETATM    8  C   UNL     1     -43.073  55.821 -57.976  1.00  0.00     0.103 A 
HETATM    9  C   UNL     1     -41.875  60.276 -57.585  1.00  0.00     0.001 A 
HETATM   10  C   UNL     1     -42.084  60.222 -58.956  1.00  0.00     0.002 A 
BRANCH   6  11
HETATM   11  C   UNL     1     -42.455  56.043 -55.602  1.00  0.00     0.018 C 
HETATM   12  C   UNL     1     -41.304  56.083 -54.910  1.00  0.00     0.056 C 
BRANCH  12  13
HETATM   13  C   UNL     1     -41.229  55.507 -53.541  1.00  0.00     0.182 C 
HETATM   14  O   UNL     1     -41.471  56.201 -52.556  1.00  0.00    -0.288 OA
BRANCH  13  15
HETATM   15  C   UNL     1     -40.798  54.084 -53.375  1.00  0.00     0.014 A 
HETATM   16  C   UNL     1     -40.605  53.196 -54.442  1.00  0.00     0.018 A 
HETATM   17  C   UNL     1     -40.137  51.894 -54.214  1.00  0.00     0.037 A 
HETATM   18  C   UNL     1     -39.865  51.459 -52.918  1.00  0.00     0.068 A 
HETATM   19  C   UNL     1     -40.098  52.325 -51.849  1.00  0.00     0.037 A 
HETATM   20  C   UNL     1     -40.557  53.627 -52.073  1.00  0.00     0.018 A 
BRANCH  18  21
HETATM   21  O   UNL     1     -39.389  50.226 -52.571  1.00  0.00    -0.356 OA
HETATM   22  C   UNL     1     -39.463  49.876 -51.194  1.00  0.00     0.210 C 
ENDBRANCH  18  21
ENDBRANCH  13  15
ENDBRANCH  12  13
ENDBRANCH   6  11
ENDBRANCH   1   2
BRANCH   1  23
HETATM   23  C   UNL     1     -44.783  55.211 -60.319  1.00  0.00     0.162 C 
BRANCH  23  24
HETATM   24  O   UNL     1     -44.852  54.327 -61.457  1.00  0.00    -0.392 OA
HETATM   25  H   UNL     1     -45.058  53.427 -61.133  1.00  0.00     0.210 HD
ENDBRANCH  23  24
BRANCH  23  26
HETATM   26  C   UNL     1     -46.158  55.895 -60.195  1.00  0.00     0.265 C 
BRANCH  26  27
HETATM   27  N   UNL     1     -45.999  57.316 -60.676  1.00  0.00    -0.072 N 
HETATM   28  H   UNL     1     -44.984  57.440 -60.845  1.00  0.00     0.277 HD
HETATM   29  H   UNL     1     -46.420  57.405 -61.608  1.00  0.00     0.277 HD
BRANCH  27  30
HETATM   30  C   UNL     1     -46.542  58.390 -59.793  1.00  0.00     0.237 C 
BRANCH  30  31
HETATM   31  C   UNL     1     -46.437  58.034 -58.309  1.00  0.00     0.068 C 
BRANCH  31  32
HETATM   32  C   UNL     1     -45.967  59.207 -57.514  1.00  0.00    -0.029 A 
HETATM   33  C   UNL     1     -45.504  59.181 -56.160  1.00  0.00     0.001 A 
HETATM   34  C   UNL     1     -45.202  60.491 -55.795  1.00  0.00     0.043 A 
HETATM   35  C   UNL     1     -45.322  58.162 -55.203  1.00  0.00     0.051 A 
HETATM   36  C   UNL     1     -44.739  60.830 -54.519  1.00  0.00     0.033 A 
HETATM   37  N   UNL     1     -45.441  61.284 -56.893  1.00  0.00    -0.365 N 
HETATM   38  C   UNL     1     -44.577  59.799 -53.585  1.00  0.00     0.039 A 
HETATM   39  C   UNL     1     -44.860  58.476 -53.917  1.00  0.00     0.069 A 
HETATM   40  H   UNL     1     -45.289  62.284 -56.920  1.00  0.00     0.165 HD
HETATM   41  C   UNL     1     -45.911  60.522 -57.931  1.00  0.00     0.096 A 
BRANCH  39  42
HETATM   42  O   UNL     1     -44.742  57.393 -53.087  1.00  0.00    -0.356 OA
HETATM   43  C   UNL     1     -44.790  57.649 -51.687  1.00  0.00     0.210 C 
ENDBRANCH  39  42
ENDBRANCH  31  32
ENDBRANCH  30  31
ENDBRANCH  27  30
ENDBRANCH  26  27
ENDBRANCH  23  26
ENDBRANCH   1  23
TORSDOF 13
ENDMDL
MODEL 2
REMARK VINA RESULT:      -7.5      1.487      2.144
REMARK  13 active torsions:
REMARK  status: ('A' for Active; 'I' for Inactive)
REMARK    1  A    between atoms: O_2  and  C_3 
REMARK    2  A    between atoms: C_6  and  C_7 
REMARK    3  A    between atoms: C_7  and  C_8 
REMARK    4  A    between atoms: C_9  and  C_10 
REMARK    5  A    between atoms: N_17  and  C_18 
REMARK    6  A    between atoms: C_18  and  C_19 
REMARK    7  A    between atoms: C_19  and  O_20 
REMARK    8  A    between atoms: C_19  and  C_21 
REMARK    9  A    between atoms: C_21  and  N_22 
REMARK   10  A    between atoms: N_22  and  C_25 
REMARK   11  A    between atoms: C_25  and  C_26 
REMARK   12  A    between atoms: C_26  and  C_27 
REMARK   13  A    between atoms: C_32  and  O_33 
ROOT
HETATM    1  C   UNL     1     -43.889  56.113 -60.318  1.00  0.00     0.162 C 
ENDROOT
BRANCH   1   2
HETATM    2  N   UNL     1     -43.241  56.743 -59.178  1.00  0.00    -0.353 N 
HETATM    3  C   UNL     1     -42.689  58.007 -59.155  1.00  0.00     0.045 A 
HETATM    4  C   UNL     1     -42.301  58.256 -57.832  1.00  0.00     0.002 A 
HETATM    5  C   UNL     1     -42.507  58.958 -60.173  1.00  0.00     0.030 A 
HETATM    6  C   UNL     1     -42.558  57.064 -57.087  1.00  0.00    -0.008 A 
HETATM    7  C   UNL     1     -41.772  59.529 -57.519  1.00  0.00     0.014 A 
HETATM    8  C   UNL     1     -43.157  56.162 -57.939  1.00  0.00     0.103 A 
HETATM    9  C   UNL     1     -41.604  60.485 -58.525  1.00  0.00     0.001 A 
HETATM   10  C   UNL     1     -41.956  60.197 -59.836  1.00  0.00     0.002 A 
BRANCH   6  11
HETATM   11  C   UNL     1     -42.283  56.765 -55.717  1.00  0.00     0.018 C 
HETATM   12  C   UNL     1     -41.708  55.632 -55.280  1.00  0.00     0.056 C 
BRANCH  12  13
HETATM   13  C   UNL     1     -41.450  55.430 -53.830  1.00  0.00     0.182 C 
HETATM   14  O   UNL     1     -41.661  56.334 -53.025  1.00  0.00    -0.288 OA
BRANCH  13  15
HETATM   15  C   UNL     1     -40.874  54.128 -53.369  1.00  0.00     0.014 A 
HETATM   16  C   UNL     1     -40.462  53.106 -54.236  1.00  0.00     0.018 A 
HETATM   17  C   UNL     1     -39.871  51.937 -53.733  1.00  0.00     0.037 A 
HETATM   18  C   UNL     1     -39.692  51.771 -52.361  1.00  0.00     0.068 A 
HETATM   19  C   UNL     1     -40.141  52.767 -51.493  1.00  0.00     0.037 A 
HETATM   20  C   UNL     1     -40.724  53.936 -51.990  1.00  0.00     0.018 A 
BRANCH  18  21
HETATM   21  O   UNL     1     -39.114  50.691 -51.755  1.00  0.00    -0.356 OA
HETATM   22  C   UNL     1     -39.485  49.408 -52.246  1.00  0.00     0.210 C 
ENDBRANCH  18  21
ENDBRANCH  13  15
ENDBRANCH  12  13
ENDBRANCH   6  11
ENDBRANCH   1   2
BRANCH   1  23
HETATM   23  C   UNL     1     -45.174  55.338 -59.970  1.00  0.00     0.162 C 
BRANCH  23  24
HETATM   24  O   UNL     1     -45.049  53.918 -60.191  1.00  0.00    -0.392 OA
HETATM   25  H   UNL     1     -44.180  53.748 -60.606  1.00  0.00     0.210 HD
ENDBRANCH  23  24
BRANCH  23  26
HETATM   26  C   UNL     1     -46.431  55.804 -60.730  1.00  0.00     0.265 C 
BRANCH  26  27
HETATM   27  N   UNL     1     -46.238  57.262 -61.066  1.00  0.00    -0.072 N 
HETATM   28  H   UNL     1     -45.230  57.450 -60.920  1.00  0.00     0.277 HD
HETATM   29  H   UNL     1     -46.373  57.395 -62.075  1.00  0.00     0.277 HD
BRANCH  27  30
HETATM   30  C   UNL     1     -47.091  58.241 -60.329  1.00  0.00     0.237 C 
BRANCH  30  31
HETATM   31  C   UNL     1     -46.265  59.315 -59.619  1.00  0.00     0.068 C 
BRANCH  31  32
HETATM   32  C   UNL     1     -46.100  58.987 -58.172  1.00  0.00    -0.029 A 
HETATM   33  C   UNL     1     -45.471  59.811 -57.184  1.00  0.00     0.001 A 
HETATM   34  C   UNL     1     -45.497  59.113 -55.979  1.00  0.00     0.043 A 
HETATM   35  C   UNL     1     -44.870  61.086 -57.205  1.00  0.00     0.051 A 
HETATM   36  C   UNL     1     -44.943  59.624 -54.800  1.00  0.00     0.033 A 
HETATM   37  N   UNL     1     -46.145  57.922 -56.212  1.00  0.00    -0.365 N 
HETATM   38  C   UNL     1     -44.343  60.889 -54.852  1.00  0.00     0.039 A 
HETATM   39  C   UNL     1     -44.307  61.620 -56.037  1.00  0.00     0.069 A 
HETATM   40  H   UNL     1     -46.325  57.221 -55.505  1.00  0.00     0.165 HD
HETATM   41  C   UNL     1     -46.504  57.833 -57.532  1.00  0.00     0.096 A 
BRANCH  39  42
HETATM   42  O   UNL     1     -43.748  62.858 -56.205  1.00  0.00    -0.356 OA
HETATM   43  C   UNL     1     -44.316  63.689 -57.212  1.00  0.00     0.210 C 
ENDBRANCH  39  42
ENDBRANCH  31  32
ENDBRANCH  30  31
ENDBRANCH  27  30
ENDBRANCH  26  27
ENDBRANCH  23  26
ENDBRANCH   1  23
TORSDOF 13
ENDMDL
MODEL 3
REMARK VINA RESULT:      -7.5      2.815      7.883
REMARK  13 active torsions:
REMARK  status: ('A' for Active; 'I' for Inactive)
REMARK    1  A    between atoms: O_2  and  C_3 
REMARK    2  A    between atoms: C_6  and  C_7 
REMARK    3  A    between atoms: C_7  and  C_8 
REMARK    4  A    between atoms: C_9  and  C_10 
REMARK    5  A    between atoms: N_17  and  C_18 
REMARK    6  A    between atoms: C_18  and  C_19 
REMARK    7  A    between atoms: C_19  and  O_20 
REMARK    8  A    between atoms: C_19  and  C_21 
REMARK    9  A    between atoms: C_21  and  N_22 
REMARK   10  A    between atoms: N_22  and  C_25 
REMARK   11  A    between atoms: C_25  and  C_26 
REMARK   12  A    between atoms: C_26  and  C_27 
REMARK   13  A    between atoms: C_32  and  O_33 
ROOT
HETATM    1  C   UNL     1     -42.312  54.842 -50.800  1.00  0.00     0.162 C 
ENDROOT
BRANCH   1   2
HETATM    2  N   UNL     1     -42.067  54.386 -52.159  1.00  0.00    -0.353 N 
HETATM    3  C   UNL     1     -41.176  53.402 -52.537  1.00  0.00     0.045 A 
HETATM    4  C   UNL     1     -41.360  53.193 -53.910  1.00  0.00     0.002 A 
HETATM    5  C   UNL     1     -40.234  52.670 -51.795  1.00  0.00     0.030 A 
HETATM    6  C   UNL     1     -42.328  54.147 -54.354  1.00  0.00    -0.008 A 
HETATM    7  C   UNL     1     -40.615  52.168 -54.536  1.00  0.00     0.014 A 
HETATM    8  C   UNL     1     -42.758  54.848 -53.249  1.00  0.00     0.103 A 
HETATM    9  C   UNL     1     -39.689  51.425 -53.800  1.00  0.00     0.001 A 
HETATM   10  C   UNL     1     -39.493  51.683 -52.450  1.00  0.00     0.002 A 
BRANCH   6  11
HETATM   11  C   UNL     1     -42.821  54.403 -55.670  1.00  0.00     0.018 C 
HETATM   12  C   UNL     1     -42.641  55.551 -56.346  1.00  0.00     0.056 C 
BRANCH  12  13
HETATM   13  C   UNL     1     -43.183  55.707 -57.722  1.00  0.00     0.182 C 
HETATM   14  O   UNL     1     -43.727  54.763 -58.291  1.00  0.00    -0.288 OA
BRANCH  13  15
HETATM   15  C   UNL     1     -43.006  57.014 -58.428  1.00  0.00     0.014 A 
HETATM   16  C   UNL     1     -42.067  57.984 -58.052  1.00  0.00     0.018 A 
HETATM   17  C   UNL     1     -41.913  59.159 -58.802  1.00  0.00     0.037 A 
HETATM   18  C   UNL     1     -42.700  59.384 -59.931  1.00  0.00     0.068 A 
HETATM   19  C   UNL     1     -43.666  58.441 -60.283  1.00  0.00     0.037 A 
HETATM   20  C   UNL     1     -43.817  57.265 -59.542  1.00  0.00     0.018 A 
BRANCH  18  21
HETATM   21  O   UNL     1     -42.630  60.476 -60.749  1.00  0.00    -0.356 OA
HETATM   22  C   UNL     1     -41.853  61.574 -60.286  1.00  0.00     0.210 C 
ENDBRANCH  18  21
ENDBRANCH  13  15
ENDBRANCH  12  13
ENDBRANCH   6  11
ENDBRANCH   1   2
BRANCH   1  23
HETATM   23  C   UNL     1     -41.383  55.978 -50.333  1.00  0.00     0.162 C 
BRANCH  23  24
HETATM   24  O   UNL     1     -41.337  56.111 -48.898  1.00  0.00    -0.392 OA
HETATM   25  H   UNL     1     -41.435  55.221 -48.505  1.00  0.00     0.210 HD
ENDBRANCH  23  24
BRANCH  23  26
HETATM   26  C   UNL     1     -41.729  57.367 -50.905  1.00  0.00     0.265 C 
BRANCH  26  27
HETATM   27  N   UNL     1     -43.233  57.491 -50.904  1.00  0.00    -0.072 N 
HETATM   28  H   UNL     1     -43.591  56.530 -51.054  1.00  0.00     0.277 HD
HETATM   29  H   UNL     1     -43.550  57.731 -49.957  1.00  0.00     0.277 HD
BRANCH  27  30
HETATM   30  C   UNL     1     -43.828  58.456 -51.874  1.00  0.00     0.237 C 
BRANCH  30  31
HETATM   31  C   UNL     1     -43.145  58.405 -53.242  1.00  0.00     0.068 C 
BRANCH  31  32
HETATM   32  C   UNL     1     -44.155  58.312 -54.337  1.00  0.00    -0.029 A 
HETATM   33  C   UNL     1     -44.338  59.252 -55.402  1.00  0.00     0.001 A 
HETATM   34  C   UNL     1     -45.409  58.806 -56.174  1.00  0.00     0.043 A 
HETATM   35  C   UNL     1     -43.697  60.450 -55.776  1.00  0.00     0.051 A 
HETATM   36  C   UNL     1     -45.873  59.505 -57.293  1.00  0.00     0.033 A 
HETATM   37  N   UNL     1     -45.844  57.623 -55.622  1.00  0.00    -0.365 N 
HETATM   38  C   UNL     1     -45.223  60.698 -57.637  1.00  0.00     0.039 A 
HETATM   39  C   UNL     1     -44.144  61.169 -56.894  1.00  0.00     0.069 A 
HETATM   40  H   UNL     1     -46.602  57.065 -55.991  1.00  0.00     0.165 HD
HETATM   41  C   UNL     1     -45.101  57.322 -54.509  1.00  0.00     0.096 A 
BRANCH  39  42
HETATM   42  O   UNL     1     -43.439  62.318 -57.134  1.00  0.00    -0.356 OA
HETATM   43  C   UNL     1     -43.484  63.322 -56.125  1.00  0.00     0.210 C 
ENDBRANCH  39  42
ENDBRANCH  31  32
ENDBRANCH  30  31
ENDBRANCH  27  30
ENDBRANCH  26  27
ENDBRANCH  23  26
ENDBRANCH   1  23
TORSDOF 13
ENDMDL
MODEL 4
REMARK VINA RESULT:      -7.5      2.286      5.214
REMARK  13 active torsions:
REMARK  status: ('A' for Active; 'I' for Inactive)
REMARK    1  A    between atoms: O_2  and  C_3 
REMARK    2  A    between atoms: C_6  and  C_7 
REMARK    3  A    between atoms: C_7  and  C_8 
REMARK    4  A    between atoms: C_9  and  C_10 
REMARK    5  A    between atoms: N_17  and  C_18 
REMARK    6  A    between atoms: C_18  and  C_19 
REMARK    7  A    between atoms: C_19  and  O_20 
REMARK    8  A    between atoms: C_19  and  C_21 
REMARK    9  A    between atoms: C_21  and  N_22 
REMARK   10  A    between atoms: N_22  and  C_25 
REMARK   11  A    between atoms: C_25  and  C_26 
REMARK   12  A    between atoms: C_26  and  C_27 
REMARK   13  A    between atoms: C_32  and  O_33 
ROOT
HETATM    1  C   UNL     1     -42.383  61.019 -56.807  1.00  0.00     0.162 C 
ENDROOT
BRANCH   1   2
HETATM    2  N   UNL     1     -43.280  59.878 -56.710  1.00  0.00    -0.353 N 
HETATM    3  C   UNL     1     -44.597  59.845 -57.118  1.00  0.00     0.045 A 
HETATM    4  C   UNL     1     -45.036  58.523 -56.965  1.00  0.00     0.002 A 
HETATM    5  C   UNL     1     -45.439  60.852 -57.620  1.00  0.00     0.030 A 
HETATM    6  C   UNL     1     -43.963  57.791 -56.368  1.00  0.00    -0.008 A 
HETATM    7  C   UNL     1     -46.344  58.199 -57.392  1.00  0.00     0.014 A 
HETATM    8  C   UNL     1     -42.892  58.648 -56.246  1.00  0.00     0.103 A 
HETATM    9  C   UNL     1     -47.180  59.194 -57.907  1.00  0.00     0.001 A 
HETATM   10  C   UNL     1     -46.735  60.504 -58.007  1.00  0.00     0.002 A 
BRANCH   6  11
HETATM   11  C   UNL     1     -43.913  56.428 -55.941  1.00  0.00     0.018 C 
HETATM   12  C   UNL     1     -42.850  55.619 -56.084  1.00  0.00     0.056 C 
BRANCH  12  13
HETATM   13  C   UNL     1     -42.899  54.218 -55.587  1.00  0.00     0.182 C 
HETATM   14  O   UNL     1     -43.630  53.389 -56.123  1.00  0.00    -0.288 OA
BRANCH  13  15
HETATM   15  C   UNL     1     -42.087  53.845 -54.387  1.00  0.00     0.014 A 
HETATM   16  C   UNL     1     -40.887  53.122 -54.450  1.00  0.00     0.018 A 
HETATM   17  C   UNL     1     -40.146  52.864 -53.287  1.00  0.00     0.037 A 
HETATM   18  C   UNL     1     -40.597  53.316 -52.048  1.00  0.00     0.068 A 
HETATM   19  C   UNL     1     -41.813  53.998 -51.976  1.00  0.00     0.037 A 
HETATM   20  C   UNL     1     -42.550  54.263 -53.134  1.00  0.00     0.018 A 
BRANCH  18  21
HETATM   21  O   UNL     1     -39.958  53.145 -50.853  1.00  0.00    -0.356 OA
HETATM   22  C   UNL     1     -40.024  54.227 -49.931  1.00  0.00     0.210 C 
ENDBRANCH  18  21
ENDBRANCH  13  15
ENDBRANCH  12  13
ENDBRANCH   6  11
ENDBRANCH   1   2
BRANCH   1  23
HETATM   23  C   UNL     1     -41.582  61.088 -58.122  1.00  0.00     0.162 C 
BRANCH  23  24
HETATM   24  O   UNL     1     -40.295  61.718 -57.962  1.00  0.00    -0.392 OA
HETATM   25  H   UNL     1     -40.422  62.688 -58.008  1.00  0.00     0.210 HD
ENDBRANCH  23  24
BRANCH  23  26
HETATM   26  C   UNL     1     -42.302  61.815 -59.275  1.00  0.00     0.265 C 
BRANCH  26  27
HETATM   27  N   UNL     1     -41.563  61.482 -60.547  1.00  0.00    -0.072 N 
HETATM   28  H   UNL     1     -41.548  62.360 -61.098  1.00  0.00     0.277 HD
HETATM   29  H   UNL     1     -40.575  61.308 -60.327  1.00  0.00     0.277 HD
BRANCH  27  30
HETATM   30  C   UNL     1     -42.090  60.340 -61.351  1.00  0.00     0.237 C 
BRANCH  30  31
HETATM   31  C   UNL     1     -43.317  59.691 -60.709  1.00  0.00     0.068 C 
BRANCH  31  32
HETATM   32  C   UNL     1     -43.021  58.287 -60.299  1.00  0.00    -0.029 A 
HETATM   33  C   UNL     1     -43.962  57.209 -60.232  1.00  0.00     0.001 A 
HETATM   34  C   UNL     1     -43.279  56.087 -59.766  1.00  0.00     0.043 A 
HETATM   35  C   UNL     1     -45.337  57.085 -60.516  1.00  0.00     0.051 A 
HETATM   36  C   UNL     1     -43.908  54.854 -59.562  1.00  0.00     0.033 A 
HETATM   37  N   UNL     1     -41.967  56.455 -59.585  1.00  0.00    -0.365 N 
HETATM   38  C   UNL     1     -45.278  54.762 -59.842  1.00  0.00     0.039 A 
HETATM   39  C   UNL     1     -45.990  55.860 -60.318  1.00  0.00     0.069 A 
HETATM   40  H   UNL     1     -41.236  55.831 -59.269  1.00  0.00     0.165 HD
HETATM   41  C   UNL     1     -41.803  57.781 -59.894  1.00  0.00     0.096 A 
BRANCH  39  42
HETATM   42  O   UNL     1     -47.325  55.886 -60.621  1.00  0.00    -0.356 OA
HETATM   43  C   UNL     1     -47.798  57.020 -61.341  1.00  0.00     0.210 C 
ENDBRANCH  39  42
ENDBRANCH  31  32
ENDBRANCH  30  31
ENDBRANCH  27  30
ENDBRANCH  26  27
ENDBRANCH  23  26
ENDBRANCH   1  23
TORSDOF 13
ENDMDL
MODEL 5
REMARK VINA RESULT:      -7.4      3.740      6.701
REMARK  13 active torsions:
REMARK  status: ('A' for Active; 'I' for Inactive)
REMARK    1  A    between atoms: O_2  and  C_3 
REMARK    2  A    between atoms: C_6  and  C_7 
REMARK    3  A    between atoms: C_7  and  C_8 
REMARK    4  A    between atoms: C_9  and  C_10 
REMARK    5  A    between atoms: N_17  and  C_18 
REMARK    6  A    between atoms: C_18  and  C_19 
REMARK    7  A    between atoms: C_19  and  O_20 
REMARK    8  A    between atoms: C_19  and  C_21 
REMARK    9  A    between atoms: C_21  and  N_22 
REMARK   10  A    between atoms: N_22  and  C_25 
REMARK   11  A    between atoms: C_25  and  C_26 
REMARK   12  A    between atoms: C_26  and  C_27 
REMARK   13  A    between atoms: C_32  and  O_33 
ROOT
HETATM    1  C   UNL     1     -45.774  59.293 -51.301  1.00  0.00     0.162 C 
ENDROOT
BRANCH   1   2
HETATM    2  N   UNL     1     -44.998  58.132 -51.709  1.00  0.00    -0.353 N 
HETATM    3  C   UNL     1     -44.721  57.755 -53.006  1.00  0.00     0.045 A 
HETATM    4  C   UNL     1     -43.839  56.669 -52.935  1.00  0.00     0.002 A 
HETATM    5  C   UNL     1     -45.155  58.278 -54.236  1.00  0.00     0.030 A 
HETATM    6  C   UNL     1     -43.671  56.355 -51.551  1.00  0.00    -0.008 A 
HETATM    7  C   UNL     1     -43.332  56.138 -54.143  1.00  0.00     0.014 A 
HETATM    8  C   UNL     1     -44.378  57.287 -50.824  1.00  0.00     0.103 A 
HETATM    9  C   UNL     1     -43.749  56.665 -55.369  1.00  0.00     0.001 A 
HETATM   10  C   UNL     1     -44.658  57.713 -55.413  1.00  0.00     0.002 A 
BRANCH   6  11
HETATM   11  C   UNL     1     -42.932  55.297 -50.937  1.00  0.00     0.018 C 
HETATM   12  C   UNL     1     -41.860  55.470 -50.146  1.00  0.00     0.056 C 
BRANCH  12  13
HETATM   13  C   UNL     1     -41.173  54.297 -49.542  1.00  0.00     0.182 C 
HETATM   14  O   UNL     1     -40.940  54.260 -48.337  1.00  0.00    -0.288 OA
BRANCH  13  15
HETATM   15  C   UNL     1     -40.717  53.185 -50.434  1.00  0.00     0.014 A 
HETATM   16  C   UNL     1     -40.408  53.349 -51.791  1.00  0.00     0.018 A 
HETATM   17  C   UNL     1     -39.924  52.272 -52.549  1.00  0.00     0.037 A 
HETATM   18  C   UNL     1     -39.750  51.019 -51.964  1.00  0.00     0.068 A 
HETATM   19  C   UNL     1     -40.099  50.841 -50.625  1.00  0.00     0.037 A 
HETATM   20  C   UNL     1     -40.575  51.914 -49.864  1.00  0.00     0.018 A 
BRANCH  18  21
HETATM   21  O   UNL     1     -39.271  49.903 -52.591  1.00  0.00    -0.356 OA
HETATM   22  C   UNL     1     -39.500  49.809 -53.993  1.00  0.00     0.210 C 
ENDBRANCH  18  21
ENDBRANCH  13  15
ENDBRANCH  12  13
ENDBRANCH   6  11
ENDBRANCH   1   2
BRANCH   1  23
HETATM   23  C   UNL     1     -45.445  59.814 -49.890  1.00  0.00     0.162 C 
BRANCH  23  24
HETATM   24  O   UNL     1     -46.094  59.058 -48.847  1.00  0.00    -0.392 OA
HETATM   25  H   UNL     1     -46.715  58.429 -49.267  1.00  0.00     0.210 HD
ENDBRANCH  23  24
BRANCH  23  26
HETATM   26  C   UNL     1     -45.793  61.297 -49.656  1.00  0.00     0.265 C 
BRANCH  26  27
HETATM   27  N   UNL     1     -44.635  61.920 -48.916  1.00  0.00    -0.072 N 
HETATM   28  H   UNL     1     -45.058  62.435 -48.122  1.00  0.00     0.277 HD
HETATM   29  H   UNL     1     -44.084  61.179 -48.469  1.00  0.00     0.277 HD
BRANCH  27  30
HETATM   30  C   UNL     1     -43.722  62.793 -49.711  1.00  0.00     0.237 C 
BRANCH  30  31
HETATM   31  C   UNL     1     -43.421  62.215 -51.095  1.00  0.00     0.068 C 
BRANCH  31  32
HETATM   32  C   UNL     1     -42.522  61.028 -50.991  1.00  0.00    -0.029 A 
HETATM   33  C   UNL     1     -42.000  60.262 -52.082  1.00  0.00     0.001 A 
HETATM   34  C   UNL     1     -41.243  59.225 -51.542  1.00  0.00     0.043 A 
HETATM   35  C   UNL     1     -42.111  60.349 -53.485  1.00  0.00     0.051 A 
HETATM   36  C   UNL     1     -40.602  58.268 -52.336  1.00  0.00     0.033 A 
HETATM   37  N   UNL     1     -41.273  59.369 -50.175  1.00  0.00    -0.365 N 
HETATM   38  C   UNL     1     -40.737  58.373 -53.727  1.00  0.00     0.039 A 
HETATM   39  C   UNL     1     -41.478  59.402 -54.302  1.00  0.00     0.069 A 
HETATM   40  H   UNL     1     -40.790  58.762 -49.525  1.00  0.00     0.165 HD
HETATM   41  C   UNL     1     -42.049  60.447 -49.832  1.00  0.00     0.096 A 
BRANCH  39  42
HETATM   42  O   UNL     1     -41.680  59.599 -55.642  1.00  0.00    -0.356 OA
HETATM   43  C   UNL     1     -42.535  60.676 -56.011  1.00  0.00     0.210 C 
ENDBRANCH  39  42
ENDBRANCH  31  32
ENDBRANCH  30  31
ENDBRANCH  27  30
ENDBRANCH  26  27
ENDBRANCH  23  26
ENDBRANCH   1  23
TORSDOF 13
ENDMDL
MODEL 6
REMARK VINA RESULT:      -7.2      2.786      7.773
REMARK  13 active torsions:
REMARK  status: ('A' for Active; 'I' for Inactive)
REMARK    1  A    between atoms: O_2  and  C_3 
REMARK    2  A    between atoms: C_6  and  C_7 
REMARK    3  A    between atoms: C_7  and  C_8 
REMARK    4  A    between atoms: C_9  and  C_10 
REMARK    5  A    between atoms: N_17  and  C_18 
REMARK    6  A    between atoms: C_18  and  C_19 
REMARK    7  A    between atoms: C_19  and  O_20 
REMARK    8  A    between atoms: C_19  and  C_21 
REMARK    9  A    between atoms: C_21  and  N_22 
REMARK   10  A    between atoms: N_22  and  C_25 
REMARK   11  A    between atoms: C_25  and  C_26 
REMARK   12  A    between atoms: C_26  and  C_27 
REMARK   13  A    between atoms: C_32  and  O_33 
ROOT
HETATM    1  C   UNL     1     -42.371  54.989 -50.946  1.00  0.00     0.162 C 
ENDROOT
BRANCH   1   2
HETATM    2  N   UNL     1     -42.004  54.533 -52.277  1.00  0.00    -0.353 N 
HETATM    3  C   UNL     1     -41.145  53.495 -52.571  1.00  0.00     0.045 A 
HETATM    4  C   UNL     1     -41.185  53.314 -53.960  1.00  0.00     0.002 A 
HETATM    5  C   UNL     1     -40.344  52.691 -51.742  1.00  0.00     0.030 A 
HETATM    6  C   UNL     1     -42.030  54.337 -54.492  1.00  0.00    -0.008 A 
HETATM    7  C   UNL     1     -40.445  52.247 -54.517  1.00  0.00     0.014 A 
HETATM    8  C   UNL     1     -42.534  55.054 -53.429  1.00  0.00     0.103 A 
HETATM    9  C   UNL     1     -39.660  51.434 -53.695  1.00  0.00     0.001 A 
HETATM   10  C   UNL     1     -39.603  51.662 -52.327  1.00  0.00     0.002 A 
BRANCH   6  11
HETATM   11  C   UNL     1     -42.352  54.642 -55.850  1.00  0.00     0.018 C 
HETATM   12  C   UNL     1     -42.840  55.819 -56.277  1.00  0.00     0.056 C 
BRANCH  12  13
HETATM   13  C   UNL     1     -43.124  56.036 -57.720  1.00  0.00     0.182 C 
HETATM   14  O   UNL     1     -43.586  55.131 -58.410  1.00  0.00    -0.288 OA
BRANCH  13  15
HETATM   15  C   UNL     1     -42.786  57.358 -58.335  1.00  0.00     0.014 A 
HETATM   16  C   UNL     1     -43.251  57.777 -59.590  1.00  0.00     0.018 A 
HETATM   17  C   UNL     1     -42.945  59.057 -60.075  1.00  0.00     0.037 A 
HETATM   18  C   UNL     1     -42.165  59.930 -59.318  1.00  0.00     0.068 A 
HETATM   19  C   UNL     1     -41.664  59.501 -58.089  1.00  0.00     0.037 A 
HETATM   20  C   UNL     1     -41.973  58.228 -57.599  1.00  0.00     0.018 A 
BRANCH  18  21
HETATM   21  O   UNL     1     -41.817  61.203 -59.673  1.00  0.00    -0.356 OA
HETATM   22  C   UNL     1     -40.908  61.881 -58.813  1.00  0.00     0.210 C 
ENDBRANCH  18  21
ENDBRANCH  13  15
ENDBRANCH  12  13
ENDBRANCH   6  11
ENDBRANCH   1   2
BRANCH   1  23
HETATM   23  C   UNL     1     -41.386  55.998 -50.326  1.00  0.00     0.162 C 
BRANCH  23  24
HETATM   24  O   UNL     1     -41.281  55.871 -48.893  1.00  0.00    -0.392 OA
HETATM   25  H   UNL     1     -41.270  54.919 -48.670  1.00  0.00     0.210 HD
ENDBRANCH  23  24
BRANCH  23  26
HETATM   26  C   UNL     1     -41.706  57.476 -50.626  1.00  0.00     0.265 C 
BRANCH  26  27
HETATM   27  N   UNL     1     -43.193  57.576 -50.858  1.00  0.00    -0.072 N 
HETATM   28  H   UNL     1     -43.475  56.660 -51.251  1.00  0.00     0.277 HD
HETATM   29  H   UNL     1     -43.673  57.617 -49.951  1.00  0.00     0.277 HD
BRANCH  27  30
HETATM   30  C   UNL     1     -43.666  58.707 -51.709  1.00  0.00     0.237 C 
BRANCH  30  31
HETATM   31  C   UNL     1     -43.536  58.407 -53.203  1.00  0.00     0.068 C 
BRANCH  31  32
HETATM   32  C   UNL     1     -43.403  59.669 -53.989  1.00  0.00    -0.029 A 
HETATM   33  C   UNL     1     -44.100  59.992 -55.197  1.00  0.00     0.001 A 
HETATM   34  C   UNL     1     -43.652  61.243 -55.617  1.00  0.00     0.043 A 
HETATM   35  C   UNL     1     -45.066  59.330 -55.981  1.00  0.00     0.051 A 
HETATM   36  C   UNL     1     -44.117  61.856 -56.785  1.00  0.00     0.033 A 
HETATM   37  N   UNL     1     -42.740  61.682 -54.686  1.00  0.00    -0.365 N 
HETATM   38  C   UNL     1     -45.069  61.171 -57.551  1.00  0.00     0.039 A 
HETATM   39  C   UNL     1     -45.547  59.923 -57.157  1.00  0.00     0.069 A 
HETATM   40  H   UNL     1     -42.265  62.575 -54.727  1.00  0.00     0.165 HD
HETATM   41  C   UNL     1     -42.576  60.738 -53.705  1.00  0.00     0.096 A 
BRANCH  39  42
HETATM   42  O   UNL     1     -46.471  59.166 -57.826  1.00  0.00    -0.356 OA
HETATM   43  C   UNL     1     -47.708  59.795 -58.144  1.00  0.00     0.210 C 
ENDBRANCH  39  42
ENDBRANCH  31  32
ENDBRANCH  30  31
ENDBRANCH  27  30
ENDBRANCH  26  27
ENDBRANCH  23  26
ENDBRANCH   1  23
TORSDOF 13
ENDMDL
MODEL 7
REMARK VINA RESULT:      -7.1      3.554      6.026
REMARK  13 active torsions:
REMARK  status: ('A' for Active; 'I' for Inactive)
REMARK    1  A    between atoms: O_2  and  C_3 
REMARK    2  A    between atoms: C_6  and  C_7 
REMARK    3  A    between atoms: C_7  and  C_8 
REMARK    4  A    between atoms: C_9  and  C_10 
REMARK    5  A    between atoms: N_17  and  C_18 
REMARK    6  A    between atoms: C_18  and  C_19 
REMARK    7  A    between atoms: C_19  and  O_20 
REMARK    8  A    between atoms: C_19  and  C_21 
REMARK    9  A    between atoms: C_21  and  N_22 
REMARK   10  A    between atoms: N_22  and  C_25 
REMARK   11  A    between atoms: C_25  and  C_26 
REMARK   12  A    between atoms: C_26  and  C_27 
REMARK   13  A    between atoms: C_32  and  O_33 
ROOT
HETATM    1  C   UNL     1     -45.886  59.282 -51.222  1.00  0.00     0.162 C 
ENDROOT
BRANCH   1   2
HETATM    2  N   UNL     1     -45.091  58.185 -51.752  1.00  0.00    -0.353 N 
HETATM    3  C   UNL     1     -44.838  57.936 -53.085  1.00  0.00     0.045 A 
HETATM    4  C   UNL     1     -43.927  56.872 -53.134  1.00  0.00     0.002 A 
HETATM    5  C   UNL     1     -45.316  58.556 -54.252  1.00  0.00     0.030 A 
HETATM    6  C   UNL     1     -43.716  56.438 -51.789  1.00  0.00    -0.008 A 
HETATM    7  C   UNL     1     -43.439  56.468 -54.397  1.00  0.00     0.014 A 
HETATM    8  C   UNL     1     -44.428  57.280 -50.964  1.00  0.00     0.103 A 
HETATM    9  C   UNL     1     -43.899  57.092 -55.560  1.00  0.00     0.001 A 
HETATM   10  C   UNL     1     -44.835  58.115 -55.486  1.00  0.00     0.002 A 
BRANCH   6  11
HETATM   11  C   UNL     1     -42.936  55.349 -51.292  1.00  0.00     0.018 C 
HETATM   12  C   UNL     1     -41.831  55.479 -50.538  1.00  0.00     0.056 C 
BRANCH  12  13
HETATM   13  C   UNL     1     -41.102  54.276 -50.058  1.00  0.00     0.182 C 
HETATM   14  O   UNL     1     -40.830  54.142 -48.867  1.00  0.00    -0.288 OA
BRANCH  13  15
HETATM   15  C   UNL     1     -40.651  53.254 -51.054  1.00  0.00     0.014 A 
HETATM   16  C   UNL     1     -40.624  53.472 -52.439  1.00  0.00     0.018 A 
HETATM   17  C   UNL     1     -40.127  52.490 -53.308  1.00  0.00     0.037 A 
HETATM   18  C   UNL     1     -39.660  51.276 -52.807  1.00  0.00     0.068 A 
HETATM   19  C   UNL     1     -39.726  51.038 -51.434  1.00  0.00     0.037 A 
HETATM   20  C   UNL     1     -40.214  52.018 -50.564  1.00  0.00     0.018 A 
BRANCH  18  21
HETATM   21  O   UNL     1     -39.138  50.253 -53.548  1.00  0.00    -0.356 OA
HETATM   22  C   UNL     1     -39.902  49.820 -54.668  1.00  0.00     0.210 C 
ENDBRANCH  18  21
ENDBRANCH  13  15
ENDBRANCH  12  13
ENDBRANCH   6  11
ENDBRANCH   1   2
BRANCH   1  23
HETATM   23  C   UNL     1     -45.339  59.890 -49.917  1.00  0.00     0.162 C 
BRANCH  23  24
HETATM   24  O   UNL     1     -45.949  59.328 -48.738  1.00  0.00    -0.392 OA
HETATM   25  H   UNL     1     -46.640  58.697 -49.023  1.00  0.00     0.210 HD
ENDBRANCH  23  24
BRANCH  23  26
HETATM   26  C   UNL     1     -45.482  61.421 -49.813  1.00  0.00     0.265 C 
BRANCH  26  27
HETATM   27  N   UNL     1     -45.440  61.974 -51.217  1.00  0.00    -0.072 N 
HETATM   28  H   UNL     1     -45.680  61.178 -51.835  1.00  0.00     0.277 HD
HETATM   29  H   UNL     1     -46.218  62.632 -51.342  1.00  0.00     0.277 HD
BRANCH  27  30
HETATM   30  C   UNL     1     -44.171  62.635 -51.641  1.00  0.00     0.237 C 
BRANCH  30  31
HETATM   31  C   UNL     1     -44.165  62.985 -53.130  1.00  0.00     0.068 C 
BRANCH  31  32
HETATM   32  C   UNL     1     -43.389  61.976 -53.910  1.00  0.00    -0.029 A 
HETATM   33  C   UNL     1     -42.604  60.909 -53.367  1.00  0.00     0.001 A 
HETATM   34  C   UNL     1     -42.020  60.234 -54.436  1.00  0.00     0.043 A 
HETATM   35  C   UNL     1     -42.326  60.460 -52.060  1.00  0.00     0.051 A 
HETATM   36  C   UNL     1     -41.165  59.140 -54.260  1.00  0.00     0.033 A 
HETATM   37  N   UNL     1     -42.456  60.843 -55.589  1.00  0.00    -0.365 N 
HETATM   38  C   UNL     1     -40.898  58.721 -52.950  1.00  0.00     0.039 A 
HETATM   39  C   UNL     1     -41.472  59.366 -51.857  1.00  0.00     0.069 A 
HETATM   40  H   UNL     1     -42.203  60.547 -56.524  1.00  0.00     0.165 HD
HETATM   41  C   UNL     1     -43.274  61.900 -55.283  1.00  0.00     0.096 A 
BRANCH  39  42
HETATM   42  O   UNL     1     -41.280  59.046 -50.540  1.00  0.00    -0.356 OA
HETATM   43  C   UNL     1     -40.181  59.668 -49.881  1.00  0.00     0.210 C 
ENDBRANCH  39  42
ENDBRANCH  31  32
ENDBRANCH  30  31
ENDBRANCH  27  30
ENDBRANCH  26  27
ENDBRANCH  23  26
ENDBRANCH   1  23
TORSDOF 13
ENDMDL
MODEL 8
REMARK VINA RESULT:      -7.0      1.974      4.357
REMARK  13 active torsions:
REMARK  status: ('A' for Active; 'I' for Inactive)
REMARK    1  A    between atoms: O_2  and  C_3 
REMARK    2  A    between atoms: C_6  and  C_7 
REMARK    3  A    between atoms: C_7  and  C_8 
REMARK    4  A    between atoms: C_9  and  C_10 
REMARK    5  A    between atoms: N_17  and  C_18 
REMARK    6  A    between atoms: C_18  and  C_19 
REMARK    7  A    between atoms: C_19  and  O_20 
REMARK    8  A    between atoms: C_19  and  C_21 
REMARK    9  A    between atoms: C_21  and  N_22 
REMARK   10  A    between atoms: N_22  and  C_25 
REMARK   11  A    between atoms: C_25  and  C_26 
REMARK   12  A    between atoms: C_26  and  C_27 
REMARK   13  A    between atoms: C_32  and  O_33 
ROOT
HETATM    1  C   UNL     1     -47.254  58.753 -58.981  1.00  0.00     0.162 C 
ENDROOT
BRANCH   1   2
HETATM    2  N   UNL     1     -46.314  59.059 -57.914  1.00  0.00    -0.353 N 
HETATM    3  C   UNL     1     -45.627  60.244 -57.752  1.00  0.00     0.045 A 
HETATM    4  C   UNL     1     -44.945  60.155 -56.531  1.00  0.00     0.002 A 
HETATM    5  C   UNL     1     -45.551  61.390 -58.562  1.00  0.00     0.030 A 
HETATM    6  C   UNL     1     -45.179  58.843 -56.014  1.00  0.00    -0.008 A 
HETATM    7  C   UNL     1     -44.219  61.284 -56.087  1.00  0.00     0.014 A 
HETATM    8  C   UNL     1     -46.042  58.204 -56.877  1.00  0.00     0.103 A 
HETATM    9  C   UNL     1     -44.154  62.432 -56.881  1.00  0.00     0.001 A 
HETATM   10  C   UNL     1     -44.802  62.478 -58.107  1.00  0.00     0.002 A 
BRANCH   6  11
HETATM   11  C   UNL     1     -44.661  58.219 -54.838  1.00  0.00     0.018 C 
HETATM   12  C   UNL     1     -44.380  56.910 -54.725  1.00  0.00     0.056 C 
BRANCH  12  13
HETATM   13  C   UNL     1     -43.827  56.366 -53.457  1.00  0.00     0.182 C 
HETATM   14  O   UNL     1     -44.087  56.899 -52.381  1.00  0.00    -0.288 OA
BRANCH  13  15
HETATM   15  C   UNL     1     -42.900  55.192 -53.513  1.00  0.00     0.014 A 
HETATM   16  C   UNL     1     -42.682  54.423 -54.665  1.00  0.00     0.018 A 
HETATM   17  C   UNL     1     -41.749  53.377 -54.661  1.00  0.00     0.037 A 
HETATM   18  C   UNL     1     -41.028  53.079 -53.505  1.00  0.00     0.068 A 
HETATM   19  C   UNL     1     -41.273  53.814 -52.345  1.00  0.00     0.037 A 
HETATM   20  C   UNL     1     -42.198  54.863 -52.348  1.00  0.00     0.018 A 
BRANCH  18  21
HETATM   21  O   UNL     1     -40.082  52.101 -53.382  1.00  0.00    -0.356 OA
HETATM   22  C   UNL     1     -40.220  50.968 -54.233  1.00  0.00     0.210 C 
ENDBRANCH  18  21
ENDBRANCH  13  15
ENDBRANCH  12  13
ENDBRANCH   6  11
ENDBRANCH   1   2
BRANCH   1  23
HETATM   23  C   UNL     1     -46.602  58.199 -60.262  1.00  0.00     0.162 C 
BRANCH  23  24
HETATM   24  O   UNL     1     -46.827  59.037 -61.414  1.00  0.00    -0.392 OA
HETATM   25  H   UNL     1     -47.779  59.259 -61.449  1.00  0.00     0.210 HD
ENDBRANCH  23  24
BRANCH  23  26
HETATM   26  C   UNL     1     -47.049  56.775 -60.646  1.00  0.00     0.265 C 
BRANCH  26  27
HETATM   27  N   UNL     1     -46.444  55.826 -59.640  1.00  0.00    -0.072 N 
HETATM   28  H   UNL     1     -46.159  56.418 -58.838  1.00  0.00     0.277 HD
HETATM   29  H   UNL     1     -47.184  55.226 -59.257  1.00  0.00     0.277 HD
BRANCH  27  30
HETATM   30  C   UNL     1     -45.320  54.969 -60.116  1.00  0.00     0.237 C 
BRANCH  30  31
HETATM   31  C   UNL     1     -44.129  55.791 -60.613  1.00  0.00     0.068 C 
BRANCH  31  32
HETATM   32  C   UNL     1     -43.413  56.431 -59.471  1.00  0.00    -0.029 A 
HETATM   33  C   UNL     1     -42.952  57.786 -59.413  1.00  0.00     0.001 A 
HETATM   34  C   UNL     1     -42.304  57.955 -58.191  1.00  0.00     0.043 A 
HETATM   35  C   UNL     1     -43.017  58.885 -60.293  1.00  0.00     0.051 A 
HETATM   36  C   UNL     1     -41.711  59.165 -57.814  1.00  0.00     0.033 A 
HETATM   37  N   UNL     1     -42.392  56.761 -57.515  1.00  0.00    -0.365 N 
HETATM   38  C   UNL     1     -41.782  60.238 -58.713  1.00  0.00     0.039 A 
HETATM   39  C   UNL     1     -42.430  60.108 -59.939  1.00  0.00     0.069 A 
HETATM   40  H   UNL     1     -42.022  56.601 -56.587  1.00  0.00     0.165 HD
HETATM   41  C   UNL     1     -43.050  55.833 -58.281  1.00  0.00     0.096 A 
BRANCH  39  42
HETATM   42  O   UNL     1     -42.558  61.083 -60.892  1.00  0.00    -0.356 OA
HETATM   43  C   UNL     1     -41.727  62.231 -60.750  1.00  0.00     0.210 C 
ENDBRANCH  39  42
ENDBRANCH  31  32
ENDBRANCH  30  31
ENDBRANCH  27  30
ENDBRANCH  26  27
ENDBRANCH  23  26
ENDBRANCH   1  23
TORSDOF 13
ENDMDL
MODEL 9
REMARK VINA RESULT:      -7.0      2.615      4.564
REMARK  13 active torsions:
REMARK  status: ('A' for Active; 'I' for Inactive)
REMARK    1  A    between atoms: O_2  and  C_3 
REMARK    2  A    between atoms: C_6  and  C_7 
REMARK    3  A    between atoms: C_7  and  C_8 
REMARK    4  A    between atoms: C_9  and  C_10 
REMARK    5  A    between atoms: N_17  and  C_18 
REMARK    6  A    between atoms: C_18  and  C_19 
REMARK    7  A    between atoms: C_19  and  O_20 
REMARK    8  A    between atoms: C_19  and  C_21 
REMARK    9  A    between atoms: C_21  and  N_22 
REMARK   10  A    between atoms: N_22  and  C_25 
REMARK   11  A    between atoms: C_25  and  C_26 
REMARK   12  A    between atoms: C_26  and  C_27 
REMARK   13  A    between atoms: C_32  and  O_33 
ROOT
HETATM    1  C   UNL     1     -45.445  59.350 -56.633  1.00  0.00     0.162 C 
ENDROOT
BRANCH   1   2
HETATM    2  N   UNL     1     -44.632  58.150 -56.752  1.00  0.00    -0.353 N 
HETATM    3  C   UNL     1     -44.346  57.475 -57.921  1.00  0.00     0.045 A 
HETATM    4  C   UNL     1     -43.429  56.467 -57.595  1.00  0.00     0.002 A 
HETATM    5  C   UNL     1     -44.801  57.667 -59.236  1.00  0.00     0.030 A 
HETATM    6  C   UNL     1     -43.247  56.508 -56.177  1.00  0.00    -0.008 A 
HETATM    7  C   UNL     1     -42.909  55.673 -58.641  1.00  0.00     0.014 A 
HETATM    8  C   UNL     1     -43.983  57.567 -55.694  1.00  0.00     0.103 A 
HETATM    9  C   UNL     1     -43.345  55.870 -59.954  1.00  0.00     0.001 A 
HETATM   10  C   UNL     1     -44.288  56.846 -60.244  1.00  0.00     0.002 A 
BRANCH   6  11
HETATM   11  C   UNL     1     -42.473  55.656 -55.331  1.00  0.00     0.018 C 
HETATM   12  C   UNL     1     -42.774  54.377 -55.049  1.00  0.00     0.056 C 
BRANCH  12  13
HETATM   13  C   UNL     1     -41.888  53.573 -54.167  1.00  0.00     0.182 C 
HETATM   14  O   UNL     1     -41.220  52.649 -54.626  1.00  0.00    -0.288 OA
BRANCH  13  15
HETATM   15  C   UNL     1     -41.863  53.865 -52.700  1.00  0.00     0.014 A 
HETATM   16  C   UNL     1     -43.013  54.086 -51.928  1.00  0.00     0.018 A 
HETATM   17  C   UNL     1     -42.916  54.291 -50.544  1.00  0.00     0.037 A 
HETATM   18  C   UNL     1     -41.672  54.286 -49.915  1.00  0.00     0.068 A 
HETATM   19  C   UNL     1     -40.523  54.111 -50.686  1.00  0.00     0.037 A 
HETATM   20  C   UNL     1     -40.616  53.899 -52.065  1.00  0.00     0.018 A 
BRANCH  18  21
HETATM   21  O   UNL     1     -41.452  54.455 -48.577  1.00  0.00    -0.356 OA
HETATM   22  C   UNL     1     -40.202  53.998 -48.072  1.00  0.00     0.210 C 
ENDBRANCH  18  21
ENDBRANCH  13  15
ENDBRANCH  12  13
ENDBRANCH   6  11
ENDBRANCH   1   2
BRANCH   1  23
HETATM   23  C   UNL     1     -44.703  60.656 -56.973  1.00  0.00     0.162 C 
BRANCH  23  24
HETATM   24  O   UNL     1     -44.914  61.082 -58.335  1.00  0.00    -0.392 OA
HETATM   25  H   UNL     1     -44.444  61.931 -58.466  1.00  0.00     0.210 HD
ENDBRANCH  23  24
BRANCH  23  26
HETATM   26  C   UNL     1     -43.180  60.607 -56.746  1.00  0.00     0.265 C 
BRANCH  26  27
HETATM   27  N   UNL     1     -42.826  61.743 -55.817  1.00  0.00    -0.072 N 
HETATM   28  H   UNL     1     -42.173  61.339 -55.121  1.00  0.00     0.277 HD
HETATM   29  H   UNL     1     -42.257  62.429 -56.326  1.00  0.00     0.277 HD
BRANCH  27  30
HETATM   30  C   UNL     1     -43.963  62.449 -55.156  1.00  0.00     0.237 C 
BRANCH  30  31
HETATM   31  C   UNL     1     -43.885  62.380 -53.630  1.00  0.00     0.068 C 
BRANCH  31  32
HETATM   32  C   UNL     1     -44.149  60.991 -53.148  1.00  0.00    -0.029 A 
HETATM   33  C   UNL     1     -43.164  60.037 -52.737  1.00  0.00     0.001 A 
HETATM   34  C   UNL     1     -43.835  58.862 -52.403  1.00  0.00     0.043 A 
HETATM   35  C   UNL     1     -41.759  60.059 -52.627  1.00  0.00     0.051 A 
HETATM   36  C   UNL     1     -43.167  57.709 -51.976  1.00  0.00     0.033 A 
HETATM   37  N   UNL     1     -45.179  59.098 -52.573  1.00  0.00    -0.365 N 
HETATM   38  C   UNL     1     -41.770  57.756 -51.886  1.00  0.00     0.039 A 
HETATM   39  C   UNL     1     -41.067  58.916 -52.202  1.00  0.00     0.069 A 
HETATM   40  H   UNL     1     -45.907  58.421 -52.384  1.00  0.00     0.165 HD
HETATM   41  C   UNL     1     -45.379  60.375 -53.030  1.00  0.00     0.096 A 
BRANCH  39  42
HETATM   42  O   UNL     1     -39.708  59.074 -52.154  1.00  0.00    -0.356 OA
HETATM   43  C   UNL     1     -39.142  59.382 -50.884  1.00  0.00     0.210 C 
ENDBRANCH  39  42
ENDBRANCH  31  32
ENDBRANCH  30  31
ENDBRANCH  27  30
ENDBRANCH  26  27
ENDBRANCH  23  26
ENDBRANCH   1  23
TORSDOF 13
ENDMDL
MODEL 10
REMARK VINA RESULT:      -7.0      2.306      5.869
REMARK  13 active torsions:
REMARK  status: ('A' for Active; 'I' for Inactive)
REMARK    1  A    between atoms: O_2  and  C_3 
REMARK    2  A    between atoms: C_6  and  C_7 
REMARK    3  A    between atoms: C_7  and  C_8 
REMARK    4  A    between atoms: C_9  and  C_10 
REMARK    5  A    between atoms: N_17  and  C_18 
REMARK    6  A    between atoms: C_18  and  C_19 
REMARK    7  A    between atoms: C_19  and  O_20 
REMARK    8  A    between atoms: C_19  and  C_21 
REMARK    9  A    between atoms: C_21  and  N_22 
REMARK   10  A    between atoms: N_22  and  C_25 
REMARK   11  A    between atoms: C_25  and  C_26 
REMARK   12  A    between atoms: C_26  and  C_27 
REMARK   13  A    between atoms: C_32  and  O_33 
ROOT
HETATM    1  C   UNL     1     -45.633  59.823 -51.755  1.00  0.00     0.162 C 
ENDROOT
BRANCH   1   2
HETATM    2  N   UNL     1     -44.446  59.030 -52.032  1.00  0.00    -0.353 N 
HETATM    3  C   UNL     1     -43.189  59.238 -51.504  1.00  0.00     0.045 A 
HETATM    4  C   UNL     1     -42.387  58.170 -51.929  1.00  0.00     0.002 A 
HETATM    5  C   UNL     1     -42.686  60.261 -50.682  1.00  0.00     0.030 A 
HETATM    6  C   UNL     1     -43.185  57.367 -52.800  1.00  0.00    -0.008 A 
HETATM    7  C   UNL     1     -41.057  58.103 -51.455  1.00  0.00     0.014 A 
HETATM    8  C   UNL     1     -44.451  57.910 -52.824  1.00  0.00     0.103 A 
HETATM    9  C   UNL     1     -40.557  59.110 -50.624  1.00  0.00     0.001 A 
HETATM   10  C   UNL     1     -41.359  60.180 -50.254  1.00  0.00     0.002 A 
BRANCH   6  11
HETATM   11  C   UNL     1     -42.831  56.204 -53.551  1.00  0.00     0.018 C 
HETATM   12  C   UNL     1     -41.573  55.839 -53.850  1.00  0.00     0.056 C 
BRANCH  12  13
HETATM   13  C   UNL     1     -41.314  54.597 -54.625  1.00  0.00     0.182 C 
HETATM   14  O   UNL     1     -41.566  54.544 -55.826  1.00  0.00    -0.288 OA
BRANCH  13  15
HETATM   15  C   UNL     1     -40.795  53.390 -53.909  1.00  0.00     0.014 A 
HETATM   16  C   UNL     1     -40.437  52.195 -54.550  1.00  0.00     0.018 A 
HETATM   17  C   UNL     1     -39.896  51.126 -53.821  1.00  0.00     0.037 A 
HETATM   18  C   UNL     1     -39.714  51.233 -52.443  1.00  0.00     0.068 A 
HETATM   19  C   UNL     1     -40.110  52.403 -51.795  1.00  0.00     0.037 A 
HETATM   20  C   UNL     1     -40.643  53.474 -52.520  1.00  0.00     0.018 A 
BRANCH  18  21
HETATM   21  O   UNL     1     -39.182  50.272 -51.630  1.00  0.00    -0.356 OA
HETATM   22  C   UNL     1     -39.886  49.994 -50.424  1.00  0.00     0.210 C 
ENDBRANCH  18  21
ENDBRANCH  13  15
ENDBRANCH  12  13
ENDBRANCH   6  11
ENDBRANCH   1   2
BRANCH   1  23
HETATM   23  C   UNL     1     -45.716  61.141 -52.550  1.00  0.00     0.162 C 
BRANCH  23  24
HETATM   24  O   UNL     1     -46.841  61.957 -52.165  1.00  0.00    -0.392 OA
HETATM   25  H   UNL     1     -47.096  62.507 -52.933  1.00  0.00     0.210 HD
ENDBRANCH  23  24
BRANCH  23  26
HETATM   26  C   UNL     1     -45.788  60.965 -54.079  1.00  0.00     0.265 C 
BRANCH  26  27
HETATM   27  N   UNL     1     -44.476  61.445 -54.649  1.00  0.00    -0.072 N 
HETATM   28  H   UNL     1     -44.700  62.315 -55.167  1.00  0.00     0.277 HD
HETATM   29  H   UNL     1     -43.871  61.760 -53.882  1.00  0.00     0.277 HD
BRANCH  27  30
HETATM   30  C   UNL     1     -43.719  60.480 -55.500  1.00  0.00     0.237 C 
BRANCH  30  31
HETATM   31  C   UNL     1     -44.622  59.404 -56.106  1.00  0.00     0.068 C 
BRANCH  31  32
HETATM   32  C   UNL     1     -43.817  58.406 -56.871  1.00  0.00    -0.029 A 
HETATM   33  C   UNL     1     -44.302  57.542 -57.905  1.00  0.00     0.001 A 
HETATM   34  C   UNL     1     -43.236  56.747 -58.319  1.00  0.00     0.043 A 
HETATM   35  C   UNL     1     -45.556  57.354 -58.521  1.00  0.00     0.051 A 
HETATM   36  C   UNL     1     -43.366  55.769 -59.312  1.00  0.00     0.033 A 
HETATM   37  N   UNL     1     -42.134  57.131 -57.591  1.00  0.00    -0.365 N 
HETATM   38  C   UNL     1     -44.626  55.597 -59.900  1.00  0.00     0.039 A 
HETATM   39  C   UNL     1     -45.712  56.380 -59.517  1.00  0.00     0.069 A 
HETATM   40  H   UNL     1     -41.210  56.733 -57.698  1.00  0.00     0.165 HD
HETATM   41  C   UNL     1     -42.476  58.124 -56.709  1.00  0.00     0.096 A 
BRANCH  39  42
HETATM   42  O   UNL     1     -46.983  56.296 -60.020  1.00  0.00    -0.356 OA
HETATM   43  C   UNL     1     -47.341  57.243 -61.021  1.00  0.00     0.210 C 
ENDBRANCH  39  42
ENDBRANCH  31  32
ENDBRANCH  30  31
ENDBRANCH  27  30
ENDBRANCH  26  27
ENDBRANCH  23  26
ENDBRANCH   1  23
TORSDOF 13
ENDMDL
