MODEL 1
REMARK VINA RESULT:      -8.8      0.000      0.000
REMARK  4 active torsions:
REMARK  status: ('A' for Active; 'I' for Inactive)
REMARK    1  A    between atoms: C_2  and  C_3 
REMARK    2  A    between atoms: C_3  and  N_4 
REMARK    3  A    between atoms: C_3  and  C_18 
REMARK       I    between atoms: N_4  and  C_5 
REMARK    4  A    between atoms: C_5  and  C_6 
ROOT
HETATM    1  N   UNL     1     -42.739  56.413 -53.121  1.00  0.00    -0.344 N 
HETATM    2  C   UNL     1     -41.637  56.463 -52.301  1.00  0.00     0.273 C 
HETATM    3  O   UNL     1     -40.999  57.474 -52.048  1.00  0.00    -0.266 OA
HETATM    4  H   UNL     1     -42.950  55.495 -53.503  1.00  0.00     0.163 HD
ENDROOT
BRANCH   1   5
HETATM    5  C   UNL     1     -43.236  57.587 -53.823  1.00  0.00     0.158 C 
BRANCH   5   6
HETATM    6  C   UNL     1     -44.698  57.932 -53.437  1.00  0.00     0.008 C 
HETATM    7  C   UNL     1     -45.119  59.266 -54.065  1.00  0.00     0.012 C 
HETATM    8  C   UNL     1     -44.962  57.982 -51.927  1.00  0.00     0.012 C 
ENDBRANCH   5   6
BRANCH   5   9
HETATM    9  C   UNL     1     -43.040  57.403 -55.307  1.00  0.00     0.128 A 
HETATM   10  N   UNL     1     -42.437  58.211 -56.159  1.00  0.00    -0.231 NA
HETATM   11  C   UNL     1     -42.495  57.581 -57.378  1.00  0.00     0.085 A 
HETATM   12  C   UNL     1     -43.148  56.359 -57.276  1.00  0.00     0.062 A 
HETATM   13  C   UNL     1     -42.008  57.996 -58.626  1.00  0.00     0.034 A 
HETATM   14  N   UNL     1     -43.467  56.260 -55.948  1.00  0.00    -0.341 N 
HETATM   15  C   UNL     1     -43.364  55.511 -58.362  1.00  0.00     0.032 A 
HETATM   16  H   UNL     1     -43.951  55.492 -55.498  1.00  0.00     0.167 HD
HETATM   17  C   UNL     1     -42.875  55.942 -59.602  1.00  0.00     0.002 A 
HETATM   18  C   UNL     1     -42.206  57.161 -59.734  1.00  0.00     0.002 A 
ENDBRANCH   5   9
ENDBRANCH   1   5
BRANCH   2  19
HETATM   19  C   UNL     1     -41.191  55.097 -51.783  1.00  0.00     0.155 A 
HETATM   20  N   UNL     1     -41.260  54.938 -50.490  1.00  0.00    -0.166 NA
HETATM   21  N   UNL     1     -40.907  53.726 -49.979  1.00  0.00    -0.242 N 
HETATM   22  C   UNL     1     -40.515  52.625 -50.702  1.00  0.00     0.272 A 
HETATM   23  H   UNL     1     -40.993  53.611 -48.971  1.00  0.00     0.192 HD
HETATM   24  O   UNL     1     -40.254  51.551 -50.173  1.00  0.00    -0.266 OA
HETATM   25  C   UNL     1     -40.408  52.811 -52.160  1.00  0.00     0.046 A 
HETATM   26  C   UNL     1     -40.723  54.051 -52.714  1.00  0.00     0.016 A 
HETATM   27  C   UNL     1     -39.978  51.754 -52.972  1.00  0.00     0.018 A 
HETATM   28  C   UNL     1     -40.576  54.244 -54.092  1.00  0.00     0.015 A 
HETATM   29  C   UNL     1     -40.144  53.190 -54.904  1.00  0.00     0.001 A 
HETATM   30  C   UNL     1     -39.850  51.947 -54.347  1.00  0.00     0.001 A 
ENDBRANCH   2  19
TORSDOF 4
ENDMDL
MODEL 2
REMARK VINA RESULT:      -8.7      2.471      7.222
REMARK  4 active torsions:
REMARK  status: ('A' for Active; 'I' for Inactive)
REMARK    1  A    between atoms: C_2  and  C_3 
REMARK    2  A    between atoms: C_3  and  N_4 
REMARK    3  A    between atoms: C_3  and  C_18 
REMARK       I    between atoms: N_4  and  C_5 
REMARK    4  A    between atoms: C_5  and  C_6 
ROOT
HETATM    1  N   UNL     1     -41.766  56.289 -54.551  1.00  0.00    -0.344 N 
HETATM    2  C   UNL     1     -42.931  56.549 -55.232  1.00  0.00     0.273 C 
HETATM    3  O   UNL     1     -44.046  56.558 -54.732  1.00  0.00    -0.266 OA
HETATM    4  H   UNL     1     -40.988  55.983 -55.129  1.00  0.00     0.163 HD
ENDROOT
BRANCH   1   5
HETATM    5  C   UNL     1     -41.757  55.942 -53.137  1.00  0.00     0.158 C 
BRANCH   5   6
HETATM    6  C   UNL     1     -41.055  57.019 -52.269  1.00  0.00     0.008 C 
HETATM    7  C   UNL     1     -41.924  57.383 -51.059  1.00  0.00     0.012 C 
HETATM    8  C   UNL     1     -40.683  58.301 -53.024  1.00  0.00     0.012 C 
ENDBRANCH   5   6
BRANCH   5   9
HETATM    9  C   UNL     1     -41.171  54.563 -52.963  1.00  0.00     0.128 A 
HETATM   10  N   UNL     1     -40.686  54.013 -51.866  1.00  0.00    -0.231 NA
HETATM   11  C   UNL     1     -40.307  52.742 -52.220  1.00  0.00     0.085 A 
HETATM   12  C   UNL     1     -40.564  52.502 -53.564  1.00  0.00     0.062 A 
HETATM   13  C   UNL     1     -39.732  51.726 -51.441  1.00  0.00     0.034 A 
HETATM   14  N   UNL     1     -41.131  53.667 -54.009  1.00  0.00    -0.341 N 
HETATM   15  C   UNL     1     -40.267  51.296 -54.200  1.00  0.00     0.032 A 
HETATM   16  H   UNL     1     -41.454  53.861 -54.949  1.00  0.00     0.167 HD
HETATM   17  C   UNL     1     -39.689  50.295 -53.408  1.00  0.00     0.002 A 
HETATM   18  C   UNL     1     -39.429  50.503 -52.052  1.00  0.00     0.002 A 
ENDBRANCH   5   9
ENDBRANCH   1   5
BRANCH   2  19
HETATM   19  C   UNL     1     -42.736  56.742 -56.734  1.00  0.00     0.155 A 
HETATM   20  N   UNL     1     -42.862  55.665 -57.459  1.00  0.00    -0.166 NA
HETATM   21  N   UNL     1     -42.732  55.788 -58.809  1.00  0.00    -0.242 N 
HETATM   22  C   UNL     1     -42.513  56.957 -59.499  1.00  0.00     0.272 A 
HETATM   23  H   UNL     1     -42.860  54.943 -59.361  1.00  0.00     0.192 HD
HETATM   24  O   UNL     1     -42.451  56.996 -60.722  1.00  0.00    -0.266 OA
HETATM   25  C   UNL     1     -42.341  58.170 -58.681  1.00  0.00     0.046 A 
HETATM   26  C   UNL     1     -42.429  58.075 -57.293  1.00  0.00     0.016 A 
HETATM   27  C   UNL     1     -42.076  59.400 -59.296  1.00  0.00     0.018 A 
HETATM   28  C   UNL     1     -42.218  59.216 -56.512  1.00  0.00     0.015 A 
HETATM   29  C   UNL     1     -41.950  60.445 -57.125  1.00  0.00     0.001 A 
HETATM   30  C   UNL     1     -41.885  60.537 -58.514  1.00  0.00     0.001 A 
ENDBRANCH   2  19
TORSDOF 4
ENDMDL
MODEL 3
REMARK VINA RESULT:      -8.6      1.399      2.333
REMARK  4 active torsions:
REMARK  status: ('A' for Active; 'I' for Inactive)
REMARK    1  A    between atoms: C_2  and  C_3 
REMARK    2  A    between atoms: C_3  and  N_4 
REMARK    3  A    between atoms: C_3  and  C_18 
REMARK       I    between atoms: N_4  and  C_5 
REMARK    4  A    between atoms: C_5  and  C_6 
ROOT
HETATM    1  N   UNL     1     -42.627  56.318 -53.604  1.00  0.00    -0.344 N 
HETATM    2  C   UNL     1     -41.292  56.216 -53.290  1.00  0.00     0.273 C 
HETATM    3  O   UNL     1     -40.463  57.095 -53.470  1.00  0.00    -0.266 OA
HETATM    4  H   UNL     1     -43.110  55.432 -53.721  1.00  0.00     0.163 HD
ENDROOT
BRANCH   1   5
HETATM    5  C   UNL     1     -43.184  57.502 -54.243  1.00  0.00     0.158 C 
BRANCH   5   6
HETATM    6  C   UNL     1     -44.640  57.787 -53.792  1.00  0.00     0.008 C 
HETATM    7  C   UNL     1     -45.145  59.098 -54.406  1.00  0.00     0.012 C 
HETATM    8  C   UNL     1     -44.837  57.836 -52.272  1.00  0.00     0.012 C 
ENDBRANCH   5   6
BRANCH   5   9
HETATM    9  C   UNL     1     -43.038  57.378 -55.739  1.00  0.00     0.128 A 
HETATM   10  N   UNL     1     -42.384  58.172 -56.566  1.00  0.00    -0.231 NA
HETATM   11  C   UNL     1     -42.526  57.614 -57.812  1.00  0.00     0.085 A 
HETATM   12  C   UNL     1     -43.283  56.450 -57.753  1.00  0.00     0.062 A 
HETATM   13  C   UNL     1     -42.031  58.048 -59.051  1.00  0.00     0.034 A 
HETATM   14  N   UNL     1     -43.579  56.311 -56.424  1.00  0.00    -0.341 N 
HETATM   15  C   UNL     1     -43.597  55.681 -58.875  1.00  0.00     0.032 A 
HETATM   16  H   UNL     1     -44.120  55.567 -56.000  1.00  0.00     0.167 HD
HETATM   17  C   UNL     1     -43.099  56.132 -60.104  1.00  0.00     0.002 A 
HETATM   18  C   UNL     1     -42.327  57.292 -60.193  1.00  0.00     0.002 A 
ENDBRANCH   5   9
ENDBRANCH   1   5
BRANCH   2  19
HETATM   19  C   UNL     1     -40.886  54.840 -52.767  1.00  0.00     0.155 A 
HETATM   20  N   UNL     1     -40.581  53.960 -53.680  1.00  0.00    -0.166 NA
HETATM   21  N   UNL     1     -40.177  52.727 -53.267  1.00  0.00    -0.242 N 
HETATM   22  C   UNL     1     -40.023  52.321 -51.963  1.00  0.00     0.272 A 
HETATM   23  H   UNL     1     -39.918  52.063 -53.992  1.00  0.00     0.192 HD
HETATM   24  O   UNL     1     -39.613  51.205 -51.667  1.00  0.00    -0.266 OA
HETATM   25  C   UNL     1     -40.396  53.302 -50.929  1.00  0.00     0.046 A 
HETATM   26  C   UNL     1     -40.850  54.562 -51.317  1.00  0.00     0.016 A 
HETATM   27  C   UNL     1     -40.307  52.962 -49.573  1.00  0.00     0.018 A 
HETATM   28  C   UNL     1     -41.250  55.478 -50.338  1.00  0.00     0.015 A 
HETATM   29  C   UNL     1     -41.165  55.139 -48.984  1.00  0.00     0.001 A 
HETATM   30  C   UNL     1     -40.690  53.885 -48.602  1.00  0.00     0.001 A 
ENDBRANCH   2  19
TORSDOF 4
ENDMDL
MODEL 4
REMARK VINA RESULT:      -8.5      1.734      2.223
REMARK  4 active torsions:
REMARK  status: ('A' for Active; 'I' for Inactive)
REMARK    1  A    between atoms: C_2  and  C_3 
REMARK    2  A    between atoms: C_3  and  N_4 
REMARK    3  A    between atoms: C_3  and  C_18 
REMARK       I    between atoms: N_4  and  C_5 
REMARK    4  A    between atoms: C_5  and  C_6 
ROOT
HETATM    1  N   UNL     1     -42.279  58.708 -53.771  1.00  0.00    -0.344 N 
HETATM    2  C   UNL     1     -41.125  58.482 -53.060  1.00  0.00     0.273 C 
HETATM    3  O   UNL     1     -40.065  59.062 -53.244  1.00  0.00    -0.266 OA
HETATM    4  H   UNL     1     -42.953  57.947 -53.751  1.00  0.00     0.163 HD
ENDROOT
BRANCH   1   5
HETATM    5  C   UNL     1     -42.335  59.654 -54.876  1.00  0.00     0.158 C 
BRANCH   5   6
HETATM    6  C   UNL     1     -43.500  60.668 -54.727  1.00  0.00     0.008 C 
HETATM    7  C   UNL     1     -43.054  61.880 -53.900  1.00  0.00     0.012 C 
HETATM    8  C   UNL     1     -44.777  60.082 -54.111  1.00  0.00     0.012 C 
ENDBRANCH   5   6
BRANCH   5   9
HETATM    9  C   UNL     1     -42.368  58.900 -56.181  1.00  0.00     0.128 A 
HETATM   10  N   UNL     1     -41.943  59.296 -57.366  1.00  0.00    -0.231 NA
HETATM   11  C   UNL     1     -42.164  58.240 -58.216  1.00  0.00     0.085 A 
HETATM   12  C   UNL     1     -42.737  57.170 -57.541  1.00  0.00     0.062 A 
HETATM   13  C   UNL     1     -41.899  58.123 -59.588  1.00  0.00     0.034 A 
HETATM   14  N   UNL     1     -42.837  57.605 -56.247  1.00  0.00    -0.341 N 
HETATM   15  C   UNL     1     -43.082  55.967 -58.160  1.00  0.00     0.032 A 
HETATM   16  H   UNL     1     -43.209  57.085 -55.461  1.00  0.00     0.167 HD
HETATM   17  C   UNL     1     -42.814  55.869 -59.531  1.00  0.00     0.002 A 
HETATM   18  C   UNL     1     -42.230  56.925 -60.235  1.00  0.00     0.002 A 
ENDBRANCH   5   9
ENDBRANCH   1   5
BRANCH   2  19
HETATM   19  C   UNL     1     -41.238  57.345 -52.046  1.00  0.00     0.155 A 
HETATM   20  N   UNL     1     -41.425  57.713 -50.809  1.00  0.00    -0.166 NA
HETATM   21  N   UNL     1     -41.568  56.738 -49.870  1.00  0.00    -0.242 N 
HETATM   22  C   UNL     1     -41.570  55.383 -50.103  1.00  0.00     0.272 A 
HETATM   23  H   UNL     1     -41.740  57.043 -48.915  1.00  0.00     0.192 HD
HETATM   24  O   UNL     1     -41.748  54.563 -49.210  1.00  0.00    -0.266 OA
HETATM   25  C   UNL     1     -41.329  54.964 -51.495  1.00  0.00     0.046 A 
HETATM   26  C   UNL     1     -41.140  55.936 -52.476  1.00  0.00     0.016 A 
HETATM   27  C   UNL     1     -41.276  53.602 -51.819  1.00  0.00     0.018 A 
HETATM   28  C   UNL     1     -40.863  55.540 -53.789  1.00  0.00     0.015 A 
HETATM   29  C   UNL     1     -40.807  54.180 -54.114  1.00  0.00     0.001 A 
HETATM   30  C   UNL     1     -41.018  53.214 -53.132  1.00  0.00     0.001 A 
ENDBRANCH   2  19
TORSDOF 4
ENDMDL
MODEL 5
REMARK VINA RESULT:      -8.4      2.274      6.795
REMARK  4 active torsions:
REMARK  status: ('A' for Active; 'I' for Inactive)
REMARK    1  A    between atoms: C_2  and  C_3 
REMARK    2  A    between atoms: C_3  and  N_4 
REMARK    3  A    between atoms: C_3  and  C_18 
REMARK       I    between atoms: N_4  and  C_5 
REMARK    4  A    between atoms: C_5  and  C_6 
ROOT
HETATM    1  N   UNL     1     -42.724  56.963 -53.989  1.00  0.00    -0.344 N 
HETATM    2  C   UNL     1     -43.653  57.521 -54.835  1.00  0.00     0.273 C 
HETATM    3  O   UNL     1     -44.859  57.340 -54.766  1.00  0.00    -0.266 OA
HETATM    4  H   UNL     1     -41.777  56.919 -54.358  1.00  0.00     0.163 HD
ENDROOT
BRANCH   1   5
HETATM    5  C   UNL     1     -43.099  56.038 -52.930  1.00  0.00     0.158 C 
BRANCH   5   6
HETATM    6  C   UNL     1     -43.114  56.714 -51.534  1.00  0.00     0.008 C 
HETATM    7  C   UNL     1     -44.538  57.145 -51.161  1.00  0.00     0.012 C 
HETATM    8  C   UNL     1     -42.174  57.919 -51.401  1.00  0.00     0.012 C 
ENDBRANCH   5   6
BRANCH   5   9
HETATM    9  C   UNL     1     -42.211  54.820 -52.991  1.00  0.00     0.128 A 
HETATM   10  N   UNL     1     -41.932  54.063 -54.035  1.00  0.00    -0.231 NA
HETATM   11  C   UNL     1     -41.057  53.107 -53.581  1.00  0.00     0.085 A 
HETATM   12  C   UNL     1     -40.790  53.278 -52.229  1.00  0.00     0.062 A 
HETATM   13  C   UNL     1     -40.443  52.052 -54.273  1.00  0.00     0.034 A 
HETATM   14  N   UNL     1     -41.519  54.385 -51.882  1.00  0.00    -0.341 N 
HETATM   15  C   UNL     1     -39.943  52.441 -51.501  1.00  0.00     0.032 A 
HETATM   16  H   UNL     1     -41.568  54.812 -50.965  1.00  0.00     0.167 HD
HETATM   17  C   UNL     1     -39.343  51.390 -52.206  1.00  0.00     0.002 A 
HETATM   18  C   UNL     1     -39.584  51.199 -53.568  1.00  0.00     0.002 A 
ENDBRANCH   5   9
ENDBRANCH   1   5
BRANCH   2  19
HETATM   19  C   UNL     1     -43.040  58.341 -55.969  1.00  0.00     0.155 A 
HETATM   20  N   UNL     1     -42.723  59.569 -55.666  1.00  0.00    -0.166 NA
HETATM   21  N   UNL     1     -42.140  60.333 -56.631  1.00  0.00    -0.242 N 
HETATM   22  C   UNL     1     -41.816  59.923 -57.902  1.00  0.00     0.272 A 
HETATM   23  H   UNL     1     -41.875  61.279 -56.368  1.00  0.00     0.192 HD
HETATM   24  O   UNL     1     -41.252  60.656 -58.704  1.00  0.00    -0.266 OA
HETATM   25  C   UNL     1     -42.200  58.545 -58.257  1.00  0.00     0.046 A 
HETATM   26  C   UNL     1     -42.833  57.747 -57.305  1.00  0.00     0.016 A 
HETATM   27  C   UNL     1     -41.943  58.055 -59.543  1.00  0.00     0.018 A 
HETATM   28  C   UNL     1     -43.243  56.456 -57.655  1.00  0.00     0.015 A 
HETATM   29  C   UNL     1     -42.989  55.965 -58.941  1.00  0.00     0.001 A 
HETATM   30  C   UNL     1     -42.337  56.761 -59.881  1.00  0.00     0.001 A 
ENDBRANCH   2  19
TORSDOF 4
ENDMDL
MODEL 6
REMARK VINA RESULT:      -7.5      2.025      4.195
REMARK  4 active torsions:
REMARK  status: ('A' for Active; 'I' for Inactive)
REMARK    1  A    between atoms: C_2  and  C_3 
REMARK    2  A    between atoms: C_3  and  N_4 
REMARK    3  A    between atoms: C_3  and  C_18 
REMARK       I    between atoms: N_4  and  C_5 
REMARK    4  A    between atoms: C_5  and  C_6 
ROOT
HETATM    1  N   UNL     1     -42.775  56.392 -54.497  1.00  0.00    -0.344 N 
HETATM    2  C   UNL     1     -43.081  55.175 -53.934  1.00  0.00     0.273 C 
HETATM    3  O   UNL     1     -44.076  54.516 -54.193  1.00  0.00    -0.266 OA
HETATM    4  H   UNL     1     -42.130  56.965 -53.959  1.00  0.00     0.163 HD
ENDROOT
BRANCH   1   5
HETATM    5  C   UNL     1     -43.659  57.049 -55.448  1.00  0.00     0.158 C 
BRANCH   5   6
HETATM    6  C   UNL     1     -43.086  57.043 -56.889  1.00  0.00     0.008 C 
HETATM    7  C   UNL     1     -43.941  57.922 -57.810  1.00  0.00     0.012 C 
HETATM    8  C   UNL     1     -42.948  55.649 -57.512  1.00  0.00     0.012 C 
ENDBRANCH   5   6
BRANCH   5   9
HETATM    9  C   UNL     1     -43.994  58.432 -54.947  1.00  0.00     0.128 A 
HETATM   10  N   UNL     1     -45.178  58.925 -54.634  1.00  0.00    -0.231 NA
HETATM   11  C   UNL     1     -44.948  60.208 -54.203  1.00  0.00     0.085 A 
HETATM   12  C   UNL     1     -43.593  60.513 -54.249  1.00  0.00     0.062 A 
HETATM   13  C   UNL     1     -45.854  61.179 -53.751  1.00  0.00     0.034 A 
HETATM   14  N   UNL     1     -43.007  59.363 -54.706  1.00  0.00    -0.341 N 
HETATM   15  C   UNL     1     -43.073  61.754 -53.880  1.00  0.00     0.032 A 
HETATM   16  H   UNL     1     -42.018  59.211 -54.864  1.00  0.00     0.167 HD
HETATM   17  C   UNL     1     -43.992  62.713 -53.436  1.00  0.00     0.002 A 
HETATM   18  C   UNL     1     -45.359  62.432 -53.369  1.00  0.00     0.002 A 
ENDBRANCH   5   9
ENDBRANCH   1   5
BRANCH   2  19
HETATM   19  C   UNL     1     -42.099  54.733 -52.851  1.00  0.00     0.155 A 
HETATM   20  N   UNL     1     -42.081  55.470 -51.775  1.00  0.00    -0.166 NA
HETATM   21  N   UNL     1     -41.248  55.099 -50.764  1.00  0.00    -0.242 N 
HETATM   22  C   UNL     1     -40.437  53.989 -50.748  1.00  0.00     0.272 A 
HETATM   23  H   UNL     1     -41.267  55.670 -49.922  1.00  0.00     0.192 HD
HETATM   24  O   UNL     1     -39.745  53.695 -49.781  1.00  0.00    -0.266 OA
HETATM   25  C   UNL     1     -40.434  53.171 -51.973  1.00  0.00     0.046 A 
HETATM   26  C   UNL     1     -41.245  53.543 -53.044  1.00  0.00     0.016 A 
HETATM   27  C   UNL     1     -39.609  52.042 -52.061  1.00  0.00     0.018 A 
HETATM   28  C   UNL     1     -41.207  52.796 -54.226  1.00  0.00     0.015 A 
HETATM   29  C   UNL     1     -40.381  51.670 -54.316  1.00  0.00     0.001 A 
HETATM   30  C   UNL     1     -39.588  51.291 -53.235  1.00  0.00     0.001 A 
ENDBRANCH   2  19
TORSDOF 4
ENDMDL
MODEL 7
REMARK VINA RESULT:      -7.5      2.405      5.214
REMARK  4 active torsions:
REMARK  status: ('A' for Active; 'I' for Inactive)
REMARK    1  A    between atoms: C_2  and  C_3 
REMARK    2  A    between atoms: C_3  and  N_4 
REMARK    3  A    between atoms: C_3  and  C_18 
REMARK       I    between atoms: N_4  and  C_5 
REMARK    4  A    between atoms: C_5  and  C_6 
ROOT
HETATM    1  N   UNL     1     -42.462  56.223 -54.113  1.00  0.00    -0.344 N 
HETATM    2  C   UNL     1     -42.922  54.933 -53.994  1.00  0.00     0.273 C 
HETATM    3  O   UNL     1     -44.054  54.566 -54.269  1.00  0.00    -0.266 OA
HETATM    4  H   UNL     1     -41.649  56.445 -53.545  1.00  0.00     0.163 HD
ENDROOT
BRANCH   1   5
HETATM    5  C   UNL     1     -43.322  57.314 -54.549  1.00  0.00     0.158 C 
BRANCH   5   6
HETATM    6  C   UNL     1     -42.738  58.077 -55.766  1.00  0.00     0.008 C 
HETATM    7  C   UNL     1     -43.633  59.267 -56.133  1.00  0.00     0.012 C 
HETATM    8  C   UNL     1     -42.519  57.211 -57.013  1.00  0.00     0.012 C 
ENDBRANCH   5   6
BRANCH   5   9
HETATM    9  C   UNL     1     -43.626  58.212 -53.375  1.00  0.00     0.128 A 
HETATM   10  N   UNL     1     -44.788  58.425 -52.787  1.00  0.00    -0.231 NA
HETATM   11  C   UNL     1     -44.532  59.293 -51.755  1.00  0.00     0.085 A 
HETATM   12  C   UNL     1     -43.183  59.622 -51.704  1.00  0.00     0.062 A 
HETATM   13  C   UNL     1     -45.409  59.848 -50.811  1.00  0.00     0.034 A 
HETATM   14  N   UNL     1     -42.626  58.907 -52.730  1.00  0.00    -0.341 N 
HETATM   15  C   UNL     1     -42.641  60.497 -50.762  1.00  0.00     0.032 A 
HETATM   16  H   UNL     1     -41.649  58.895 -52.997  1.00  0.00     0.167 HD
HETATM   17  C   UNL     1     -43.532  61.046 -49.830  1.00  0.00     0.002 A 
HETATM   18  C   UNL     1     -44.891  60.725 -49.849  1.00  0.00     0.002 A 
ENDBRANCH   5   9
ENDBRANCH   1   5
BRANCH   2  19
HETATM   19  C   UNL     1     -41.907  53.972 -53.379  1.00  0.00     0.155 A 
HETATM   20  N   UNL     1     -41.346  53.140 -54.212  1.00  0.00    -0.166 NA
HETATM   21  N   UNL     1     -40.407  52.284 -53.722  1.00  0.00    -0.242 N 
HETATM   22  C   UNL     1     -39.958  52.232 -52.423  1.00  0.00     0.272 A 
HETATM   23  H   UNL     1     -39.960  51.661 -54.390  1.00  0.00     0.192 HD
HETATM   24  O   UNL     1     -39.076  51.462 -52.064  1.00  0.00    -0.266 OA
HETATM   25  C   UNL     1     -40.611  53.150 -51.474  1.00  0.00     0.046 A 
HETATM   26  C   UNL     1     -41.604  54.014 -51.934  1.00  0.00     0.016 A 
HETATM   27  C   UNL     1     -40.244  53.140 -50.122  1.00  0.00     0.018 A 
HETATM   28  C   UNL     1     -42.259  54.852 -51.025  1.00  0.00     0.015 A 
HETATM   29  C   UNL     1     -41.896  54.840 -49.674  1.00  0.00     0.001 A 
HETATM   30  C   UNL     1     -40.888  53.990 -49.225  1.00  0.00     0.001 A 
ENDBRANCH   2  19
TORSDOF 4
ENDMDL
MODEL 8
REMARK VINA RESULT:      -7.5      2.086      2.804
REMARK  4 active torsions:
REMARK  status: ('A' for Active; 'I' for Inactive)
REMARK    1  A    between atoms: C_2  and  C_3 
REMARK    2  A    between atoms: C_3  and  N_4 
REMARK    3  A    between atoms: C_3  and  C_18 
REMARK       I    between atoms: N_4  and  C_5 
REMARK    4  A    between atoms: C_5  and  C_6 
ROOT
HETATM    1  N   UNL     1     -42.133  57.513 -55.240  1.00  0.00    -0.344 N 
HETATM    2  C   UNL     1     -43.108  56.761 -54.627  1.00  0.00     0.273 C 
HETATM    3  O   UNL     1     -44.279  56.718 -54.974  1.00  0.00    -0.266 OA
HETATM    4  H   UNL     1     -41.322  57.719 -54.663  1.00  0.00     0.163 HD
ENDROOT
BRANCH   1   5
HETATM    5  C   UNL     1     -42.426  58.391 -56.364  1.00  0.00     0.158 C 
BRANCH   5   6
HETATM    6  C   UNL     1     -43.151  59.690 -55.925  1.00  0.00     0.008 C 
HETATM    7  C   UNL     1     -42.828  60.837 -56.891  1.00  0.00     0.012 C 
HETATM    8  C   UNL     1     -42.840  60.139 -54.492  1.00  0.00     0.012 C 
ENDBRANCH   5   6
BRANCH   5   9
HETATM    9  C   UNL     1     -43.176  57.619 -57.420  1.00  0.00     0.128 A 
HETATM   10  N   UNL     1     -42.770  56.568 -58.108  1.00  0.00    -0.231 NA
HETATM   11  C   UNL     1     -43.825  56.219 -58.915  1.00  0.00     0.085 A 
HETATM   12  C   UNL     1     -44.904  57.072 -58.721  1.00  0.00     0.062 A 
HETATM   13  C   UNL     1     -43.935  55.176 -59.847  1.00  0.00     0.034 A 
HETATM   14  N   UNL     1     -44.474  57.940 -57.752  1.00  0.00    -0.341 N 
HETATM   15  C   UNL     1     -46.107  56.960 -59.419  1.00  0.00     0.032 A 
HETATM   16  H   UNL     1     -45.001  58.706 -57.350  1.00  0.00     0.167 HD
HETATM   17  C   UNL     1     -46.198  55.916 -60.348  1.00  0.00     0.002 A 
HETATM   18  C   UNL     1     -45.133  55.036 -60.558  1.00  0.00     0.002 A 
ENDBRANCH   5   9
ENDBRANCH   1   5
BRANCH   2  19
HETATM   19  C   UNL     1     -42.625  56.028 -53.378  1.00  0.00     0.155 A 
HETATM   20  N   UNL     1     -43.032  56.526 -52.243  1.00  0.00    -0.166 NA
HETATM   21  N   UNL     1     -42.659  55.890 -51.098  1.00  0.00    -0.242 N 
HETATM   22  C   UNL     1     -41.914  54.737 -51.018  1.00  0.00     0.272 A 
HETATM   23  H   UNL     1     -43.007  56.277 -50.224  1.00  0.00     0.192 HD
HETATM   24  O   UNL     1     -41.654  54.196 -49.950  1.00  0.00    -0.266 OA
HETATM   25  C   UNL     1     -41.429  54.188 -52.297  1.00  0.00     0.046 A 
HETATM   26  C   UNL     1     -41.759  54.837 -53.486  1.00  0.00     0.016 A 
HETATM   27  C   UNL     1     -40.631  53.037 -52.309  1.00  0.00     0.018 A 
HETATM   28  C   UNL     1     -41.259  54.345 -54.697  1.00  0.00     0.015 A 
HETATM   29  C   UNL     1     -40.460  53.197 -54.710  1.00  0.00     0.001 A 
HETATM   30  C   UNL     1     -40.151  52.542 -53.520  1.00  0.00     0.001 A 
ENDBRANCH   2  19
TORSDOF 4
ENDMDL
MODEL 9
REMARK VINA RESULT:      -7.5      1.878      2.658
REMARK  4 active torsions:
REMARK  status: ('A' for Active; 'I' for Inactive)
REMARK    1  A    between atoms: C_2  and  C_3 
REMARK    2  A    between atoms: C_3  and  N_4 
REMARK    3  A    between atoms: C_3  and  C_18 
REMARK       I    between atoms: N_4  and  C_5 
REMARK    4  A    between atoms: C_5  and  C_6 
ROOT
HETATM    1  N   UNL     1     -42.442  58.780 -52.968  1.00  0.00    -0.344 N 
HETATM    2  C   UNL     1     -41.211  58.406 -52.483  1.00  0.00     0.273 C 
HETATM    3  O   UNL     1     -40.203  59.095 -52.526  1.00  0.00    -0.266 OA
HETATM    4  H   UNL     1     -43.075  58.012 -53.174  1.00  0.00     0.163 HD
ENDROOT
BRANCH   1   5
HETATM    5  C   UNL     1     -42.654  60.053 -53.640  1.00  0.00     0.158 C 
BRANCH   5   6
HETATM    6  C   UNL     1     -44.017  60.696 -53.271  1.00  0.00     0.008 C 
HETATM    7  C   UNL     1     -44.003  61.185 -51.817  1.00  0.00     0.012 C 
HETATM    8  C   UNL     1     -45.229  59.781 -53.482  1.00  0.00     0.012 C 
ENDBRANCH   5   6
BRANCH   5   9
HETATM    9  C   UNL     1     -42.465  59.873 -55.126  1.00  0.00     0.128 A 
HETATM   10  N   UNL     1     -42.515  58.756 -55.827  1.00  0.00    -0.231 NA
HETATM   11  C   UNL     1     -42.312  59.124 -57.134  1.00  0.00     0.085 A 
HETATM   12  C   UNL     1     -42.134  60.498 -57.242  1.00  0.00     0.062 A 
HETATM   13  C   UNL     1     -42.266  58.334 -58.292  1.00  0.00     0.034 A 
HETATM   14  N   UNL     1     -42.256  60.953 -55.956  1.00  0.00    -0.341 N 
HETATM   15  C   UNL     1     -41.895  61.149 -58.453  1.00  0.00     0.032 A 
HETATM   16  H   UNL     1     -42.187  61.915 -55.646  1.00  0.00     0.167 HD
HETATM   17  C   UNL     1     -41.848  60.344 -59.599  1.00  0.00     0.002 A 
HETATM   18  C   UNL     1     -42.034  58.962 -59.523  1.00  0.00     0.002 A 
ENDBRANCH   5   9
ENDBRANCH   1   5
BRANCH   2  19
HETATM   19  C   UNL     1     -41.168  56.975 -51.951  1.00  0.00     0.155 A 
HETATM   20  N   UNL     1     -41.325  56.850 -50.662  1.00  0.00    -0.166 NA
HETATM   21  N   UNL     1     -41.329  55.592 -50.141  1.00  0.00    -0.242 N 
HETATM   22  C   UNL     1     -41.219  54.420 -50.851  1.00  0.00     0.272 A 
HETATM   23  H   UNL     1     -41.480  55.513 -49.138  1.00  0.00     0.192 HD
HETATM   24  O   UNL     1     -41.275  53.320 -50.315  1.00  0.00    -0.266 OA
HETATM   25  C   UNL     1     -41.011  54.559 -52.303  1.00  0.00     0.046 A 
HETATM   26  C   UNL     1     -40.962  55.833 -52.866  1.00  0.00     0.016 A 
HETATM   27  C   UNL     1     -40.850  53.419 -53.101  1.00  0.00     0.018 A 
HETATM   28  C   UNL     1     -40.717  55.968 -54.237  1.00  0.00     0.015 A 
HETATM   29  C   UNL     1     -40.553  54.831 -55.035  1.00  0.00     0.001 A 
HETATM   30  C   UNL     1     -40.624  53.559 -54.469  1.00  0.00     0.001 A 
ENDBRANCH   2  19
TORSDOF 4
ENDMDL
MODEL 10
REMARK VINA RESULT:      -7.4     15.482     17.722
REMARK  4 active torsions:
REMARK  status: ('A' for Active; 'I' for Inactive)
REMARK    1  A    between atoms: C_2  and  C_3 
REMARK    2  A    between atoms: C_3  and  N_4 
REMARK    3  A    between atoms: C_3  and  C_18 
REMARK       I    between atoms: N_4  and  C_5 
REMARK    4  A    between atoms: C_5  and  C_6 
ROOT
HETATM    1  N   UNL     1     -35.730  40.660 -54.413  1.00  0.00    -0.344 N 
HETATM    2  C   UNL     1     -35.836  41.516 -53.342  1.00  0.00     0.273 C 
HETATM    3  O   UNL     1     -35.657  42.723 -53.392  1.00  0.00    -0.266 OA
HETATM    4  H   UNL     1     -35.567  39.686 -54.171  1.00  0.00     0.163 HD
ENDROOT
BRANCH   1   5
HETATM    5  C   UNL     1     -35.336  41.121 -55.736  1.00  0.00     0.158 C 
BRANCH   5   6
HETATM    6  C   UNL     1     -36.469  40.952 -56.782  1.00  0.00     0.008 C 
HETATM    7  C   UNL     1     -36.343  42.010 -57.885  1.00  0.00     0.012 C 
HETATM    8  C   UNL     1     -37.886  41.003 -56.198  1.00  0.00     0.012 C 
ENDBRANCH   5   6
BRANCH   5   9
HETATM    9  C   UNL     1     -34.049  40.446 -56.139  1.00  0.00     0.128 A 
HETATM   10  N   UNL     1     -32.815  40.769 -55.802  1.00  0.00    -0.231 NA
HETATM   11  C   UNL     1     -32.006  39.832 -56.396  1.00  0.00     0.085 A 
HETATM   12  C   UNL     1     -32.757  38.910 -57.115  1.00  0.00     0.062 A 
HETATM   13  C   UNL     1     -30.610  39.703 -56.366  1.00  0.00     0.034 A 
HETATM   14  N   UNL     1     -34.052  39.310 -56.920  1.00  0.00    -0.341 N 
HETATM   15  C   UNL     1     -32.195  37.853 -57.832  1.00  0.00     0.032 A 
HETATM   16  H   UNL     1     -34.884  38.869 -57.294  1.00  0.00     0.167 HD
HETATM   17  C   UNL     1     -30.799  37.742 -57.795  1.00  0.00     0.002 A 
HETATM   18  C   UNL     1     -30.018  38.647 -57.072  1.00  0.00     0.002 A 
ENDBRANCH   5   9
ENDBRANCH   1   5
BRANCH   2  19
HETATM   19  C   UNL     1     -36.112  40.811 -52.016  1.00  0.00     0.155 A 
HETATM   20  N   UNL     1     -37.371  40.645 -51.719  1.00  0.00    -0.166 NA
HETATM   21  N   UNL     1     -37.673  39.991 -50.564  1.00  0.00    -0.242 N 
HETATM   22  C   UNL     1     -36.769  39.448 -49.681  1.00  0.00     0.272 A 
HETATM   23  H   UNL     1     -38.659  39.847 -50.362  1.00  0.00     0.192 HD
HETATM   24  O   UNL     1     -37.117  38.834 -48.681  1.00  0.00    -0.266 OA
HETATM   25  C   UNL     1     -35.346  39.660 -49.998  1.00  0.00     0.046 A 
HETATM   26  C   UNL     1     -35.001  40.359 -51.154  1.00  0.00     0.016 A 
HETATM   27  C   UNL     1     -34.355  39.175 -49.135  1.00  0.00     0.018 A 
HETATM   28  C   UNL     1     -33.652  40.603 -51.430  1.00  0.00     0.015 A 
HETATM   29  C   UNL     1     -32.661  40.122 -50.568  1.00  0.00     0.001 A 
HETATM   30  C   UNL     1     -33.012  39.405 -49.425  1.00  0.00     0.001 A 
ENDBRANCH   2  19
TORSDOF 4
ENDMDL
