MODEL 1
REMARK VINA RESULT:      -6.7      0.000      0.000
REMARK  10 active torsions:
REMARK  status: ('A' for Active; 'I' for Inactive)
REMARK    1  A    between atoms: O_2  and  C_3 
REMARK    2  A    between atoms: C_6  and  N_7 
REMARK    3  A    between atoms: N_7  and  C_8 
REMARK    4  A    between atoms: C_8  and  N_9 
REMARK    5  A    between atoms: N_9  and  N_10 
REMARK       I    between atoms: N_10  and  C_11 
REMARK    6  A    between atoms: C_11  and  C_12 
REMARK    7  A    between atoms: C_12  and  S_13 
REMARK    8  A    between atoms: S_13  and  C_14 
REMARK    9  A    between atoms: C_14  and  C_15 
REMARK       I    between atoms: C_15  and  N_16 
REMARK   10  A    between atoms: N_16  and  C_17 
ROOT
HETATM    1  N   UNL     1     -42.776  55.818 -57.350  1.00  0.00    -0.267 N 
HETATM    2  C   UNL     1     -43.328  57.031 -57.659  1.00  0.00     0.245 C 
HETATM    3  O   UNL     1     -44.186  57.093 -58.542  1.00  0.00    -0.271 OA
HETATM    4  H   UNL     1     -43.117  55.007 -57.863  1.00  0.00     0.190 HD
ENDROOT
BRANCH   1   5
HETATM    5  N   UNL     1     -41.752  55.608 -56.431  1.00  0.00    -0.274 N 
HETATM    6  H   UNL     1     -40.843  56.031 -56.610  1.00  0.00     0.189 HD
BRANCH   5   7
HETATM    7  C   UNL     1     -41.957  54.895 -55.277  1.00  0.00     0.191 C 
HETATM    8  S   UNL     1     -43.455  54.390 -54.723  1.00  0.00    -0.039 SA
BRANCH   7   9
HETATM    9  N   UNL     1     -40.860  54.627 -54.507  1.00  0.00    -0.332 N 
HETATM   10  H   UNL     1     -40.358  55.463 -54.222  1.00  0.00     0.168 HD
BRANCH   9  11
HETATM   11  C   UNL     1     -40.432  53.428 -53.901  1.00  0.00     0.034 A 
HETATM   12  C   UNL     1     -40.309  53.422 -52.510  1.00  0.00     0.032 A 
HETATM   13  C   UNL     1     -39.930  52.258 -51.836  1.00  0.00     0.039 A 
HETATM   14  C   UNL     1     -39.694  51.074 -52.536  1.00  0.00     0.068 A 
HETATM   15  C   UNL     1     -39.838  51.069 -53.922  1.00  0.00     0.039 A 
HETATM   16  C   UNL     1     -40.214  52.237 -54.599  1.00  0.00     0.032 A 
BRANCH  14  17
HETATM   17  O   UNL     1     -39.345  50.007 -51.757  1.00  0.00    -0.356 OA
HETATM   18  C   UNL     1     -39.879  49.970 -50.439  1.00  0.00     0.210 C 
ENDBRANCH  14  17
ENDBRANCH   9  11
ENDBRANCH   7   9
ENDBRANCH   5   7
ENDBRANCH   1   5
BRANCH   2  19
HETATM   19  C   UNL     1     -42.943  58.270 -56.874  1.00  0.00     0.178 C 
BRANCH  19  20
HETATM   20  S   UNL     1     -44.011  58.698 -55.458  1.00  0.00    -0.150 SA
BRANCH  20  21
HETATM   21  C   UNL     1     -42.793  59.236 -54.216  1.00  0.00     0.177 C 
BRANCH  21  22
HETATM   22  C   UNL     1     -42.149  58.122 -53.411  1.00  0.00     0.231 C 
HETATM   23  N   UNL     1     -42.836  57.778 -52.262  1.00  0.00    -0.327 N 
HETATM   24  H   UNL     1     -43.626  58.367 -52.021  1.00  0.00     0.169 HD
HETATM   25  O   UNL     1     -41.157  57.554 -53.864  1.00  0.00    -0.272 OA
BRANCH  23  26
HETATM   26  C   UNL     1     -42.558  56.706 -51.389  1.00  0.00     0.034 A 
HETATM   27  C   UNL     1     -43.357  55.567 -51.270  1.00  0.00     0.029 A 
HETATM   28  C   UNL     1     -43.028  54.556 -50.363  1.00  0.00     0.002 A 
HETATM   29  C   UNL     1     -41.892  54.673 -49.566  1.00  0.00     0.000 A 
HETATM   30  C   UNL     1     -41.082  55.798 -49.681  1.00  0.00     0.002 A 
HETATM   31  C   UNL     1     -41.413  56.811 -50.588  1.00  0.00     0.029 A 
ENDBRANCH  23  26
ENDBRANCH  21  22
ENDBRANCH  20  21
ENDBRANCH  19  20
ENDBRANCH   2  19
TORSDOF 10
ENDMDL
MODEL 2
REMARK VINA RESULT:      -6.6      2.452      6.906
REMARK  10 active torsions:
REMARK  status: ('A' for Active; 'I' for Inactive)
REMARK    1  A    between atoms: O_2  and  C_3 
REMARK    2  A    between atoms: C_6  and  N_7 
REMARK    3  A    between atoms: N_7  and  C_8 
REMARK    4  A    between atoms: C_8  and  N_9 
REMARK    5  A    between atoms: N_9  and  N_10 
REMARK       I    between atoms: N_10  and  C_11 
REMARK    6  A    between atoms: C_11  and  C_12 
REMARK    7  A    between atoms: C_12  and  S_13 
REMARK    8  A    between atoms: S_13  and  C_14 
REMARK    9  A    between atoms: C_14  and  C_15 
REMARK       I    between atoms: C_15  and  N_16 
REMARK   10  A    between atoms: N_16  and  C_17 
ROOT
HETATM    1  N   UNL     1     -44.308  56.498 -52.802  1.00  0.00    -0.267 N 
HETATM    2  C   UNL     1     -44.026  56.976 -51.551  1.00  0.00     0.245 C 
HETATM    3  O   UNL     1     -44.758  56.661 -50.610  1.00  0.00    -0.271 OA
HETATM    4  H   UNL     1     -45.113  55.882 -52.895  1.00  0.00     0.190 HD
ENDROOT
BRANCH   1   5
HETATM    5  N   UNL     1     -43.615  56.825 -53.965  1.00  0.00    -0.274 N 
HETATM    6  H   UNL     1     -43.302  57.786 -54.090  1.00  0.00     0.189 HD
BRANCH   5   7
HETATM    7  C   UNL     1     -43.306  55.877 -54.907  1.00  0.00     0.191 C 
HETATM    8  S   UNL     1     -42.361  54.525 -54.623  1.00  0.00    -0.039 SA
BRANCH   7   9
HETATM    9  N   UNL     1     -43.767  56.088 -56.177  1.00  0.00    -0.332 N 
HETATM   10  H   UNL     1     -44.752  55.868 -56.287  1.00  0.00     0.168 HD
BRANCH   9  11
HETATM   11  C   UNL     1     -43.162  56.725 -57.280  1.00  0.00     0.034 A 
HETATM   12  C   UNL     1     -43.249  56.082 -58.517  1.00  0.00     0.032 A 
HETATM   13  C   UNL     1     -42.710  56.672 -59.663  1.00  0.00     0.039 A 
HETATM   14  C   UNL     1     -42.099  57.925 -59.600  1.00  0.00     0.068 A 
HETATM   15  C   UNL     1     -42.029  58.581 -58.372  1.00  0.00     0.039 A 
HETATM   16  C   UNL     1     -42.566  57.988 -57.221  1.00  0.00     0.032 A 
BRANCH  14  17
HETATM   17  O   UNL     1     -41.627  58.394 -60.793  1.00  0.00    -0.356 OA
HETATM   18  C   UNL     1     -41.915  59.751 -61.111  1.00  0.00     0.210 C 
ENDBRANCH  14  17
ENDBRANCH   9  11
ENDBRANCH   7   9
ENDBRANCH   5   7
ENDBRANCH   1   5
BRANCH   2  19
HETATM   19  C   UNL     1     -42.790  57.819 -51.313  1.00  0.00     0.178 C 
BRANCH  19  20
HETATM   20  S   UNL     1     -41.186  56.953 -51.406  1.00  0.00    -0.150 SA
BRANCH  20  21
HETATM   21  C   UNL     1     -41.454  55.543 -50.285  1.00  0.00     0.177 C 
BRANCH  21  22
HETATM   22  C   UNL     1     -41.538  54.184 -50.956  1.00  0.00     0.231 C 
HETATM   23  N   UNL     1     -40.312  53.593 -51.201  1.00  0.00    -0.327 N 
HETATM   24  H   UNL     1     -39.495  54.163 -51.012  1.00  0.00     0.169 HD
HETATM   25  O   UNL     1     -42.641  53.675 -51.139  1.00  0.00    -0.272 OA
BRANCH  23  26
HETATM   26  C   UNL     1     -40.074  52.291 -51.689  1.00  0.00     0.034 A 
HETATM   27  C   UNL     1     -39.879  51.174 -50.874  1.00  0.00     0.029 A 
HETATM   28  C   UNL     1     -39.624  49.919 -51.433  1.00  0.00     0.002 A 
HETATM   29  C   UNL     1     -39.564  49.767 -52.815  1.00  0.00     0.000 A 
HETATM   30  C   UNL     1     -39.764  50.870 -53.640  1.00  0.00     0.002 A 
HETATM   31  C   UNL     1     -40.019  52.127 -53.080  1.00  0.00     0.029 A 
ENDBRANCH  23  26
ENDBRANCH  21  22
ENDBRANCH  20  21
ENDBRANCH  19  20
ENDBRANCH   2  19
TORSDOF 10
ENDMDL
MODEL 3
REMARK VINA RESULT:      -6.6      2.330      3.378
REMARK  10 active torsions:
REMARK  status: ('A' for Active; 'I' for Inactive)
REMARK    1  A    between atoms: O_2  and  C_3 
REMARK    2  A    between atoms: C_6  and  N_7 
REMARK    3  A    between atoms: N_7  and  C_8 
REMARK    4  A    between atoms: C_8  and  N_9 
REMARK    5  A    between atoms: N_9  and  N_10 
REMARK       I    between atoms: N_10  and  C_11 
REMARK    6  A    between atoms: C_11  and  C_12 
REMARK    7  A    between atoms: C_12  and  S_13 
REMARK    8  A    between atoms: S_13  and  C_14 
REMARK    9  A    between atoms: C_14  and  C_15 
REMARK       I    between atoms: C_15  and  N_16 
REMARK   10  A    between atoms: N_16  and  C_17 
ROOT
HETATM    1  N   UNL     1     -42.215  58.719 -55.430  1.00  0.00    -0.267 N 
HETATM    2  C   UNL     1     -41.774  58.807 -54.138  1.00  0.00     0.245 C 
HETATM    3  O   UNL     1     -40.732  59.422 -53.901  1.00  0.00    -0.271 OA
HETATM    4  H   UNL     1     -41.660  59.187 -56.145  1.00  0.00     0.190 HD
ENDROOT
BRANCH   1   5
HETATM    5  N   UNL     1     -43.329  58.001 -55.856  1.00  0.00    -0.274 N 
HETATM    6  H   UNL     1     -44.254  58.359 -55.625  1.00  0.00     0.189 HD
BRANCH   5   7
HETATM    7  C   UNL     1     -43.206  56.866 -56.616  1.00  0.00     0.191 C 
HETATM    8  S   UNL     1     -42.998  56.849 -58.277  1.00  0.00    -0.039 SA
BRANCH   7   9
HETATM    9  N   UNL     1     -43.312  55.668 -55.966  1.00  0.00    -0.332 N 
HETATM   10  H   UNL     1     -44.249  55.276 -55.999  1.00  0.00     0.168 HD
BRANCH   9  11
HETATM   11  C   UNL     1     -42.319  54.817 -55.437  1.00  0.00     0.034 A 
HETATM   12  C   UNL     1     -42.740  53.600 -54.898  1.00  0.00     0.032 A 
HETATM   13  C   UNL     1     -41.809  52.687 -54.393  1.00  0.00     0.039 A 
HETATM   14  C   UNL     1     -40.442  52.963 -54.442  1.00  0.00     0.068 A 
HETATM   15  C   UNL     1     -40.016  54.167 -54.999  1.00  0.00     0.039 A 
HETATM   16  C   UNL     1     -40.949  55.084 -55.502  1.00  0.00     0.032 A 
BRANCH  14  17
HETATM   17  O   UNL     1     -39.641  51.984 -53.928  1.00  0.00    -0.356 OA
HETATM   18  C   UNL     1     -39.947  50.643 -54.293  1.00  0.00     0.210 C 
ENDBRANCH  14  17
ENDBRANCH   9  11
ENDBRANCH   7   9
ENDBRANCH   5   7
ENDBRANCH   1   5
BRANCH   2  19
HETATM   19  C   UNL     1     -42.595  58.220 -53.008  1.00  0.00     0.178 C 
BRANCH  19  20
HETATM   20  S   UNL     1     -43.222  59.398 -51.763  1.00  0.00    -0.150 SA
BRANCH  20  21
HETATM   21  C   UNL     1     -41.824  59.497 -50.600  1.00  0.00     0.177 C 
BRANCH  21  22
HETATM   22  C   UNL     1     -41.011  58.224 -50.448  1.00  0.00     0.231 C 
HETATM   23  N   UNL     1     -41.744  57.126 -50.037  1.00  0.00    -0.327 N 
HETATM   24  H   UNL     1     -42.708  57.304 -49.777  1.00  0.00     0.169 HD
HETATM   25  O   UNL     1     -39.829  58.226 -50.783  1.00  0.00    -0.272 OA
BRANCH  23  26
HETATM   26  C   UNL     1     -41.298  55.792 -49.933  1.00  0.00     0.034 A 
HETATM   27  C   UNL     1     -40.995  55.162 -48.724  1.00  0.00     0.029 A 
HETATM   28  C   UNL     1     -40.535  53.842 -48.704  1.00  0.00     0.002 A 
HETATM   29  C   UNL     1     -40.375  53.138 -49.893  1.00  0.00     0.000 A 
HETATM   30  C   UNL     1     -40.680  53.751 -51.104  1.00  0.00     0.002 A 
HETATM   31  C   UNL     1     -41.140  55.072 -51.125  1.00  0.00     0.029 A 
ENDBRANCH  23  26
ENDBRANCH  21  22
ENDBRANCH  20  21
ENDBRANCH  19  20
ENDBRANCH   2  19
TORSDOF 10
ENDMDL
MODEL 4
REMARK VINA RESULT:      -6.6      2.369      6.656
REMARK  10 active torsions:
REMARK  status: ('A' for Active; 'I' for Inactive)
REMARK    1  A    between atoms: O_2  and  C_3 
REMARK    2  A    between atoms: C_6  and  N_7 
REMARK    3  A    between atoms: N_7  and  C_8 
REMARK    4  A    between atoms: C_8  and  N_9 
REMARK    5  A    between atoms: N_9  and  N_10 
REMARK       I    between atoms: N_10  and  C_11 
REMARK    6  A    between atoms: C_11  and  C_12 
REMARK    7  A    between atoms: C_12  and  S_13 
REMARK    8  A    between atoms: S_13  and  C_14 
REMARK    9  A    between atoms: C_14  and  C_15 
REMARK       I    between atoms: C_15  and  N_16 
REMARK   10  A    between atoms: N_16  and  C_17 
ROOT
HETATM    1  N   UNL     1     -43.985  56.547 -52.737  1.00  0.00    -0.267 N 
HETATM    2  C   UNL     1     -43.924  57.164 -51.517  1.00  0.00     0.245 C 
HETATM    3  O   UNL     1     -44.847  57.002 -50.716  1.00  0.00    -0.271 OA
HETATM    4  H   UNL     1     -44.798  55.961 -52.922  1.00  0.00     0.190 HD
ENDROOT
BRANCH   1   5
HETATM    5  N   UNL     1     -43.057  56.694 -53.764  1.00  0.00    -0.274 N 
HETATM    6  H   UNL     1     -42.264  56.055 -53.797  1.00  0.00     0.189 HD
BRANCH   5   7
HETATM    7  C   UNL     1     -43.217  57.635 -54.748  1.00  0.00     0.191 C 
HETATM    8  S   UNL     1     -44.381  58.839 -54.735  1.00  0.00    -0.039 SA
BRANCH   7   9
HETATM    9  N   UNL     1     -42.394  57.545 -55.836  1.00  0.00    -0.332 N 
HETATM   10  H   UNL     1     -41.409  57.621 -55.600  1.00  0.00     0.168 HD
BRANCH   9  11
HETATM   11  C   UNL     1     -42.670  57.182 -57.171  1.00  0.00     0.034 A 
HETATM   12  C   UNL     1     -43.340  55.975 -57.379  1.00  0.00     0.032 A 
HETATM   13  C   UNL     1     -43.685  55.569 -58.672  1.00  0.00     0.039 A 
HETATM   14  C   UNL     1     -43.391  56.374 -59.774  1.00  0.00     0.068 A 
HETATM   15  C   UNL     1     -42.742  57.590 -59.568  1.00  0.00     0.039 A 
HETATM   16  C   UNL     1     -42.393  57.995 -58.272  1.00  0.00     0.032 A 
BRANCH  14  17
HETATM   17  O   UNL     1     -43.793  55.868 -60.977  1.00  0.00    -0.356 OA
HETATM   18  C   UNL     1     -44.967  55.063 -60.978  1.00  0.00     0.210 C 
ENDBRANCH  14  17
ENDBRANCH   9  11
ENDBRANCH   7   9
ENDBRANCH   5   7
ENDBRANCH   1   5
BRANCH   2  19
HETATM   19  C   UNL     1     -42.703  57.974 -51.130  1.00  0.00     0.178 C 
BRANCH  19  20
HETATM   20  S   UNL     1     -41.171  57.033 -50.816  1.00  0.00    -0.150 SA
BRANCH  20  21
HETATM   21  C   UNL     1     -41.818  55.476 -50.128  1.00  0.00     0.177 C 
BRANCH  21  22
HETATM   22  C   UNL     1     -41.836  54.299 -51.087  1.00  0.00     0.231 C 
HETATM   23  N   UNL     1     -40.584  53.820 -51.424  1.00  0.00    -0.327 N 
HETATM   24  H   UNL     1     -39.794  54.363 -51.092  1.00  0.00     0.169 HD
HETATM   25  O   UNL     1     -42.915  53.805 -51.407  1.00  0.00    -0.272 OA
BRANCH  23  26
HETATM   26  C   UNL     1     -40.286  52.669 -52.184  1.00  0.00     0.034 A 
HETATM   27  C   UNL     1     -40.490  52.568 -53.561  1.00  0.00     0.029 A 
HETATM   28  C   UNL     1     -40.192  51.384 -54.241  1.00  0.00     0.002 A 
HETATM   29  C   UNL     1     -39.684  50.288 -53.550  1.00  0.00     0.000 A 
HETATM   30  C   UNL     1     -39.469  50.378 -52.178  1.00  0.00     0.002 A 
HETATM   31  C   UNL     1     -39.768  51.563 -51.497  1.00  0.00     0.029 A 
ENDBRANCH  23  26
ENDBRANCH  21  22
ENDBRANCH  20  21
ENDBRANCH  19  20
ENDBRANCH   2  19
TORSDOF 10
ENDMDL
MODEL 5
REMARK VINA RESULT:      -6.6      2.437      4.521
REMARK  10 active torsions:
REMARK  status: ('A' for Active; 'I' for Inactive)
REMARK    1  A    between atoms: O_2  and  C_3 
REMARK    2  A    between atoms: C_6  and  N_7 
REMARK    3  A    between atoms: N_7  and  C_8 
REMARK    4  A    between atoms: C_8  and  N_9 
REMARK    5  A    between atoms: N_9  and  N_10 
REMARK       I    between atoms: N_10  and  C_11 
REMARK    6  A    between atoms: C_11  and  C_12 
REMARK    7  A    between atoms: C_12  and  S_13 
REMARK    8  A    between atoms: S_13  and  C_14 
REMARK    9  A    between atoms: C_14  and  C_15 
REMARK       I    between atoms: C_15  and  N_16 
REMARK   10  A    between atoms: N_16  and  C_17 
ROOT
HETATM    1  N   UNL     1     -42.203  60.384 -53.132  1.00  0.00    -0.267 N 
HETATM    2  C   UNL     1     -43.185  61.140 -53.713  1.00  0.00     0.245 C 
HETATM    3  O   UNL     1     -42.944  62.312 -54.007  1.00  0.00    -0.271 OA
HETATM    4  H   UNL     1     -41.299  60.829 -52.983  1.00  0.00     0.190 HD
ENDROOT
BRANCH   1   5
HETATM    5  N   UNL     1     -42.351  59.074 -52.683  1.00  0.00    -0.274 N 
HETATM    6  H   UNL     1     -42.604  58.355 -53.359  1.00  0.00     0.189 HD
BRANCH   5   7
HETATM    7  C   UNL     1     -42.113  58.731 -51.377  1.00  0.00     0.191 C 
HETATM    8  S   UNL     1     -41.101  59.571 -50.341  1.00  0.00    -0.039 SA
BRANCH   7   9
HETATM    9  N   UNL     1     -42.711  57.593 -50.913  1.00  0.00    -0.332 N 
HETATM   10  H   UNL     1     -43.696  57.719 -50.695  1.00  0.00     0.168 HD
BRANCH   9  11
HETATM   11  C   UNL     1     -42.248  56.262 -50.871  1.00  0.00     0.034 A 
HETATM   12  C   UNL     1     -40.974  56.045 -50.340  1.00  0.00     0.032 A 
HETATM   13  C   UNL     1     -40.464  54.748 -50.227  1.00  0.00     0.039 A 
HETATM   14  C   UNL     1     -41.226  53.646 -50.617  1.00  0.00     0.068 A 
HETATM   15  C   UNL     1     -42.506  53.856 -51.127  1.00  0.00     0.039 A 
HETATM   16  C   UNL     1     -43.017  55.157 -51.244  1.00  0.00     0.032 A 
BRANCH  14  17
HETATM   17  O   UNL     1     -40.617  52.436 -50.441  1.00  0.00    -0.356 OA
HETATM   18  C   UNL     1     -39.730  52.007 -51.468  1.00  0.00     0.210 C 
ENDBRANCH  14  17
ENDBRANCH   9  11
ENDBRANCH   7   9
ENDBRANCH   5   7
ENDBRANCH   1   5
BRANCH   2  19
HETATM   19  C   UNL     1     -44.525  60.521 -54.055  1.00  0.00     0.178 C 
BRANCH  19  20
HETATM   20  S   UNL     1     -44.685  59.805 -55.726  1.00  0.00    -0.150 SA
BRANCH  20  21
HETATM   21  C   UNL     1     -45.465  58.197 -55.375  1.00  0.00     0.177 C 
BRANCH  21  22
HETATM   22  C   UNL     1     -44.583  57.188 -54.663  1.00  0.00     0.231 C 
HETATM   23  N   UNL     1     -43.757  56.462 -55.501  1.00  0.00    -0.327 N 
HETATM   24  H   UNL     1     -43.901  56.596 -56.496  1.00  0.00     0.169 HD
HETATM   25  O   UNL     1     -44.586  57.153 -53.434  1.00  0.00    -0.272 OA
BRANCH  23  26
HETATM   26  C   UNL     1     -42.746  55.553 -55.126  1.00  0.00     0.034 A 
HETATM   27  C   UNL     1     -42.914  54.167 -55.093  1.00  0.00     0.029 A 
HETATM   28  C   UNL     1     -41.870  53.331 -54.686  1.00  0.00     0.002 A 
HETATM   29  C   UNL     1     -40.645  53.873 -54.310  1.00  0.00     0.000 A 
HETATM   30  C   UNL     1     -40.461  55.252 -54.344  1.00  0.00     0.002 A 
HETATM   31  C   UNL     1     -41.506  56.089 -54.751  1.00  0.00     0.029 A 
ENDBRANCH  23  26
ENDBRANCH  21  22
ENDBRANCH  20  21
ENDBRANCH  19  20
ENDBRANCH   2  19
TORSDOF 10
ENDMDL
MODEL 6
REMARK VINA RESULT:      -6.6      3.114      7.630
REMARK  10 active torsions:
REMARK  status: ('A' for Active; 'I' for Inactive)
REMARK    1  A    between atoms: O_2  and  C_3 
REMARK    2  A    between atoms: C_6  and  N_7 
REMARK    3  A    between atoms: N_7  and  C_8 
REMARK    4  A    between atoms: C_8  and  N_9 
REMARK    5  A    between atoms: N_9  and  N_10 
REMARK       I    between atoms: N_10  and  C_11 
REMARK    6  A    between atoms: C_11  and  C_12 
REMARK    7  A    between atoms: C_12  and  S_13 
REMARK    8  A    between atoms: S_13  and  C_14 
REMARK    9  A    between atoms: C_14  and  C_15 
REMARK       I    between atoms: C_15  and  N_16 
REMARK   10  A    between atoms: N_16  and  C_17 
ROOT
HETATM    1  N   UNL     1     -42.298  55.753 -56.652  1.00  0.00    -0.267 N 
HETATM    2  C   UNL     1     -42.801  55.473 -55.411  1.00  0.00     0.245 C 
HETATM    3  O   UNL     1     -43.078  54.306 -55.125  1.00  0.00    -0.271 OA
HETATM    4  H   UNL     1     -42.158  54.968 -57.286  1.00  0.00     0.190 HD
ENDROOT
BRANCH   1   5
HETATM    5  N   UNL     1     -42.008  57.025 -57.138  1.00  0.00    -0.274 N 
HETATM    6  H   UNL     1     -41.170  57.495 -56.798  1.00  0.00     0.189 HD
BRANCH   5   7
HETATM    7  C   UNL     1     -42.789  57.626 -58.091  1.00  0.00     0.191 C 
HETATM    8  S   UNL     1     -42.215  58.641 -59.292  1.00  0.00    -0.039 SA
BRANCH   7   9
HETATM    9  N   UNL     1     -44.137  57.414 -58.015  1.00  0.00    -0.332 N 
HETATM   10  H   UNL     1     -44.515  57.569 -57.085  1.00  0.00     0.168 HD
BRANCH   9  11
HETATM   11  C   UNL     1     -45.094  57.206 -59.030  1.00  0.00     0.034 A 
HETATM   12  C   UNL     1     -44.990  56.030 -59.776  1.00  0.00     0.032 A 
HETATM   13  C   UNL     1     -45.927  55.736 -60.771  1.00  0.00     0.039 A 
HETATM   14  C   UNL     1     -46.998  56.597 -61.019  1.00  0.00     0.068 A 
HETATM   15  C   UNL     1     -47.118  57.760 -60.261  1.00  0.00     0.039 A 
HETATM   16  C   UNL     1     -46.177  58.057 -59.266  1.00  0.00     0.032 A 
BRANCH  14  17
HETATM   17  O   UNL     1     -47.847  56.185 -62.007  1.00  0.00    -0.356 OA
HETATM   18  C   UNL     1     -48.669  57.181 -62.606  1.00  0.00     0.210 C 
ENDBRANCH  14  17
ENDBRANCH   9  11
ENDBRANCH   7   9
ENDBRANCH   5   7
ENDBRANCH   1   5
BRANCH   2  19
HETATM   19  C   UNL     1     -42.947  56.573 -54.378  1.00  0.00     0.178 C 
BRANCH  19  20
HETATM   20  S   UNL     1     -41.447  56.999 -53.430  1.00  0.00    -0.150 SA
BRANCH  20  21
HETATM   21  C   UNL     1     -41.701  56.070 -51.884  1.00  0.00     0.177 C 
BRANCH  21  22
HETATM   22  C   UNL     1     -41.722  54.559 -52.029  1.00  0.00     0.231 C 
HETATM   23  N   UNL     1     -40.649  54.038 -52.727  1.00  0.00    -0.327 N 
HETATM   24  H   UNL     1     -40.027  54.713 -53.159  1.00  0.00     0.169 HD
HETATM   25  O   UNL     1     -42.598  53.916 -51.455  1.00  0.00    -0.272 OA
BRANCH  23  26
HETATM   26  C   UNL     1     -40.329  52.677 -52.911  1.00  0.00     0.034 A 
HETATM   27  C   UNL     1     -39.724  51.879 -51.938  1.00  0.00     0.029 A 
HETATM   28  C   UNL     1     -39.415  50.541 -52.204  1.00  0.00     0.002 A 
HETATM   29  C   UNL     1     -39.712  49.988 -53.446  1.00  0.00     0.000 A 
HETATM   30  C   UNL     1     -40.322  50.770 -54.422  1.00  0.00     0.002 A 
HETATM   31  C   UNL     1     -40.630  52.109 -54.156  1.00  0.00     0.029 A 
ENDBRANCH  23  26
ENDBRANCH  21  22
ENDBRANCH  20  21
ENDBRANCH  19  20
ENDBRANCH   2  19
TORSDOF 10
ENDMDL
MODEL 7
REMARK VINA RESULT:      -6.5      2.413      4.684
REMARK  10 active torsions:
REMARK  status: ('A' for Active; 'I' for Inactive)
REMARK    1  A    between atoms: O_2  and  C_3 
REMARK    2  A    between atoms: C_6  and  N_7 
REMARK    3  A    between atoms: N_7  and  C_8 
REMARK    4  A    between atoms: C_8  and  N_9 
REMARK    5  A    between atoms: N_9  and  N_10 
REMARK       I    between atoms: N_10  and  C_11 
REMARK    6  A    between atoms: C_11  and  C_12 
REMARK    7  A    between atoms: C_12  and  S_13 
REMARK    8  A    between atoms: S_13  and  C_14 
REMARK    9  A    between atoms: C_14  and  C_15 
REMARK       I    between atoms: C_15  and  N_16 
REMARK   10  A    between atoms: N_16  and  C_17 
ROOT
HETATM    1  N   UNL     1     -44.025  58.918 -50.510  1.00  0.00    -0.267 N 
HETATM    2  C   UNL     1     -45.224  59.202 -51.104  1.00  0.00     0.245 C 
HETATM    3  O   UNL     1     -46.250  58.678 -50.666  1.00  0.00    -0.271 OA
HETATM    4  H   UNL     1     -44.040  58.288 -49.709  1.00  0.00     0.190 HD
ENDROOT
BRANCH   1   5
HETATM    5  N   UNL     1     -42.782  59.376 -50.938  1.00  0.00    -0.274 N 
HETATM    6  H   UNL     1     -42.708  60.335 -51.273  1.00  0.00     0.189 HD
BRANCH   5   7
HETATM    7  C   UNL     1     -41.662  58.588 -50.868  1.00  0.00     0.191 C 
HETATM    8  S   UNL     1     -40.254  58.856 -51.734  1.00  0.00    -0.039 SA
BRANCH   7   9
HETATM    9  N   UNL     1     -41.728  57.481 -50.070  1.00  0.00    -0.332 N 
HETATM   10  H   UNL     1     -42.117  57.673 -49.151  1.00  0.00     0.168 HD
BRANCH   9  11
HETATM   11  C   UNL     1     -41.529  56.117 -50.371  1.00  0.00     0.034 A 
HETATM   12  C   UNL     1     -40.296  55.560 -50.025  1.00  0.00     0.032 A 
HETATM   13  C   UNL     1     -40.041  54.205 -50.254  1.00  0.00     0.039 A 
HETATM   14  C   UNL     1     -41.020  53.378 -50.806  1.00  0.00     0.068 A 
HETATM   15  C   UNL     1     -42.260  53.925 -51.132  1.00  0.00     0.039 A 
HETATM   16  C   UNL     1     -42.515  55.285 -50.907  1.00  0.00     0.032 A 
BRANCH  14  17
HETATM   17  O   UNL     1     -40.647  52.074 -50.964  1.00  0.00    -0.356 OA
HETATM   18  C   UNL     1     -39.550  51.818 -51.834  1.00  0.00     0.210 C 
ENDBRANCH  14  17
ENDBRANCH   9  11
ENDBRANCH   7   9
ENDBRANCH   5   7
ENDBRANCH   1   5
BRANCH   2  19
HETATM   19  C   UNL     1     -45.297  60.204 -52.239  1.00  0.00     0.178 C 
BRANCH  19  20
HETATM   20  S   UNL     1     -45.246  59.521 -53.930  1.00  0.00    -0.150 SA
BRANCH  20  21
HETATM   21  C   UNL     1     -43.492  59.738 -54.372  1.00  0.00     0.177 C 
BRANCH  21  22
HETATM   22  C   UNL     1     -42.803  58.504 -54.927  1.00  0.00     0.231 C 
HETATM   23  N   UNL     1     -42.705  57.455 -54.032  1.00  0.00    -0.327 N 
HETATM   24  H   UNL     1     -42.997  57.651 -53.081  1.00  0.00     0.169 HD
HETATM   25  O   UNL     1     -42.482  58.481 -56.113  1.00  0.00    -0.272 OA
BRANCH  23  26
HETATM   26  C   UNL     1     -42.238  56.150 -54.294  1.00  0.00     0.034 A 
HETATM   27  C   UNL     1     -43.060  55.088 -54.675  1.00  0.00     0.029 A 
HETATM   28  C   UNL     1     -42.525  53.815 -54.894  1.00  0.00     0.002 A 
HETATM   29  C   UNL     1     -41.160  53.592 -54.735  1.00  0.00     0.000 A 
HETATM   30  C   UNL     1     -40.329  54.644 -54.362  1.00  0.00     0.002 A 
HETATM   31  C   UNL     1     -40.864  55.917 -54.142  1.00  0.00     0.029 A 
ENDBRANCH  23  26
ENDBRANCH  21  22
ENDBRANCH  20  21
ENDBRANCH  19  20
ENDBRANCH   2  19
TORSDOF 10
ENDMDL
MODEL 8
REMARK VINA RESULT:      -6.5      2.400      3.577
REMARK  10 active torsions:
REMARK  status: ('A' for Active; 'I' for Inactive)
REMARK    1  A    between atoms: O_2  and  C_3 
REMARK    2  A    between atoms: C_6  and  N_7 
REMARK    3  A    between atoms: N_7  and  C_8 
REMARK    4  A    between atoms: C_8  and  N_9 
REMARK    5  A    between atoms: N_9  and  N_10 
REMARK       I    between atoms: N_10  and  C_11 
REMARK    6  A    between atoms: C_11  and  C_12 
REMARK    7  A    between atoms: C_12  and  S_13 
REMARK    8  A    between atoms: S_13  and  C_14 
REMARK    9  A    between atoms: C_14  and  C_15 
REMARK       I    between atoms: C_15  and  N_16 
REMARK   10  A    between atoms: N_16  and  C_17 
ROOT
HETATM    1  N   UNL     1     -44.225  57.572 -52.973  1.00  0.00    -0.267 N 
HETATM    2  C   UNL     1     -44.690  58.175 -51.835  1.00  0.00     0.245 C 
HETATM    3  O   UNL     1     -45.023  57.473 -50.879  1.00  0.00    -0.271 OA
HETATM    4  H   UNL     1     -44.161  56.556 -52.969  1.00  0.00     0.190 HD
ENDROOT
BRANCH   1   5
HETATM    5  N   UNL     1     -43.881  58.229 -54.151  1.00  0.00    -0.274 N 
HETATM    6  H   UNL     1     -44.150  59.205 -54.260  1.00  0.00     0.189 HD
BRANCH   5   7
HETATM    7  C   UNL     1     -43.150  57.608 -55.132  1.00  0.00     0.191 C 
HETATM    8  S   UNL     1     -43.618  57.486 -56.735  1.00  0.00    -0.039 SA
BRANCH   7   9
HETATM    9  N   UNL     1     -41.982  57.008 -54.753  1.00  0.00    -0.332 N 
HETATM   10  H   UNL     1     -41.299  57.661 -54.381  1.00  0.00     0.168 HD
BRANCH   9  11
HETATM   11  C   UNL     1     -41.650  55.644 -54.620  1.00  0.00     0.034 A 
HETATM   12  C   UNL     1     -42.703  54.726 -54.629  1.00  0.00     0.032 A 
HETATM   13  C   UNL     1     -42.448  53.354 -54.543  1.00  0.00     0.039 A 
HETATM   14  C   UNL     1     -41.140  52.875 -54.473  1.00  0.00     0.068 A 
HETATM   15  C   UNL     1     -40.086  53.786 -54.486  1.00  0.00     0.039 A 
HETATM   16  C   UNL     1     -40.340  55.162 -54.569  1.00  0.00     0.032 A 
BRANCH  14  17
HETATM   17  O   UNL     1     -41.030  51.515 -54.407  1.00  0.00    -0.356 OA
HETATM   18  C   UNL     1     -39.769  50.989 -54.008  1.00  0.00     0.210 C 
ENDBRANCH  14  17
ENDBRANCH   9  11
ENDBRANCH   7   9
ENDBRANCH   5   7
ENDBRANCH   1   5
BRANCH   2  19
HETATM   19  C   UNL     1     -44.723  59.686 -51.729  1.00  0.00     0.178 C 
BRANCH  19  20
HETATM   20  S   UNL     1     -43.123  60.547 -51.903  1.00  0.00    -0.150 SA
BRANCH  20  21
HETATM   21  C   UNL     1     -42.087  59.667 -50.690  1.00  0.00     0.177 C 
BRANCH  21  22
HETATM   22  C   UNL     1     -41.571  58.312 -51.138  1.00  0.00     0.231 C 
HETATM   23  N   UNL     1     -41.816  57.286 -50.244  1.00  0.00    -0.327 N 
HETATM   24  H   UNL     1     -42.209  57.557 -49.349  1.00  0.00     0.169 HD
HETATM   25  O   UNL     1     -41.080  58.199 -52.259  1.00  0.00    -0.272 OA
BRANCH  23  26
HETATM   26  C   UNL     1     -41.573  55.910 -50.436  1.00  0.00     0.034 A 
HETATM   27  C   UNL     1     -42.523  55.009 -50.922  1.00  0.00     0.029 A 
HETATM   28  C   UNL     1     -42.215  53.653 -51.063  1.00  0.00     0.002 A 
HETATM   29  C   UNL     1     -40.950  53.184 -50.721  1.00  0.00     0.000 A 
HETATM   30  C   UNL     1     -39.991  54.072 -50.243  1.00  0.00     0.002 A 
HETATM   31  C   UNL     1     -40.300  55.429 -50.101  1.00  0.00     0.029 A 
ENDBRANCH  23  26
ENDBRANCH  21  22
ENDBRANCH  20  21
ENDBRANCH  19  20
ENDBRANCH   2  19
TORSDOF 10
ENDMDL
MODEL 9
REMARK VINA RESULT:      -6.4      2.468      5.577
REMARK  10 active torsions:
REMARK  status: ('A' for Active; 'I' for Inactive)
REMARK    1  A    between atoms: O_2  and  C_3 
REMARK    2  A    between atoms: C_6  and  N_7 
REMARK    3  A    between atoms: N_7  and  C_8 
REMARK    4  A    between atoms: C_8  and  N_9 
REMARK    5  A    between atoms: N_9  and  N_10 
REMARK       I    between atoms: N_10  and  C_11 
REMARK    6  A    between atoms: C_11  and  C_12 
REMARK    7  A    between atoms: C_12  and  S_13 
REMARK    8  A    between atoms: S_13  and  C_14 
REMARK    9  A    between atoms: C_14  and  C_15 
REMARK       I    between atoms: C_15  and  N_16 
REMARK   10  A    between atoms: N_16  and  C_17 
ROOT
HETATM    1  N   UNL     1     -44.837  56.929 -51.320  1.00  0.00    -0.267 N 
HETATM    2  C   UNL     1     -45.190  58.247 -51.217  1.00  0.00     0.245 C 
HETATM    3  O   UNL     1     -46.027  58.580 -50.377  1.00  0.00    -0.271 OA
HETATM    4  H   UNL     1     -45.280  56.276 -50.675  1.00  0.00     0.190 HD
ENDROOT
BRANCH   1   5
HETATM    5  N   UNL     1     -43.963  56.398 -52.265  1.00  0.00    -0.274 N 
HETATM    6  H   UNL     1     -44.341  56.101 -53.163  1.00  0.00     0.189 HD
BRANCH   5   7
HETATM    7  C   UNL     1     -42.614  56.318 -52.031  1.00  0.00     0.191 C 
HETATM    8  S   UNL     1     -41.864  56.793 -50.611  1.00  0.00    -0.039 SA
BRANCH   7   9
HETATM    9  N   UNL     1     -41.830  55.863 -53.054  1.00  0.00    -0.332 N 
HETATM   10  H   UNL     1     -41.569  56.592 -53.712  1.00  0.00     0.168 HD
BRANCH   9  11
HETATM   11  C   UNL     1     -41.186  54.622 -53.238  1.00  0.00     0.034 A 
HETATM   12  C   UNL     1     -40.861  53.895 -52.091  1.00  0.00     0.032 A 
HETATM   13  C   UNL     1     -40.258  52.638 -52.196  1.00  0.00     0.039 A 
HETATM   14  C   UNL     1     -39.995  52.075 -53.445  1.00  0.00     0.068 A 
HETATM   15  C   UNL     1     -40.338  52.788 -54.592  1.00  0.00     0.039 A 
HETATM   16  C   UNL     1     -40.939  54.050 -54.488  1.00  0.00     0.032 A 
BRANCH  14  17
HETATM   17  O   UNL     1     -39.417  50.838 -53.407  1.00  0.00    -0.356 OA
HETATM   18  C   UNL     1     -39.723  49.951 -54.478  1.00  0.00     0.210 C 
ENDBRANCH  14  17
ENDBRANCH   9  11
ENDBRANCH   7   9
ENDBRANCH   5   7
ENDBRANCH   1   5
BRANCH   2  19
HETATM   19  C   UNL     1     -44.505  59.291 -52.076  1.00  0.00     0.178 C 
BRANCH  19  20
HETATM   20  S   UNL     1     -45.145  59.495 -53.772  1.00  0.00    -0.150 SA
BRANCH  20  21
HETATM   21  C   UNL     1     -43.716  58.985 -54.779  1.00  0.00     0.177 C 
BRANCH  21  22
HETATM   22  C   UNL     1     -43.964  57.819 -55.719  1.00  0.00     0.231 C 
HETATM   23  N   UNL     1     -44.095  58.177 -57.048  1.00  0.00    -0.327 N 
HETATM   24  H   UNL     1     -44.122  59.172 -57.242  1.00  0.00     0.169 HD
HETATM   25  O   UNL     1     -43.933  56.674 -55.272  1.00  0.00    -0.272 OA
BRANCH  23  26
HETATM   26  C   UNL     1     -44.202  57.313 -58.158  1.00  0.00     0.034 A 
HETATM   27  C   UNL     1     -45.388  57.087 -58.859  1.00  0.00     0.029 A 
HETATM   28  C   UNL     1     -45.421  56.196 -59.936  1.00  0.00     0.002 A 
HETATM   29  C   UNL     1     -44.266  55.524 -60.325  1.00  0.00     0.000 A 
HETATM   30  C   UNL     1     -43.075  55.746 -59.639  1.00  0.00     0.002 A 
HETATM   31  C   UNL     1     -43.043  56.637 -58.560  1.00  0.00     0.029 A 
ENDBRANCH  23  26
ENDBRANCH  21  22
ENDBRANCH  20  21
ENDBRANCH  19  20
ENDBRANCH   2  19
TORSDOF 10
ENDMDL
MODEL 10
REMARK VINA RESULT:      -6.4      2.974      7.480
REMARK  10 active torsions:
REMARK  status: ('A' for Active; 'I' for Inactive)
REMARK    1  A    between atoms: O_2  and  C_3 
REMARK    2  A    between atoms: C_6  and  N_7 
REMARK    3  A    between atoms: N_7  and  C_8 
REMARK    4  A    between atoms: C_8  and  N_9 
REMARK    5  A    between atoms: N_9  and  N_10 
REMARK       I    between atoms: N_10  and  C_11 
REMARK    6  A    between atoms: C_11  and  C_12 
REMARK    7  A    between atoms: C_12  and  S_13 
REMARK    8  A    between atoms: S_13  and  C_14 
REMARK    9  A    between atoms: C_14  and  C_15 
REMARK       I    between atoms: C_15  and  N_16 
REMARK   10  A    between atoms: N_16  and  C_17 
ROOT
HETATM    1  N   UNL     1     -44.301  56.911 -56.446  1.00  0.00    -0.267 N 
HETATM    2  C   UNL     1     -44.345  57.127 -55.096  1.00  0.00     0.245 C 
HETATM    3  O   UNL     1     -44.935  58.121 -54.667  1.00  0.00    -0.271 OA
HETATM    4  H   UNL     1     -44.780  57.584 -57.042  1.00  0.00     0.190 HD
ENDROOT
BRANCH   1   5
HETATM    5  N   UNL     1     -43.616  55.876 -57.076  1.00  0.00    -0.274 N 
HETATM    6  H   UNL     1     -43.394  55.041 -56.537  1.00  0.00     0.189 HD
BRANCH   5   7
HETATM    7  C   UNL     1     -43.284  55.938 -58.406  1.00  0.00     0.191 C 
HETATM    8  S   UNL     1     -44.115  55.158 -59.632  1.00  0.00    -0.039 SA
BRANCH   7   9
HETATM    9  N   UNL     1     -42.164  56.649 -58.736  1.00  0.00    -0.332 N 
HETATM   10  H   UNL     1     -41.345  56.064 -58.874  1.00  0.00     0.168 HD
BRANCH   9  11
HETATM   11  C   UNL     1     -42.007  58.004 -59.092  1.00  0.00     0.034 A 
HETATM   12  C   UNL     1     -42.131  58.328 -60.445  1.00  0.00     0.032 A 
HETATM   13  C   UNL     1     -42.029  59.656 -60.869  1.00  0.00     0.039 A 
HETATM   14  C   UNL     1     -41.829  60.685 -59.947  1.00  0.00     0.068 A 
HETATM   15  C   UNL     1     -41.728  60.369 -58.594  1.00  0.00     0.039 A 
HETATM   16  C   UNL     1     -41.826  59.037 -58.169  1.00  0.00     0.032 A 
BRANCH  14  17
HETATM   17  O   UNL     1     -41.762  61.937 -60.491  1.00  0.00    -0.356 OA
HETATM   18  C   UNL     1     -42.946  62.439 -61.101  1.00  0.00     0.210 C 
ENDBRANCH  14  17
ENDBRANCH   9  11
ENDBRANCH   7   9
ENDBRANCH   5   7
ENDBRANCH   1   5
BRANCH   2  19
HETATM   19  C   UNL     1     -43.740  56.119 -54.139  1.00  0.00     0.178 C 
BRANCH  19  20
HETATM   20  S   UNL     1     -43.185  56.764 -52.525  1.00  0.00    -0.150 SA
BRANCH  20  21
HETATM   21  C   UNL     1     -41.580  55.931 -52.317  1.00  0.00     0.177 C 
BRANCH  21  22
HETATM   22  C   UNL     1     -41.623  54.414 -52.364  1.00  0.00     0.231 C 
HETATM   23  N   UNL     1     -40.552  53.833 -53.019  1.00  0.00    -0.327 N 
HETATM   24  H   UNL     1     -39.917  54.470 -53.488  1.00  0.00     0.169 HD
HETATM   25  O   UNL     1     -42.512  53.822 -51.757  1.00  0.00    -0.272 OA
BRANCH  23  26
HETATM   26  C   UNL     1     -40.252  52.459 -53.111  1.00  0.00     0.034 A 
HETATM   27  C   UNL     1     -40.438  51.694 -54.265  1.00  0.00     0.029 A 
HETATM   28  C   UNL     1     -40.139  50.329 -54.272  1.00  0.00     0.002 A 
HETATM   29  C   UNL     1     -39.647  49.714 -53.125  1.00  0.00     0.000 A 
HETATM   30  C   UNL     1     -39.449  50.465 -51.970  1.00  0.00     0.002 A 
HETATM   31  C   UNL     1     -39.750  51.832 -51.963  1.00  0.00     0.029 A 
ENDBRANCH  23  26
ENDBRANCH  21  22
ENDBRANCH  20  21
ENDBRANCH  19  20
ENDBRANCH   2  19
TORSDOF 10
ENDMDL
