MODEL 1
REMARK VINA RESULT:      -8.4      0.000      0.000
REMARK  5 active torsions:
REMARK  status: ('A' for Active; 'I' for Inactive)
REMARK    1  A    between atoms: C_5  and  C_6 
REMARK    2  A    between atoms: C_10  and  C_11 
REMARK       I    between atoms: C_11  and  N_12 
REMARK    3  A    between atoms: N_12  and  C_13 
REMARK    4  A    between atoms: C_13  and  C_14 
REMARK    5  A    between atoms: C_14  and  O_15 
ROOT
HETATM    1  C   UNL     1     -41.166  54.970 -53.675  1.00  0.00     0.068 A 
HETATM    2  N   UNL     1     -40.915  55.854 -52.677  1.00  0.00    -0.248 NA
HETATM    3  C   UNL     1     -41.250  57.148 -52.817  1.00  0.00     0.068 A 
HETATM    4  C   UNL     1     -41.890  57.655 -53.962  1.00  0.00     0.008 A 
HETATM    5  C   UNL     1     -42.191  56.709 -54.963  1.00  0.00     0.046 A 
HETATM    6  C   UNL     1     -41.816  55.370 -54.830  1.00  0.00     0.050 A 
HETATM    7  C   UNL     1     -40.936  58.020 -51.784  1.00  0.00     0.032 A 
HETATM    8  C   UNL     1     -41.219  59.386 -51.853  1.00  0.00     0.002 A 
HETATM    9  C   UNL     1     -41.827  59.902 -52.987  1.00  0.00     0.001 A 
HETATM   10  C   UNL     1     -42.157  59.047 -54.038  1.00  0.00     0.015 A 
ENDROOT
BRANCH   5  11
HETATM   11  C   UNL     1     -42.894  57.054 -56.220  1.00  0.00     0.252 C 
HETATM   12  N   UNL     1     -42.098  57.197 -57.330  1.00  0.00    -0.354 N 
HETATM   13  H   UNL     1     -41.096  57.045 -57.275  1.00  0.00     0.162 HD
HETATM   14  O   UNL     1     -44.102  57.248 -56.205  1.00  0.00    -0.268 OA
BRANCH  12  15
HETATM   15  C   UNL     1     -42.636  57.493 -58.645  1.00  0.00     0.154 C 
BRANCH  15  16
HETATM   16  C   UNL     1     -42.606  56.266 -59.566  1.00  0.00     0.132 C 
HETATM   17  C   UNL     1     -43.889  56.111 -60.374  1.00  0.00     0.041 C 
BRANCH  16  18
HETATM   18  O   UNL     1     -41.497  56.383 -60.465  1.00  0.00    -0.394 OA
HETATM   19  H   UNL     1     -41.637  55.737 -61.178  1.00  0.00     0.210 HD
ENDBRANCH  16  18
ENDBRANCH  15  16
ENDBRANCH  12  15
ENDBRANCH   5  11
BRANCH   1  20
HETATM   20  C   UNL     1     -40.707  53.581 -53.437  1.00  0.00    -0.007 A 
HETATM   21  C   UNL     1     -40.722  52.630 -54.474  1.00  0.00     0.014 A 
HETATM   22  C   UNL     1     -40.301  51.311 -54.272  1.00  0.00     0.007 A 
HETATM   23  C   UNL     1     -39.859  50.895 -53.014  1.00  0.00    -0.062 A 
HETATM   24  C   UNL     1     -39.391  49.489 -52.785  1.00  0.00     0.048 C 
HETATM   25  C   UNL     1     -39.832  51.823 -51.971  1.00  0.00     0.007 A 
HETATM   26  C   UNL     1     -40.257  53.142 -52.179  1.00  0.00     0.014 A 
ENDBRANCH   1  20
TORSDOF 5
ENDMDL
MODEL 2
REMARK VINA RESULT:      -8.2      2.065      2.484
REMARK  5 active torsions:
REMARK  status: ('A' for Active; 'I' for Inactive)
REMARK    1  A    between atoms: C_5  and  C_6 
REMARK    2  A    between atoms: C_10  and  C_11 
REMARK       I    between atoms: C_11  and  N_12 
REMARK    3  A    between atoms: N_12  and  C_13 
REMARK    4  A    between atoms: C_13  and  C_14 
REMARK    5  A    between atoms: C_14  and  O_15 
ROOT
HETATM    1  C   UNL     1     -42.271  55.002 -54.401  1.00  0.00     0.068 A 
HETATM    2  N   UNL     1     -43.009  55.802 -53.592  1.00  0.00    -0.248 NA
HETATM    3  C   UNL     1     -43.706  56.829 -54.107  1.00  0.00     0.068 A 
HETATM    4  C   UNL     1     -43.740  57.120 -55.482  1.00  0.00     0.008 A 
HETATM    5  C   UNL     1     -43.010  56.242 -56.311  1.00  0.00     0.046 A 
HETATM    6  C   UNL     1     -42.262  55.194 -55.772  1.00  0.00     0.050 A 
HETATM    7  C   UNL     1     -44.414  57.643 -53.233  1.00  0.00     0.032 A 
HETATM    8  C   UNL     1     -45.142  58.749 -53.675  1.00  0.00     0.002 A 
HETATM    9  C   UNL     1     -45.163  59.062 -55.026  1.00  0.00     0.001 A 
HETATM   10  C   UNL     1     -44.464  58.258 -55.925  1.00  0.00     0.015 A 
ENDROOT
BRANCH   5  11
HETATM   11  C   UNL     1     -42.960  56.372 -57.785  1.00  0.00     0.252 C 
HETATM   12  N   UNL     1     -43.655  55.423 -58.493  1.00  0.00    -0.354 N 
HETATM   13  H   UNL     1     -44.186  54.702 -58.015  1.00  0.00     0.162 HD
HETATM   14  O   UNL     1     -42.277  57.252 -58.292  1.00  0.00    -0.268 OA
BRANCH  12  15
HETATM   15  C   UNL     1     -43.740  55.434 -59.942  1.00  0.00     0.154 C 
BRANCH  15  16
HETATM   16  C   UNL     1     -45.155  55.104 -60.436  1.00  0.00     0.132 C 
HETATM   17  C   UNL     1     -46.175  56.161 -60.032  1.00  0.00     0.041 C 
BRANCH  16  18
HETATM   18  O   UNL     1     -45.138  54.990 -61.863  1.00  0.00    -0.394 OA
HETATM   19  H   UNL     1     -44.206  55.019 -62.142  1.00  0.00     0.210 HD
ENDBRANCH  16  18
ENDBRANCH  15  16
ENDBRANCH  12  15
ENDBRANCH   5  11
BRANCH   1  20
HETATM   20  C   UNL     1     -41.500  53.934 -53.722  1.00  0.00    -0.007 A 
HETATM   21  C   UNL     1     -41.001  52.835 -54.446  1.00  0.00     0.014 A 
HETATM   22  C   UNL     1     -40.277  51.810 -53.826  1.00  0.00     0.007 A 
HETATM   23  C   UNL     1     -40.037  51.846 -52.451  1.00  0.00    -0.062 A 
HETATM   24  C   UNL     1     -39.251  50.763 -51.775  1.00  0.00     0.048 C 
HETATM   25  C   UNL     1     -40.520  52.929 -51.713  1.00  0.00     0.007 A 
HETATM   26  C   UNL     1     -41.246  53.952 -52.339  1.00  0.00     0.014 A 
ENDBRANCH   1  20
TORSDOF 5
ENDMDL
MODEL 3
REMARK VINA RESULT:      -8.0      2.388      5.076
REMARK  5 active torsions:
REMARK  status: ('A' for Active; 'I' for Inactive)
REMARK    1  A    between atoms: C_5  and  C_6 
REMARK    2  A    between atoms: C_10  and  C_11 
REMARK       I    between atoms: C_11  and  N_12 
REMARK    3  A    between atoms: N_12  and  C_13 
REMARK    4  A    between atoms: C_13  and  C_14 
REMARK    5  A    between atoms: C_14  and  O_15 
ROOT
HETATM    1  C   UNL     1     -41.115  54.821 -53.838  1.00  0.00     0.068 A 
HETATM    2  N   UNL     1     -41.674  54.669 -55.065  1.00  0.00    -0.248 NA
HETATM    3  C   UNL     1     -42.176  55.731 -55.717  1.00  0.00     0.068 A 
HETATM    4  C   UNL     1     -42.133  57.038 -55.202  1.00  0.00     0.008 A 
HETATM    5  C   UNL     1     -41.497  57.181 -53.950  1.00  0.00     0.046 A 
HETATM    6  C   UNL     1     -41.004  56.073 -53.260  1.00  0.00     0.050 A 
HETATM    7  C   UNL     1     -42.775  55.518 -56.952  1.00  0.00     0.032 A 
HETATM    8  C   UNL     1     -43.349  56.556 -57.688  1.00  0.00     0.002 A 
HETATM    9  C   UNL     1     -43.335  57.846 -57.178  1.00  0.00     0.001 A 
HETATM   10  C   UNL     1     -42.736  58.088 -55.943  1.00  0.00     0.015 A 
ENDROOT
BRANCH   5  11
HETATM   11  C   UNL     1     -41.327  58.486 -53.272  1.00  0.00     0.252 C 
HETATM   12  N   UNL     1     -42.254  58.782 -52.303  1.00  0.00    -0.354 N 
HETATM   13  H   UNL     1     -42.987  58.121 -52.065  1.00  0.00     0.162 HD
HETATM   14  O   UNL     1     -40.435  59.243 -53.631  1.00  0.00    -0.268 OA
BRANCH  12  15
HETATM   15  C   UNL     1     -42.203  60.001 -51.517  1.00  0.00     0.154 C 
BRANCH  15  16
HETATM   16  C   UNL     1     -43.568  60.346 -50.906  1.00  0.00     0.132 C 
HETATM   17  C   UNL     1     -44.607  59.258 -51.147  1.00  0.00     0.041 C 
BRANCH  16  18
HETATM   18  O   UNL     1     -43.412  60.542 -49.496  1.00  0.00    -0.394 OA
HETATM   19  H   UNL     1     -44.080  61.194 -49.222  1.00  0.00     0.210 HD
ENDBRANCH  16  18
ENDBRANCH  15  16
ENDBRANCH  12  15
ENDBRANCH   5  11
BRANCH   1  20
HETATM   20  C   UNL     1     -40.642  53.576 -53.187  1.00  0.00    -0.007 A 
HETATM   21  C   UNL     1     -40.559  53.484 -51.786  1.00  0.00     0.014 A 
HETATM   22  C   UNL     1     -40.109  52.322 -51.148  1.00  0.00     0.007 A 
HETATM   23  C   UNL     1     -39.714  51.212 -51.897  1.00  0.00    -0.062 A 
HETATM   24  C   UNL     1     -39.244  49.956 -51.228  1.00  0.00     0.048 C 
HETATM   25  C   UNL     1     -39.792  51.280 -53.290  1.00  0.00     0.007 A 
HETATM   26  C   UNL     1     -40.242  52.446 -53.923  1.00  0.00     0.014 A 
ENDBRANCH   1  20
TORSDOF 5
ENDMDL
MODEL 4
REMARK VINA RESULT:      -7.7      2.736      7.015
REMARK  5 active torsions:
REMARK  status: ('A' for Active; 'I' for Inactive)
REMARK    1  A    between atoms: C_5  and  C_6 
REMARK    2  A    between atoms: C_10  and  C_11 
REMARK       I    between atoms: C_11  and  N_12 
REMARK    3  A    between atoms: N_12  and  C_13 
REMARK    4  A    between atoms: C_13  and  C_14 
REMARK    5  A    between atoms: C_14  and  O_15 
ROOT
HETATM    1  C   UNL     1     -42.103  55.435 -55.253  1.00  0.00     0.068 A 
HETATM    2  N   UNL     1     -41.543  54.200 -55.321  1.00  0.00    -0.248 NA
HETATM    3  C   UNL     1     -41.040  53.623 -54.216  1.00  0.00     0.068 A 
HETATM    4  C   UNL     1     -41.083  54.228 -52.947  1.00  0.00     0.008 A 
HETATM    5  C   UNL     1     -41.718  55.486 -52.891  1.00  0.00     0.046 A 
HETATM    6  C   UNL     1     -42.213  56.098 -54.044  1.00  0.00     0.050 A 
HETATM    7  C   UNL     1     -40.442  52.377 -54.344  1.00  0.00     0.032 A 
HETATM    8  C   UNL     1     -39.867  51.715 -53.257  1.00  0.00     0.002 A 
HETATM    9  C   UNL     1     -39.880  52.312 -52.006  1.00  0.00     0.001 A 
HETATM   10  C   UNL     1     -40.478  53.561 -51.850  1.00  0.00     0.015 A 
ENDROOT
BRANCH   5  11
HETATM   11  C   UNL     1     -41.888  56.253 -51.636  1.00  0.00     0.252 C 
HETATM   12  N   UNL     1     -40.937  57.212 -51.388  1.00  0.00    -0.354 N 
HETATM   13  H   UNL     1     -40.187  57.385 -52.050  1.00  0.00     0.162 HD
HETATM   14  O   UNL     1     -42.801  55.971 -50.872  1.00  0.00    -0.268 OA
BRANCH  12  15
HETATM   15  C   UNL     1     -40.982  58.077 -50.223  1.00  0.00     0.154 C 
BRANCH  15  16
HETATM   16  C   UNL     1     -40.450  59.483 -50.532  1.00  0.00     0.132 C 
HETATM   17  C   UNL     1     -38.928  59.532 -50.581  1.00  0.00     0.041 C 
BRANCH  16  18
HETATM   18  O   UNL     1     -40.974  59.914 -51.793  1.00  0.00    -0.394 OA
HETATM   19  H   UNL     1     -40.603  60.795 -51.972  1.00  0.00     0.210 HD
ENDBRANCH  16  18
ENDBRANCH  15  16
ENDBRANCH  12  15
ENDBRANCH   5  11
BRANCH   1  20
HETATM   20  C   UNL     1     -42.576  55.998 -56.539  1.00  0.00    -0.007 A 
HETATM   21  C   UNL     1     -43.128  55.165 -57.530  1.00  0.00     0.014 A 
HETATM   22  C   UNL     1     -43.576  55.672 -58.756  1.00  0.00     0.007 A 
HETATM   23  C   UNL     1     -43.476  57.036 -59.036  1.00  0.00    -0.062 A 
HETATM   24  C   UNL     1     -43.964  57.597 -60.337  1.00  0.00     0.048 C 
HETATM   25  C   UNL     1     -42.934  57.883 -58.065  1.00  0.00     0.007 A 
HETATM   26  C   UNL     1     -42.486  57.369 -56.840  1.00  0.00     0.014 A 
ENDBRANCH   1  20
TORSDOF 5
ENDMDL
MODEL 5
REMARK VINA RESULT:      -7.6      2.417      5.138
REMARK  5 active torsions:
REMARK  status: ('A' for Active; 'I' for Inactive)
REMARK    1  A    between atoms: C_5  and  C_6 
REMARK    2  A    between atoms: C_10  and  C_11 
REMARK       I    between atoms: C_11  and  N_12 
REMARK    3  A    between atoms: N_12  and  C_13 
REMARK    4  A    between atoms: C_13  and  C_14 
REMARK    5  A    between atoms: C_14  and  O_15 
ROOT
HETATM    1  C   UNL     1     -41.386  54.274 -54.125  1.00  0.00     0.068 A 
HETATM    2  N   UNL     1     -41.814  54.351 -55.410  1.00  0.00    -0.248 NA
HETATM    3  C   UNL     1     -42.397  55.474 -55.864  1.00  0.00     0.068 A 
HETATM    4  C   UNL     1     -42.573  56.621 -55.071  1.00  0.00     0.008 A 
HETATM    5  C   UNL     1     -42.071  56.538 -53.755  1.00  0.00     0.046 A 
HETATM    6  C   UNL     1     -41.493  55.361 -53.275  1.00  0.00     0.050 A 
HETATM    7  C   UNL     1     -42.854  55.489 -57.175  1.00  0.00     0.032 A 
HETATM    8  C   UNL     1     -43.498  56.600 -57.723  1.00  0.00     0.002 A 
HETATM    9  C   UNL     1     -43.700  57.729 -56.943  1.00  0.00     0.001 A 
HETATM   10  C   UNL     1     -43.247  57.741 -55.625  1.00  0.00     0.015 A 
ENDROOT
BRANCH   5  11
HETATM   11  C   UNL     1     -42.135  57.659 -52.791  1.00  0.00     0.252 C 
HETATM   12  N   UNL     1     -40.981  58.386 -52.640  1.00  0.00    -0.354 N 
HETATM   13  H   UNL     1     -40.153  58.168 -53.186  1.00  0.00     0.162 HD
HETATM   14  O   UNL     1     -43.160  57.846 -52.147  1.00  0.00    -0.268 OA
BRANCH  12  15
HETATM   15  C   UNL     1     -40.891  59.541 -51.765  1.00  0.00     0.154 C 
BRANCH  15  16
HETATM   16  C   UNL     1     -40.272  59.183 -50.407  1.00  0.00     0.132 C 
HETATM   17  C   UNL     1     -38.995  59.965 -50.123  1.00  0.00     0.041 C 
BRANCH  16  18
HETATM   18  O   UNL     1     -41.226  59.450 -49.373  1.00  0.00    -0.394 OA
HETATM   19  H   UNL     1     -40.760  59.937 -48.672  1.00  0.00     0.210 HD
ENDBRANCH  16  18
ENDBRANCH  15  16
ENDBRANCH  12  15
ENDBRANCH   5  11
BRANCH   1  20
HETATM   20  C   UNL     1     -40.807  52.973 -53.716  1.00  0.00    -0.007 A 
HETATM   21  C   UNL     1     -40.817  51.872 -54.593  1.00  0.00     0.014 A 
HETATM   22  C   UNL     1     -40.284  50.631 -54.228  1.00  0.00     0.007 A 
HETATM   23  C   UNL     1     -39.728  50.446 -52.960  1.00  0.00    -0.062 A 
HETATM   24  C   UNL     1     -39.139  49.128 -52.558  1.00  0.00     0.048 C 
HETATM   25  C   UNL     1     -39.703  51.526 -52.074  1.00  0.00     0.007 A 
HETATM   26  C   UNL     1     -40.241  52.766 -52.445  1.00  0.00     0.014 A 
ENDBRANCH   1  20
TORSDOF 5
ENDMDL
MODEL 6
REMARK VINA RESULT:      -7.3      2.441      5.050
REMARK  5 active torsions:
REMARK  status: ('A' for Active; 'I' for Inactive)
REMARK    1  A    between atoms: C_5  and  C_6 
REMARK    2  A    between atoms: C_10  and  C_11 
REMARK       I    between atoms: C_11  and  N_12 
REMARK    3  A    between atoms: N_12  and  C_13 
REMARK    4  A    between atoms: C_13  and  C_14 
REMARK    5  A    between atoms: C_14  and  O_15 
ROOT
HETATM    1  C   UNL     1     -42.004  54.900 -54.250  1.00  0.00     0.068 A 
HETATM    2  N   UNL     1     -42.144  54.789 -55.595  1.00  0.00    -0.248 NA
HETATM    3  C   UNL     1     -42.827  55.718 -56.285  1.00  0.00     0.068 A 
HETATM    4  C   UNL     1     -43.404  56.850 -55.683  1.00  0.00     0.008 A 
HETATM    5  C   UNL     1     -43.199  56.974 -54.293  1.00  0.00     0.046 A 
HETATM    6  C   UNL     1     -42.516  55.993 -53.572  1.00  0.00     0.050 A 
HETATM    7  C   UNL     1     -42.976  55.538 -57.654  1.00  0.00     0.032 A 
HETATM    8  C   UNL     1     -43.695  56.435 -58.446  1.00  0.00     0.002 A 
HETATM    9  C   UNL     1     -44.290  57.543 -57.860  1.00  0.00     0.001 A 
HETATM   10  C   UNL     1     -44.151  57.748 -56.488  1.00  0.00     0.015 A 
ENDROOT
BRANCH   5  11
HETATM   11  C   UNL     1     -43.702  58.117 -53.498  1.00  0.00     0.252 C 
HETATM   12  N   UNL     1     -42.834  59.171 -53.351  1.00  0.00    -0.354 N 
HETATM   13  H   UNL     1     -41.919  59.157 -53.790  1.00  0.00     0.162 HD
HETATM   14  O   UNL     1     -44.807  58.053 -52.976  1.00  0.00    -0.268 OA
BRANCH  12  15
HETATM   15  C   UNL     1     -43.190  60.384 -52.636  1.00  0.00     0.154 C 
BRANCH  15  16
HETATM   16  C   UNL     1     -42.775  60.320 -51.160  1.00  0.00     0.132 C 
HETATM   17  C   UNL     1     -42.809  61.686 -50.485  1.00  0.00     0.041 C 
BRANCH  16  18
HETATM   18  O   UNL     1     -43.655  59.431 -50.464  1.00  0.00    -0.394 OA
HETATM   19  H   UNL     1     -44.405  59.248 -51.057  1.00  0.00     0.210 HD
ENDBRANCH  16  18
ENDBRANCH  15  16
ENDBRANCH  12  15
ENDBRANCH   5  11
BRANCH   1  20
HETATM   20  C   UNL     1     -41.279  53.793 -53.584  1.00  0.00    -0.007 A 
HETATM   21  C   UNL     1     -40.818  52.687 -54.322  1.00  0.00     0.014 A 
HETATM   22  C   UNL     1     -40.136  51.626 -53.715  1.00  0.00     0.007 A 
HETATM   23  C   UNL     1     -39.902  51.632 -52.338  1.00  0.00    -0.062 A 
HETATM   24  C   UNL     1     -39.161  50.510 -51.675  1.00  0.00     0.048 C 
HETATM   25  C   UNL     1     -40.347  52.722 -51.586  1.00  0.00     0.007 A 
HETATM   26  C   UNL     1     -41.030  53.780 -52.200  1.00  0.00     0.014 A 
ENDBRANCH   1  20
TORSDOF 5
ENDMDL
MODEL 7
REMARK VINA RESULT:      -7.1      1.886      5.794
REMARK  5 active torsions:
REMARK  status: ('A' for Active; 'I' for Inactive)
REMARK    1  A    between atoms: C_5  and  C_6 
REMARK    2  A    between atoms: C_10  and  C_11 
REMARK       I    between atoms: C_11  and  N_12 
REMARK    3  A    between atoms: N_12  and  C_13 
REMARK    4  A    between atoms: C_13  and  C_14 
REMARK    5  A    between atoms: C_14  and  O_15 
ROOT
HETATM    1  C   UNL     1     -42.230  56.580 -52.587  1.00  0.00     0.068 A 
HETATM    2  N   UNL     1     -41.406  55.747 -51.902  1.00  0.00    -0.248 NA
HETATM    3  C   UNL     1     -41.071  54.552 -52.417  1.00  0.00     0.068 A 
HETATM    4  C   UNL     1     -41.515  54.106 -53.674  1.00  0.00     0.008 A 
HETATM    5  C   UNL     1     -42.325  55.010 -54.393  1.00  0.00     0.046 A 
HETATM    6  C   UNL     1     -42.698  56.239 -53.844  1.00  0.00     0.050 A 
HETATM    7  C   UNL     1     -40.258  53.719 -51.659  1.00  0.00     0.032 A 
HETATM    8  C   UNL     1     -39.883  52.448 -52.100  1.00  0.00     0.002 A 
HETATM    9  C   UNL     1     -40.334  51.987 -53.327  1.00  0.00     0.001 A 
HETATM   10  C   UNL     1     -41.149  52.805 -54.108  1.00  0.00     0.015 A 
ENDROOT
BRANCH   5  11
HETATM   11  C   UNL     1     -42.854  54.726 -55.745  1.00  0.00     0.252 C 
HETATM   12  N   UNL     1     -42.543  55.648 -56.715  1.00  0.00    -0.354 N 
HETATM   13  H   UNL     1     -41.963  56.453 -56.501  1.00  0.00     0.162 HD
HETATM   14  O   UNL     1     -43.569  53.749 -55.924  1.00  0.00    -0.268 OA
BRANCH  12  15
HETATM   15  C   UNL     1     -42.950  55.495 -58.100  1.00  0.00     0.154 C 
BRANCH  15  16
HETATM   16  C   UNL     1     -43.649  56.753 -58.633  1.00  0.00     0.132 C 
HETATM   17  C   UNL     1     -43.098  57.199 -59.982  1.00  0.00     0.041 C 
BRANCH  16  18
HETATM   18  O   UNL     1     -45.051  56.489 -58.763  1.00  0.00    -0.394 OA
HETATM   19  H   UNL     1     -45.495  57.348 -58.871  1.00  0.00     0.210 HD
ENDBRANCH  16  18
ENDBRANCH  15  16
ENDBRANCH  12  15
ENDBRANCH   5  11
BRANCH   1  20
HETATM   20  C   UNL     1     -42.577  57.848 -51.904  1.00  0.00    -0.007 A 
HETATM   21  C   UNL     1     -41.575  58.658 -51.338  1.00  0.00     0.014 A 
HETATM   22  C   UNL     1     -41.877  59.857 -50.681  1.00  0.00     0.007 A 
HETATM   23  C   UNL     1     -43.202  60.281 -50.560  1.00  0.00    -0.062 A 
HETATM   24  C   UNL     1     -43.541  61.569 -49.873  1.00  0.00     0.048 C 
HETATM   25  C   UNL     1     -44.213  59.495 -51.118  1.00  0.00     0.007 A 
HETATM   26  C   UNL     1     -43.904  58.295 -51.773  1.00  0.00     0.014 A 
ENDBRANCH   1  20
TORSDOF 5
ENDMDL
MODEL 8
REMARK VINA RESULT:      -7.1     15.591     17.598
REMARK  5 active torsions:
REMARK  status: ('A' for Active; 'I' for Inactive)
REMARK    1  A    between atoms: C_5  and  C_6 
REMARK    2  A    between atoms: C_10  and  C_11 
REMARK       I    between atoms: C_11  and  N_12 
REMARK    3  A    between atoms: N_12  and  C_13 
REMARK    4  A    between atoms: C_13  and  C_14 
REMARK    5  A    between atoms: C_14  and  O_15 
ROOT
HETATM    1  C   UNL     1     -35.493  40.703 -53.763  1.00  0.00     0.068 A 
HETATM    2  N   UNL     1     -34.152  40.692 -53.552  1.00  0.00    -0.248 NA
HETATM    3  C   UNL     1     -33.660  40.382 -52.341  1.00  0.00     0.068 A 
HETATM    4  C   UNL     1     -34.473  40.033 -51.248  1.00  0.00     0.008 A 
HETATM    5  C   UNL     1     -35.860  39.998 -51.505  1.00  0.00     0.046 A 
HETATM    6  C   UNL     1     -36.372  40.348 -52.755  1.00  0.00     0.050 A 
HETATM    7  C   UNL     1     -32.283  40.424 -52.165  1.00  0.00     0.032 A 
HETATM    8  C   UNL     1     -31.684  40.147 -50.934  1.00  0.00     0.002 A 
HETATM    9  C   UNL     1     -32.476  39.826 -49.843  1.00  0.00     0.001 A 
HETATM   10  C   UNL     1     -33.861  39.773 -49.994  1.00  0.00     0.015 A 
ENDROOT
BRANCH   5  11
HETATM   11  C   UNL     1     -36.863  39.617 -50.486  1.00  0.00     0.252 C 
HETATM   12  N   UNL     1     -37.796  38.691 -50.882  1.00  0.00    -0.354 N 
HETATM   13  H   UNL     1     -37.765  38.286 -51.812  1.00  0.00     0.162 HD
HETATM   14  O   UNL     1     -36.855  40.167 -49.392  1.00  0.00    -0.268 OA
BRANCH  12  15
HETATM   15  C   UNL     1     -38.822  38.182 -49.989  1.00  0.00     0.154 C 
BRANCH  15  16
HETATM   16  C   UNL     1     -40.228  38.335 -50.586  1.00  0.00     0.132 C 
HETATM   17  C   UNL     1     -41.315  38.363 -49.519  1.00  0.00     0.041 C 
BRANCH  16  18
HETATM   18  O   UNL     1     -40.284  39.547 -51.346  1.00  0.00    -0.394 OA
HETATM   19  H   UNL     1     -39.678  39.441 -52.101  1.00  0.00     0.210 HD
ENDBRANCH  16  18
ENDBRANCH  15  16
ENDBRANCH  12  15
ENDBRANCH   5  11
BRANCH   1  20
HETATM   20  C   UNL     1     -35.928  41.110 -55.120  1.00  0.00    -0.007 A 
HETATM   21  C   UNL     1     -35.006  41.636 -56.044  1.00  0.00     0.014 A 
HETATM   22  C   UNL     1     -35.394  42.033 -57.329  1.00  0.00     0.007 A 
HETATM   23  C   UNL     1     -36.727  41.927 -57.729  1.00  0.00    -0.062 A 
HETATM   24  C   UNL     1     -37.156  42.335 -59.107  1.00  0.00     0.048 C 
HETATM   25  C   UNL     1     -37.659  41.404 -56.829  1.00  0.00     0.007 A 
HETATM   26  C   UNL     1     -37.265  41.009 -55.544  1.00  0.00     0.014 A 
ENDBRANCH   1  20
TORSDOF 5
ENDMDL
MODEL 9
REMARK VINA RESULT:      -7.1      1.988      2.595
REMARK  5 active torsions:
REMARK  status: ('A' for Active; 'I' for Inactive)
REMARK    1  A    between atoms: C_5  and  C_6 
REMARK    2  A    between atoms: C_10  and  C_11 
REMARK       I    between atoms: C_11  and  N_12 
REMARK    3  A    between atoms: N_12  and  C_13 
REMARK    4  A    between atoms: C_13  and  C_14 
REMARK    5  A    between atoms: C_14  and  O_15 
ROOT
HETATM    1  C   UNL     1     -42.367  56.168 -54.498  1.00  0.00     0.068 A 
HETATM    2  N   UNL     1     -42.549  57.021 -53.458  1.00  0.00    -0.248 NA
HETATM    3  C   UNL     1     -43.174  58.196 -53.647  1.00  0.00     0.068 A 
HETATM    4  C   UNL     1     -43.694  58.597 -54.891  1.00  0.00     0.008 A 
HETATM    5  C   UNL     1     -43.543  57.670 -55.944  1.00  0.00     0.046 A 
HETATM    6  C   UNL     1     -42.866  56.464 -55.754  1.00  0.00     0.050 A 
HETATM    7  C   UNL     1     -43.299  59.052 -52.562  1.00  0.00     0.032 A 
HETATM    8  C   UNL     1     -43.908  60.304 -52.670  1.00  0.00     0.002 A 
HETATM    9  C   UNL     1     -44.402  60.722 -53.897  1.00  0.00     0.001 A 
HETATM   10  C   UNL     1     -44.293  59.879 -55.002  1.00  0.00     0.015 A 
ENDROOT
BRANCH   5  11
HETATM   11  C   UNL     1     -44.058  57.906 -57.311  1.00  0.00     0.252 C 
HETATM   12  N   UNL     1     -45.370  57.561 -57.524  1.00  0.00    -0.354 N 
HETATM   13  H   UNL     1     -45.940  57.192 -56.770  1.00  0.00     0.162 HD
HETATM   14  O   UNL     1     -43.305  58.329 -58.178  1.00  0.00    -0.268 OA
BRANCH  12  15
HETATM   15  C   UNL     1     -46.037  57.767 -58.797  1.00  0.00     0.154 C 
BRANCH  15  16
HETATM   16  C   UNL     1     -45.768  56.617 -59.778  1.00  0.00     0.132 C 
HETATM   17  C   UNL     1     -47.007  56.230 -60.576  1.00  0.00     0.041 C 
BRANCH  16  18
HETATM   18  O   UNL     1     -44.729  57.007 -60.682  1.00  0.00    -0.394 OA
HETATM   19  H   UNL     1     -43.909  56.584 -60.377  1.00  0.00     0.210 HD
ENDBRANCH  16  18
ENDBRANCH  15  16
ENDBRANCH  12  15
ENDBRANCH   5  11
BRANCH   1  20
HETATM   20  C   UNL     1     -41.619  54.927 -54.189  1.00  0.00    -0.007 A 
HETATM   21  C   UNL     1     -41.640  54.377 -52.894  1.00  0.00     0.014 A 
HETATM   22  C   UNL     1     -40.935  53.210 -52.575  1.00  0.00     0.007 A 
HETATM   23  C   UNL     1     -40.173  52.558 -53.546  1.00  0.00    -0.062 A 
HETATM   24  C   UNL     1     -39.424  51.300 -53.225  1.00  0.00     0.048 C 
HETATM   25  C   UNL     1     -40.140  53.084 -54.840  1.00  0.00     0.007 A 
HETATM   26  C   UNL     1     -40.846  54.254 -55.152  1.00  0.00     0.014 A 
ENDBRANCH   1  20
TORSDOF 5
ENDMDL
MODEL 10
REMARK VINA RESULT:      -7.0     15.059     17.814
REMARK  5 active torsions:
REMARK  status: ('A' for Active; 'I' for Inactive)
REMARK    1  A    between atoms: C_5  and  C_6 
REMARK    2  A    between atoms: C_10  and  C_11 
REMARK       I    between atoms: C_11  and  N_12 
REMARK    3  A    between atoms: N_12  and  C_13 
REMARK    4  A    between atoms: C_13  and  C_14 
REMARK    5  A    between atoms: C_14  and  O_15 
ROOT
HETATM    1  C   UNL     1     -33.175  39.783 -51.654  1.00  0.00     0.068 A 
HETATM    2  N   UNL     1     -32.186  39.506 -52.541  1.00  0.00    -0.248 NA
HETATM    3  C   UNL     1     -32.342  39.799 -53.843  1.00  0.00     0.068 A 
HETATM    4  C   UNL     1     -33.494  40.420 -54.357  1.00  0.00     0.008 A 
HETATM    5  C   UNL     1     -34.486  40.749 -53.410  1.00  0.00     0.046 A 
HETATM    6  C   UNL     1     -34.336  40.416 -52.062  1.00  0.00     0.050 A 
HETATM    7  C   UNL     1     -31.318  39.459 -54.717  1.00  0.00     0.032 A 
HETATM    8  C   UNL     1     -31.404  39.699 -56.090  1.00  0.00     0.002 A 
HETATM    9  C   UNL     1     -32.545  40.287 -56.613  1.00  0.00     0.001 A 
HETATM   10  C   UNL     1     -33.587  40.642 -55.756  1.00  0.00     0.015 A 
ENDROOT
BRANCH   5  11
HETATM   11  C   UNL     1     -35.748  41.437 -53.762  1.00  0.00     0.252 C 
HETATM   12  N   UNL     1     -36.696  40.664 -54.387  1.00  0.00    -0.354 N 
HETATM   13  H   UNL     1     -36.531  39.678 -54.563  1.00  0.00     0.162 HD
HETATM   14  O   UNL     1     -35.866  42.635 -53.544  1.00  0.00    -0.268 OA
BRANCH  12  15
HETATM   15  C   UNL     1     -38.001  41.177 -54.761  1.00  0.00     0.154 C 
BRANCH  15  16
HETATM   16  C   UNL     1     -38.206  41.168 -56.282  1.00  0.00     0.132 C 
HETATM   17  C   UNL     1     -37.256  42.116 -57.004  1.00  0.00     0.041 C 
BRANCH  16  18
HETATM   18  O   UNL     1     -38.004  39.838 -56.773  1.00  0.00    -0.394 OA
HETATM   19  H   UNL     1     -38.452  39.234 -56.155  1.00  0.00     0.210 HD
ENDBRANCH  16  18
ENDBRANCH  15  16
ENDBRANCH  12  15
ENDBRANCH   5  11
BRANCH   1  20
HETATM   20  C   UNL     1     -32.920  39.369 -50.254  1.00  0.00    -0.007 A 
HETATM   21  C   UNL     1     -31.842  39.910 -49.529  1.00  0.00     0.014 A 
HETATM   22  C   UNL     1     -31.576  39.531 -48.209  1.00  0.00     0.007 A 
HETATM   23  C   UNL     1     -32.378  38.582 -47.570  1.00  0.00    -0.062 A 
HETATM   24  C   UNL     1     -32.114  38.176 -46.152  1.00  0.00     0.048 C 
HETATM   25  C   UNL     1     -33.456  38.035 -48.270  1.00  0.00     0.007 A 
HETATM   26  C   UNL     1     -33.716  38.418 -49.593  1.00  0.00     0.014 A 
ENDBRANCH   1  20
TORSDOF 5
ENDMDL
