MODEL 1
REMARK VINA RESULT:      -7.7      0.000      0.000
REMARK  7 active torsions:
REMARK  status: ('A' for Active; 'I' for Inactive)
REMARK    1  A    between atoms: C_2  and  N_3 
REMARK    2  A    between atoms: C_2  and  C_17 
REMARK       I    between atoms: N_3  and  C_4 
REMARK    3  A    between atoms: C_4  and  C_5 
REMARK    4  A    between atoms: C_6  and  N_7 
REMARK    5  A    between atoms: C_17  and  O_18 
REMARK    6  A    between atoms: C_17  and  C_19 
REMARK    7  A    between atoms: C_22  and  O_23 
ROOT
HETATM    1  N   UNL     1     -41.761  54.698 -53.850  1.00  0.00    -0.350 N 
HETATM    2  C   UNL     1     -40.607  54.033 -54.173  1.00  0.00     0.255 C 
HETATM    3  O   UNL     1     -39.877  54.405 -55.089  1.00  0.00    -0.268 OA
HETATM    4  H   UNL     1     -42.093  54.543 -52.903  1.00  0.00     0.163 HD
ENDROOT
BRANCH   1   5
HETATM    5  C   UNL     1     -42.126  55.980 -54.474  1.00  0.00     0.114 C 
HETATM    6  C   UNL     1     -42.444  57.022 -53.395  1.00  0.00     0.035 C 
BRANCH   5   7
HETATM    7  C   UNL     1     -43.311  55.765 -55.461  1.00  0.00     0.173 C 
BRANCH   7   8
HETATM    8  O   UNL     1     -44.503  56.401 -54.978  1.00  0.00    -0.389 OA
HETATM    9  H   UNL     1     -44.961  56.758 -55.758  1.00  0.00     0.210 HD
ENDBRANCH   7   8
BRANCH   7  10
HETATM   10  C   UNL     1     -42.999  56.220 -56.874  1.00  0.00    -0.028 A 
HETATM   11  C   UNL     1     -42.465  57.500 -57.087  1.00  0.00     0.012 A 
HETATM   12  C   UNL     1     -42.178  57.946 -58.380  1.00  0.00     0.037 A 
HETATM   13  C   UNL     1     -42.414  57.128 -59.486  1.00  0.00     0.068 A 
HETATM   14  C   UNL     1     -42.942  55.854 -59.286  1.00  0.00     0.037 A 
HETATM   15  C   UNL     1     -43.233  55.405 -57.991  1.00  0.00     0.012 A 
BRANCH  13  16
HETATM   16  O   UNL     1     -42.087  57.688 -60.690  1.00  0.00    -0.356 OA
HETATM   17  C   UNL     1     -41.993  59.105 -60.732  1.00  0.00     0.210 C 
ENDBRANCH  13  16
ENDBRANCH   7  10
ENDBRANCH   5   7
ENDBRANCH   1   5
BRANCH   2  18
HETATM   18  C   UNL     1     -40.283  52.758 -53.461  1.00  0.00     0.079 A 
HETATM   19  C   UNL     1     -40.277  52.439 -52.096  1.00  0.00     0.165 A 
HETATM   20  N   UNL     1     -39.938  51.181 -51.648  1.00  0.00    -0.241 NA
HETATM   21  C   UNL     1     -39.598  50.230 -52.542  1.00  0.00     0.119 A 
HETATM   22  C   UNL     1     -39.569  50.453 -53.897  1.00  0.00     0.020 A 
HETATM   23  C   UNL     1     -39.912  51.722 -54.349  1.00  0.00     0.022 A 
BRANCH  19  24
HETATM   24  N   UNL     1     -40.575  53.357 -51.031  1.00  0.00    -0.226 N 
HETATM   25  N   UNL     1     -41.796  53.917 -50.797  1.00  0.00    -0.179 NA
HETATM   26  C   UNL     1     -41.609  54.728 -49.752  1.00  0.00     0.141 A 
HETATM   27  C   UNL     1     -40.307  54.666 -49.245  1.00  0.00     0.040 A 
HETATM   28  C   UNL     1     -39.669  53.773 -50.066  1.00  0.00     0.122 A 
ENDBRANCH  19  24
ENDBRANCH   2  18
TORSDOF 7
ENDMDL
MODEL 2
REMARK VINA RESULT:      -7.6      3.089      5.333
REMARK  7 active torsions:
REMARK  status: ('A' for Active; 'I' for Inactive)
REMARK    1  A    between atoms: C_2  and  N_3 
REMARK    2  A    between atoms: C_2  and  C_17 
REMARK       I    between atoms: N_3  and  C_4 
REMARK    3  A    between atoms: C_4  and  C_5 
REMARK    4  A    between atoms: C_6  and  N_7 
REMARK    5  A    between atoms: C_17  and  O_18 
REMARK    6  A    between atoms: C_17  and  C_19 
REMARK    7  A    between atoms: C_22  and  O_23 
ROOT
HETATM    1  N   UNL     1     -42.666  54.735 -53.232  1.00  0.00    -0.350 N 
HETATM    2  C   UNL     1     -42.891  54.164 -52.006  1.00  0.00     0.255 C 
HETATM    3  O   UNL     1     -44.013  53.813 -51.647  1.00  0.00    -0.268 OA
HETATM    4  H   UNL     1     -41.711  54.664 -53.568  1.00  0.00     0.163 HD
ENDROOT
BRANCH   1   5
HETATM    5  C   UNL     1     -43.719  54.828 -54.255  1.00  0.00     0.114 C 
HETATM    6  C   UNL     1     -43.289  54.087 -55.527  1.00  0.00     0.035 C 
BRANCH   5   7
HETATM    7  C   UNL     1     -44.059  56.324 -54.525  1.00  0.00     0.173 C 
BRANCH   7   8
HETATM    8  O   UNL     1     -45.466  56.498 -54.746  1.00  0.00    -0.389 OA
HETATM    9  H   UNL     1     -45.919  55.997 -54.047  1.00  0.00     0.210 HD
ENDBRANCH   7   8
BRANCH   7  10
HETATM   10  C   UNL     1     -43.572  57.252 -53.429  1.00  0.00    -0.028 A 
HETATM   11  C   UNL     1     -42.307  57.850 -53.541  1.00  0.00     0.012 A 
HETATM   12  C   UNL     1     -41.830  58.701 -52.541  1.00  0.00     0.037 A 
HETATM   13  C   UNL     1     -42.602  58.976 -51.411  1.00  0.00     0.068 A 
HETATM   14  C   UNL     1     -43.860  58.389 -51.290  1.00  0.00     0.037 A 
HETATM   15  C   UNL     1     -44.340  57.534 -52.291  1.00  0.00     0.012 A 
BRANCH  13  16
HETATM   16  O   UNL     1     -42.016  59.825 -50.512  1.00  0.00    -0.356 OA
HETATM   17  C   UNL     1     -40.700  59.497 -50.087  1.00  0.00     0.210 C 
ENDBRANCH  13  16
ENDBRANCH   7  10
ENDBRANCH   5   7
ENDBRANCH   1   5
BRANCH   2  18
HETATM   18  C   UNL     1     -41.757  54.065 -51.035  1.00  0.00     0.079 A 
HETATM   19  C   UNL     1     -40.563  53.331 -51.084  1.00  0.00     0.165 A 
HETATM   20  N   UNL     1     -39.640  53.383 -50.061  1.00  0.00    -0.241 NA
HETATM   21  C   UNL     1     -39.890  54.153 -48.983  1.00  0.00     0.119 A 
HETATM   22  C   UNL     1     -41.035  54.899 -48.846  1.00  0.00     0.020 A 
HETATM   23  C   UNL     1     -41.966  54.849 -49.878  1.00  0.00     0.022 A 
BRANCH  19  24
HETATM   24  N   UNL     1     -40.182  52.440 -52.144  1.00  0.00    -0.226 N 
HETATM   25  N   UNL     1     -40.300  52.710 -53.476  1.00  0.00    -0.179 NA
HETATM   26  C   UNL     1     -39.875  51.603 -54.091  1.00  0.00     0.141 A 
HETATM   27  C   UNL     1     -39.413  50.631 -53.198  1.00  0.00     0.040 A 
HETATM   28  C   UNL     1     -39.602  51.192 -51.962  1.00  0.00     0.122 A 
ENDBRANCH  19  24
ENDBRANCH   2  18
TORSDOF 7
ENDMDL
MODEL 3
REMARK VINA RESULT:      -7.5      3.206      8.716
REMARK  7 active torsions:
REMARK  status: ('A' for Active; 'I' for Inactive)
REMARK    1  A    between atoms: C_2  and  N_3 
REMARK    2  A    between atoms: C_2  and  C_17 
REMARK       I    between atoms: N_3  and  C_4 
REMARK    3  A    between atoms: C_4  and  C_5 
REMARK    4  A    between atoms: C_6  and  N_7 
REMARK    5  A    between atoms: C_17  and  O_18 
REMARK    6  A    between atoms: C_17  and  C_19 
REMARK    7  A    between atoms: C_22  and  O_23 
ROOT
HETATM    1  N   UNL     1     -42.368  56.605 -55.898  1.00  0.00    -0.350 N 
HETATM    2  C   UNL     1     -42.826  56.424 -57.177  1.00  0.00     0.255 C 
HETATM    3  O   UNL     1     -43.141  55.316 -57.605  1.00  0.00    -0.268 OA
HETATM    4  H   UNL     1     -42.471  57.548 -55.536  1.00  0.00     0.163 HD
ENDROOT
BRANCH   1   5
HETATM    5  C   UNL     1     -42.364  55.516 -54.908  1.00  0.00     0.114 C 
HETATM    6  C   UNL     1     -43.597  55.621 -54.001  1.00  0.00     0.035 C 
BRANCH   5   7
HETATM    7  C   UNL     1     -41.030  55.540 -54.105  1.00  0.00     0.173 C 
BRANCH   7   8
HETATM    8  O   UNL     1     -41.097  56.487 -53.029  1.00  0.00    -0.389 OA
HETATM    9  H   UNL     1     -40.179  56.684 -52.778  1.00  0.00     0.210 HD
ENDBRANCH   7   8
BRANCH   7  10
HETATM   10  C   UNL     1     -40.621  54.174 -53.589  1.00  0.00    -0.028 A 
HETATM   11  C   UNL     1     -40.340  53.146 -54.502  1.00  0.00     0.012 A 
HETATM   12  C   UNL     1     -39.971  51.875 -54.052  1.00  0.00     0.037 A 
HETATM   13  C   UNL     1     -39.871  51.603 -52.687  1.00  0.00     0.068 A 
HETATM   14  C   UNL     1     -40.146  52.617 -51.772  1.00  0.00     0.037 A 
HETATM   15  C   UNL     1     -40.518  53.891 -52.220  1.00  0.00     0.012 A 
BRANCH  13  16
HETATM   16  O   UNL     1     -39.500  50.321 -52.386  1.00  0.00    -0.356 OA
HETATM   17  C   UNL     1     -39.537  49.949 -51.015  1.00  0.00     0.210 C 
ENDBRANCH  13  16
ENDBRANCH   7  10
ENDBRANCH   5   7
ENDBRANCH   1   5
BRANCH   2  18
HETATM   18  C   UNL     1     -42.840  57.592 -58.112  1.00  0.00     0.079 A 
HETATM   19  C   UNL     1     -43.540  57.809 -59.307  1.00  0.00     0.165 A 
HETATM   20  N   UNL     1     -43.402  58.977 -60.025  1.00  0.00    -0.241 NA
HETATM   21  C   UNL     1     -42.570  59.936 -59.573  1.00  0.00     0.119 A 
HETATM   22  C   UNL     1     -41.838  59.809 -58.417  1.00  0.00     0.020 A 
HETATM   23  C   UNL     1     -41.978  58.631 -57.692  1.00  0.00     0.022 A 
BRANCH  19  24
HETATM   24  N   UNL     1     -44.426  56.864 -59.930  1.00  0.00    -0.226 N 
HETATM   25  N   UNL     1     -44.047  55.900 -60.816  1.00  0.00    -0.179 NA
HETATM   26  C   UNL     1     -45.182  55.290 -61.170  1.00  0.00     0.141 A 
HETATM   27  C   UNL     1     -46.297  55.784 -60.485  1.00  0.00     0.040 A 
HETATM   28  C   UNL     1     -45.789  56.776 -59.687  1.00  0.00     0.122 A 
ENDBRANCH  19  24
ENDBRANCH   2  18
TORSDOF 7
ENDMDL
MODEL 4
REMARK VINA RESULT:      -7.4      1.363      3.086
REMARK  7 active torsions:
REMARK  status: ('A' for Active; 'I' for Inactive)
REMARK    1  A    between atoms: C_2  and  N_3 
REMARK    2  A    between atoms: C_2  and  C_17 
REMARK       I    between atoms: N_3  and  C_4 
REMARK    3  A    between atoms: C_4  and  C_5 
REMARK    4  A    between atoms: C_6  and  N_7 
REMARK    5  A    between atoms: C_17  and  O_18 
REMARK    6  A    between atoms: C_17  and  C_19 
REMARK    7  A    between atoms: C_22  and  O_23 
ROOT
HETATM    1  N   UNL     1     -42.567  55.241 -53.418  1.00  0.00    -0.350 N 
HETATM    2  C   UNL     1     -41.542  55.686 -52.626  1.00  0.00     0.255 C 
HETATM    3  O   UNL     1     -40.857  56.659 -52.932  1.00  0.00    -0.268 OA
HETATM    4  H   UNL     1     -43.270  54.687 -52.938  1.00  0.00     0.163 HD
ENDROOT
BRANCH   1   5
HETATM    5  C   UNL     1     -43.014  55.983 -54.608  1.00  0.00     0.114 C 
HETATM    6  C   UNL     1     -44.480  56.404 -54.451  1.00  0.00     0.035 C 
BRANCH   5   7
HETATM    7  C   UNL     1     -42.776  55.122 -55.884  1.00  0.00     0.173 C 
BRANCH   7   8
HETATM    8  O   UNL     1     -43.682  54.010 -55.929  1.00  0.00    -0.389 OA
HETATM    9  H   UNL     1     -44.513  54.346 -56.307  1.00  0.00     0.210 HD
ENDBRANCH   7   8
BRANCH   7  10
HETATM   10  C   UNL     1     -42.853  55.925 -57.168  1.00  0.00    -0.028 A 
HETATM   11  C   UNL     1     -42.421  57.260 -57.175  1.00  0.00     0.012 A 
HETATM   12  C   UNL     1     -42.491  58.025 -58.343  1.00  0.00     0.037 A 
HETATM   13  C   UNL     1     -42.990  57.477 -59.526  1.00  0.00     0.068 A 
HETATM   14  C   UNL     1     -43.420  56.152 -59.530  1.00  0.00     0.037 A 
HETATM   15  C   UNL     1     -43.353  55.384 -58.361  1.00  0.00     0.012 A 
BRANCH  13  16
HETATM   16  O   UNL     1     -43.001  58.335 -60.591  1.00  0.00    -0.356 OA
HETATM   17  C   UNL     1     -42.066  59.405 -60.561  1.00  0.00     0.210 C 
ENDBRANCH  13  16
ENDBRANCH   7  10
ENDBRANCH   5   7
ENDBRANCH   1   5
BRANCH   2  18
HETATM   18  C   UNL     1     -41.177  54.899 -51.406  1.00  0.00     0.079 A 
HETATM   19  C   UNL     1     -40.648  53.609 -51.265  1.00  0.00     0.165 A 
HETATM   20  N   UNL     1     -40.385  53.066 -50.025  1.00  0.00    -0.241 NA
HETATM   21  C   UNL     1     -40.646  53.789 -48.918  1.00  0.00     0.119 A 
HETATM   22  C   UNL     1     -41.171  55.058 -48.960  1.00  0.00     0.020 A 
HETATM   23  C   UNL     1     -41.436  55.606 -50.209  1.00  0.00     0.022 A 
BRANCH  19  24
HETATM   24  N   UNL     1     -40.359  52.710 -52.348  1.00  0.00    -0.226 N 
HETATM   25  N   UNL     1     -40.842  52.831 -53.618  1.00  0.00    -0.179 NA
HETATM   26  C   UNL     1     -40.363  51.769 -54.272  1.00  0.00     0.141 A 
HETATM   27  C   UNL     1     -39.517  50.984 -53.483  1.00  0.00     0.040 A 
HETATM   28  C   UNL     1     -39.515  51.611 -52.264  1.00  0.00     0.122 A 
ENDBRANCH  19  24
ENDBRANCH   2  18
TORSDOF 7
ENDMDL
MODEL 5
REMARK VINA RESULT:      -7.2      2.199      4.363
REMARK  7 active torsions:
REMARK  status: ('A' for Active; 'I' for Inactive)
REMARK    1  A    between atoms: C_2  and  N_3 
REMARK    2  A    between atoms: C_2  and  C_17 
REMARK       I    between atoms: N_3  and  C_4 
REMARK    3  A    between atoms: C_4  and  C_5 
REMARK    4  A    between atoms: C_6  and  N_7 
REMARK    5  A    between atoms: C_17  and  O_18 
REMARK    6  A    between atoms: C_17  and  C_19 
REMARK    7  A    between atoms: C_22  and  O_23 
ROOT
HETATM    1  N   UNL     1     -41.790  54.959 -55.080  1.00  0.00    -0.350 N 
HETATM    2  C   UNL     1     -42.185  54.206 -54.005  1.00  0.00     0.255 C 
HETATM    3  O   UNL     1     -43.285  54.353 -53.476  1.00  0.00    -0.268 OA
HETATM    4  H   UNL     1     -41.055  54.545 -55.646  1.00  0.00     0.163 HD
ENDROOT
BRANCH   1   5
HETATM    5  C   UNL     1     -42.707  55.884 -55.765  1.00  0.00     0.114 C 
HETATM    6  C   UNL     1     -42.972  55.403 -57.197  1.00  0.00     0.035 C 
BRANCH   5   7
HETATM    7  C   UNL     1     -42.126  57.329 -55.721  1.00  0.00     0.173 C 
BRANCH   7   8
HETATM    8  O   UNL     1     -42.773  58.171 -56.685  1.00  0.00    -0.389 OA
HETATM    9  H   UNL     1     -43.494  57.645 -57.071  1.00  0.00     0.210 HD
ENDBRANCH   7   8
BRANCH   7  10
HETATM   10  C   UNL     1     -42.186  57.953 -54.340  1.00  0.00    -0.028 A 
HETATM   11  C   UNL     1     -41.049  58.587 -53.817  1.00  0.00     0.012 A 
HETATM   12  C   UNL     1     -41.076  59.161 -52.543  1.00  0.00     0.037 A 
HETATM   13  C   UNL     1     -42.235  59.117 -51.766  1.00  0.00     0.068 A 
HETATM   14  C   UNL     1     -43.370  58.492 -52.276  1.00  0.00     0.037 A 
HETATM   15  C   UNL     1     -43.345  57.914 -53.552  1.00  0.00     0.012 A 
BRANCH  13  16
HETATM   16  O   UNL     1     -42.123  59.718 -50.542  1.00  0.00    -0.356 OA
HETATM   17  C   UNL     1     -42.872  60.910 -50.343  1.00  0.00     0.210 C 
ENDBRANCH  13  16
ENDBRANCH   7  10
ENDBRANCH   5   7
ENDBRANCH   1   5
BRANCH   2  18
HETATM   18  C   UNL     1     -41.208  53.254 -53.391  1.00  0.00     0.079 A 
HETATM   19  C   UNL     1     -40.647  53.209 -52.107  1.00  0.00     0.165 A 
HETATM   20  N   UNL     1     -39.747  52.229 -51.744  1.00  0.00    -0.241 NA
HETATM   21  C   UNL     1     -39.392  51.292 -52.645  1.00  0.00     0.119 A 
HETATM   22  C   UNL     1     -39.884  51.262 -53.927  1.00  0.00     0.020 A 
HETATM   23  C   UNL     1     -40.792  52.249 -54.294  1.00  0.00     0.022 A 
BRANCH  19  24
HETATM   24  N   UNL     1     -40.898  54.160 -51.060  1.00  0.00    -0.226 N 
HETATM   25  N   UNL     1     -41.067  53.850 -49.743  1.00  0.00    -0.179 NA
HETATM   26  C   UNL     1     -41.319  55.017 -49.143  1.00  0.00     0.141 A 
HETATM   27  C   UNL     1     -41.253  56.103 -50.022  1.00  0.00     0.040 A 
HETATM   28  C   UNL     1     -40.967  55.535 -51.237  1.00  0.00     0.122 A 
ENDBRANCH  19  24
ENDBRANCH   2  18
TORSDOF 7
ENDMDL
MODEL 6
REMARK VINA RESULT:      -7.2     14.203     15.915
REMARK  7 active torsions:
REMARK  status: ('A' for Active; 'I' for Inactive)
REMARK    1  A    between atoms: C_2  and  N_3 
REMARK    2  A    between atoms: C_2  and  C_17 
REMARK       I    between atoms: N_3  and  C_4 
REMARK    3  A    between atoms: C_4  and  C_5 
REMARK    4  A    between atoms: C_6  and  N_7 
REMARK    5  A    between atoms: C_17  and  O_18 
REMARK    6  A    between atoms: C_17  and  C_19 
REMARK    7  A    between atoms: C_22  and  O_23 
ROOT
HETATM    1  N   UNL     1     -35.568  40.847 -54.458  1.00  0.00    -0.350 N 
HETATM    2  C   UNL     1     -34.460  41.352 -55.086  1.00  0.00     0.255 C 
HETATM    3  O   UNL     1     -34.482  42.427 -55.681  1.00  0.00    -0.268 OA
HETATM    4  H   UNL     1     -35.374  40.169 -53.727  1.00  0.00     0.163 HD
ENDROOT
BRANCH   1   5
HETATM    5  C   UNL     1     -36.812  41.622 -54.324  1.00  0.00     0.114 C 
HETATM    6  C   UNL     1     -37.130  41.860 -52.843  1.00  0.00     0.035 C 
BRANCH   5   7
HETATM    7  C   UNL     1     -37.968  40.894 -55.071  1.00  0.00     0.173 C 
BRANCH   7   8
HETATM    8  O   UNL     1     -39.236  41.482 -54.749  1.00  0.00    -0.389 OA
HETATM    9  H   UNL     1     -39.518  41.087 -53.907  1.00  0.00     0.210 HD
ENDBRANCH   7   8
BRANCH   7  10
HETATM   10  C   UNL     1     -37.768  40.845 -56.574  1.00  0.00    -0.028 A 
HETATM   11  C   UNL     1     -37.982  39.641 -57.262  1.00  0.00     0.012 A 
HETATM   12  C   UNL     1     -37.794  39.567 -58.644  1.00  0.00     0.037 A 
HETATM   13  C   UNL     1     -37.393  40.690 -59.371  1.00  0.00     0.068 A 
HETATM   14  C   UNL     1     -37.179  41.891 -58.698  1.00  0.00     0.037 A 
HETATM   15  C   UNL     1     -37.365  41.967 -57.312  1.00  0.00     0.012 A 
BRANCH  13  16
HETATM   16  O   UNL     1     -37.249  40.478 -60.714  1.00  0.00    -0.356 OA
HETATM   17  C   UNL     1     -36.824  39.183 -61.116  1.00  0.00     0.210 C 
ENDBRANCH  13  16
ENDBRANCH   7  10
ENDBRANCH   5   7
ENDBRANCH   1   5
BRANCH   2  18
HETATM   18  C   UNL     1     -33.217  40.519 -55.142  1.00  0.00     0.079 A 
HETATM   19  C   UNL     1     -32.499  39.866 -54.130  1.00  0.00     0.165 A 
HETATM   20  N   UNL     1     -31.358  39.143 -54.405  1.00  0.00    -0.241 NA
HETATM   21  C   UNL     1     -30.916  39.063 -55.676  1.00  0.00     0.119 A 
HETATM   22  C   UNL     1     -31.550  39.677 -56.729  1.00  0.00     0.020 A 
HETATM   23  C   UNL     1     -32.701  40.405 -56.453  1.00  0.00     0.022 A 
BRANCH  19  24
HETATM   24  N   UNL     1     -32.826  39.896 -52.731  1.00  0.00    -0.226 N 
HETATM   25  N   UNL     1     -33.947  39.355 -52.176  1.00  0.00    -0.179 NA
HETATM   26  C   UNL     1     -33.866  39.651 -50.876  1.00  0.00     0.141 A 
HETATM   27  C   UNL     1     -32.682  40.317 -50.545  1.00  0.00     0.040 A 
HETATM   28  C   UNL     1     -32.025  40.448 -51.742  1.00  0.00     0.122 A 
ENDBRANCH  19  24
ENDBRANCH   2  18
TORSDOF 7
ENDMDL
MODEL 7
REMARK VINA RESULT:      -7.1      2.987      8.297
REMARK  7 active torsions:
REMARK  status: ('A' for Active; 'I' for Inactive)
REMARK    1  A    between atoms: C_2  and  N_3 
REMARK    2  A    between atoms: C_2  and  C_17 
REMARK       I    between atoms: N_3  and  C_4 
REMARK    3  A    between atoms: C_4  and  C_5 
REMARK    4  A    between atoms: C_6  and  N_7 
REMARK    5  A    between atoms: C_17  and  O_18 
REMARK    6  A    between atoms: C_17  and  C_19 
REMARK    7  A    between atoms: C_22  and  O_23 
ROOT
HETATM    1  N   UNL     1     -43.311  54.843 -56.151  1.00  0.00    -0.350 N 
HETATM    2  C   UNL     1     -42.983  55.906 -56.952  1.00  0.00     0.255 C 
HETATM    3  O   UNL     1     -42.331  56.859 -56.534  1.00  0.00    -0.268 OA
HETATM    4  H   UNL     1     -43.526  53.984 -56.647  1.00  0.00     0.163 HD
ENDROOT
BRANCH   1   5
HETATM    5  C   UNL     1     -42.780  54.700 -54.786  1.00  0.00     0.114 C 
HETATM    6  C   UNL     1     -43.267  55.858 -53.905  1.00  0.00     0.035 C 
BRANCH   5   7
HETATM    7  C   UNL     1     -41.227  54.602 -54.834  1.00  0.00     0.173 C 
BRANCH   7   8
HETATM    8  O   UNL     1     -40.623  55.868 -54.535  1.00  0.00    -0.389 OA
HETATM    9  H   UNL     1     -41.244  56.550 -54.843  1.00  0.00     0.210 HD
ENDBRANCH   7   8
BRANCH   7  10
HETATM   10  C   UNL     1     -40.671  53.518 -53.930  1.00  0.00    -0.028 A 
HETATM   11  C   UNL     1     -40.290  52.285 -54.481  1.00  0.00     0.012 A 
HETATM   12  C   UNL     1     -39.785  51.267 -53.668  1.00  0.00     0.037 A 
HETATM   13  C   UNL     1     -39.647  51.456 -52.292  1.00  0.00     0.068 A 
HETATM   14  C   UNL     1     -40.020  52.677 -51.734  1.00  0.00     0.037 A 
HETATM   15  C   UNL     1     -40.528  53.698 -52.546  1.00  0.00     0.012 A 
BRANCH  13  16
HETATM   16  O   UNL     1     -39.139  50.380 -51.616  1.00  0.00    -0.356 OA
HETATM   17  C   UNL     1     -39.908  49.888 -50.526  1.00  0.00     0.210 C 
ENDBRANCH  13  16
ENDBRANCH   7  10
ENDBRANCH   5   7
ENDBRANCH   1   5
BRANCH   2  18
HETATM   18  C   UNL     1     -43.527  55.956 -58.345  1.00  0.00     0.079 A 
HETATM   19  C   UNL     1     -43.655  57.022 -59.248  1.00  0.00     0.165 A 
HETATM   20  N   UNL     1     -44.197  56.846 -60.503  1.00  0.00    -0.241 NA
HETATM   21  C   UNL     1     -44.621  55.622 -60.874  1.00  0.00     0.119 A 
HETATM   22  C   UNL     1     -44.543  54.522 -60.054  1.00  0.00     0.020 A 
HETATM   23  C   UNL     1     -43.996  54.698 -58.789  1.00  0.00     0.022 A 
BRANCH  19  24
HETATM   24  N   UNL     1     -43.286  58.384 -58.977  1.00  0.00    -0.226 N 
HETATM   25  N   UNL     1     -44.049  59.282 -58.291  1.00  0.00    -0.179 NA
HETATM   26  C   UNL     1     -43.350  60.420 -58.316  1.00  0.00     0.141 A 
HETATM   27  C   UNL     1     -42.109  60.279 -58.944  1.00  0.00     0.040 A 
HETATM   28  C   UNL     1     -42.081  58.967 -59.344  1.00  0.00     0.122 A 
ENDBRANCH  19  24
ENDBRANCH   2  18
TORSDOF 7
ENDMDL
MODEL 8
REMARK VINA RESULT:      -7.1      2.984      5.363
REMARK  7 active torsions:
REMARK  status: ('A' for Active; 'I' for Inactive)
REMARK    1  A    between atoms: C_2  and  N_3 
REMARK    2  A    between atoms: C_2  and  C_17 
REMARK       I    between atoms: N_3  and  C_4 
REMARK    3  A    between atoms: C_4  and  C_5 
REMARK    4  A    between atoms: C_6  and  N_7 
REMARK    5  A    between atoms: C_17  and  O_18 
REMARK    6  A    between atoms: C_17  and  C_19 
REMARK    7  A    between atoms: C_22  and  O_23 
ROOT
HETATM    1  N   UNL     1     -41.561  55.906 -53.493  1.00  0.00    -0.350 N 
HETATM    2  C   UNL     1     -42.087  54.642 -53.431  1.00  0.00     0.255 C 
HETATM    3  O   UNL     1     -43.292  54.432 -53.544  1.00  0.00    -0.268 OA
HETATM    4  H   UNL     1     -40.577  55.949 -53.739  1.00  0.00     0.163 HD
ENDROOT
BRANCH   1   5
HETATM    5  C   UNL     1     -42.380  57.077 -53.848  1.00  0.00     0.114 C 
HETATM    6  C   UNL     1     -42.259  57.372 -55.348  1.00  0.00     0.035 C 
BRANCH   5   7
HETATM    7  C   UNL     1     -41.968  58.293 -52.967  1.00  0.00     0.173 C 
BRANCH   7   8
HETATM    8  O   UNL     1     -41.457  59.362 -53.776  1.00  0.00    -0.389 OA
HETATM    9  H   UNL     1     -40.496  59.231 -53.832  1.00  0.00     0.210 HD
ENDBRANCH   7   8
BRANCH   7  10
HETATM   10  C   UNL     1     -43.089  58.788 -52.073  1.00  0.00    -0.028 A 
HETATM   11  C   UNL     1     -42.944  60.007 -51.393  1.00  0.00     0.012 A 
HETATM   12  C   UNL     1     -43.958  60.480 -50.555  1.00  0.00     0.037 A 
HETATM   13  C   UNL     1     -45.135  59.752 -50.379  1.00  0.00     0.068 A 
HETATM   14  C   UNL     1     -45.290  58.541 -51.051  1.00  0.00     0.037 A 
HETATM   15  C   UNL     1     -44.275  58.064 -51.890  1.00  0.00     0.012 A 
BRANCH  13  16
HETATM   16  O   UNL     1     -46.043  60.330 -49.535  1.00  0.00    -0.356 OA
HETATM   17  C   UNL     1     -45.518  61.081 -48.449  1.00  0.00     0.210 C 
ENDBRANCH  13  16
ENDBRANCH   7  10
ENDBRANCH   5   7
ENDBRANCH   1   5
BRANCH   2  18
HETATM   18  C   UNL     1     -41.180  53.497 -53.108  1.00  0.00     0.079 A 
HETATM   19  C   UNL     1     -40.583  53.104 -51.901  1.00  0.00     0.165 A 
HETATM   20  N   UNL     1     -39.764  51.998 -51.825  1.00  0.00    -0.241 NA
HETATM   21  C   UNL     1     -39.524  51.276 -52.937  1.00  0.00     0.119 A 
HETATM   22  C   UNL     1     -40.058  51.589 -54.164  1.00  0.00     0.020 A 
HETATM   23  C   UNL     1     -40.885  52.704 -54.241  1.00  0.00     0.022 A 
BRANCH  19  24
HETATM   24  N   UNL     1     -40.715  53.797 -50.650  1.00  0.00    -0.226 N 
HETATM   25  N   UNL     1     -41.202  55.062 -50.501  1.00  0.00    -0.179 NA
HETATM   26  C   UNL     1     -41.102  55.319 -49.194  1.00  0.00     0.141 A 
HETATM   27  C   UNL     1     -40.624  54.227 -48.462  1.00  0.00     0.040 A 
HETATM   28  C   UNL     1     -40.399  53.261 -49.409  1.00  0.00     0.122 A 
ENDBRANCH  19  24
ENDBRANCH   2  18
TORSDOF 7
ENDMDL
MODEL 9
REMARK VINA RESULT:      -7.0      2.901      7.772
REMARK  7 active torsions:
REMARK  status: ('A' for Active; 'I' for Inactive)
REMARK    1  A    between atoms: C_2  and  N_3 
REMARK    2  A    between atoms: C_2  and  C_17 
REMARK       I    between atoms: N_3  and  C_4 
REMARK    3  A    between atoms: C_4  and  C_5 
REMARK    4  A    between atoms: C_6  and  N_7 
REMARK    5  A    between atoms: C_17  and  O_18 
REMARK    6  A    between atoms: C_17  and  C_19 
REMARK    7  A    between atoms: C_22  and  O_23 
ROOT
HETATM    1  N   UNL     1     -42.337  56.617 -55.192  1.00  0.00    -0.350 N 
HETATM    2  C   UNL     1     -43.236  57.211 -56.038  1.00  0.00     0.255 C 
HETATM    3  O   UNL     1     -44.309  57.657 -55.639  1.00  0.00    -0.268 OA
HETATM    4  H   UNL     1     -41.378  56.606 -55.526  1.00  0.00     0.163 HD
ENDROOT
BRANCH   1   5
HETATM    5  C   UNL     1     -42.525  56.608 -53.732  1.00  0.00     0.114 C 
HETATM    6  C   UNL     1     -41.204  56.934 -53.025  1.00  0.00     0.035 C 
BRANCH   5   7
HETATM    7  C   UNL     1     -43.115  55.237 -53.288  1.00  0.00     0.173 C 
BRANCH   7   8
HETATM    8  O   UNL     1     -44.219  54.859 -54.122  1.00  0.00    -0.389 OA
HETATM    9  H   UNL     1     -45.018  55.224 -53.706  1.00  0.00     0.210 HD
ENDBRANCH   7   8
BRANCH   7  10
HETATM   10  C   UNL     1     -42.079  54.130 -53.239  1.00  0.00    -0.028 A 
HETATM   11  C   UNL     1     -41.805  53.388 -54.397  1.00  0.00     0.012 A 
HETATM   12  C   UNL     1     -40.862  52.356 -54.376  1.00  0.00     0.037 A 
HETATM   13  C   UNL     1     -40.172  52.045 -53.203  1.00  0.00     0.068 A 
HETATM   14  C   UNL     1     -40.436  52.777 -52.047  1.00  0.00     0.037 A 
HETATM   15  C   UNL     1     -41.381  53.810 -52.066  1.00  0.00     0.012 A 
BRANCH  13  16
HETATM   16  O   UNL     1     -39.279  51.016 -53.323  1.00  0.00    -0.356 OA
HETATM   17  C   UNL     1     -39.558  50.038 -54.316  1.00  0.00     0.210 C 
ENDBRANCH  13  16
ENDBRANCH   7  10
ENDBRANCH   5   7
ENDBRANCH   1   5
BRANCH   2  18
HETATM   18  C   UNL     1     -42.950  57.220 -57.507  1.00  0.00     0.079 A 
HETATM   19  C   UNL     1     -42.616  58.268 -58.376  1.00  0.00     0.165 A 
HETATM   20  N   UNL     1     -42.394  58.052 -59.719  1.00  0.00    -0.241 NA
HETATM   21  C   UNL     1     -42.505  56.804 -60.215  1.00  0.00     0.119 A 
HETATM   22  C   UNL     1     -42.835  55.718 -59.441  1.00  0.00     0.020 A 
HETATM   23  C   UNL     1     -43.059  55.935 -58.086  1.00  0.00     0.022 A 
BRANCH  19  24
HETATM   24  N   UNL     1     -42.503  59.650 -58.000  1.00  0.00    -0.226 N 
HETATM   25  N   UNL     1     -41.334  60.294 -57.720  1.00  0.00    -0.179 NA
HETATM   26  C   UNL     1     -41.696  61.534 -57.378  1.00  0.00     0.141 A 
HETATM   27  C   UNL     1     -43.074  61.746 -57.491  1.00  0.00     0.040 A 
HETATM   28  C   UNL     1     -43.567  60.536 -57.906  1.00  0.00     0.122 A 
ENDBRANCH  19  24
ENDBRANCH   2  18
TORSDOF 7
ENDMDL
MODEL 10
REMARK VINA RESULT:      -7.0     14.367     16.231
REMARK  7 active torsions:
REMARK  status: ('A' for Active; 'I' for Inactive)
REMARK    1  A    between atoms: C_2  and  N_3 
REMARK    2  A    between atoms: C_2  and  C_17 
REMARK       I    between atoms: N_3  and  C_4 
REMARK    3  A    between atoms: C_4  and  C_5 
REMARK    4  A    between atoms: C_6  and  N_7 
REMARK    5  A    between atoms: C_17  and  O_18 
REMARK    6  A    between atoms: C_17  and  C_19 
REMARK    7  A    between atoms: C_22  and  O_23 
ROOT
HETATM    1  N   UNL     1     -35.781  41.276 -54.959  1.00  0.00    -0.350 N 
HETATM    2  C   UNL     1     -35.556  41.725 -53.684  1.00  0.00     0.255 C 
HETATM    3  O   UNL     1     -36.097  42.738 -53.246  1.00  0.00    -0.268 OA
HETATM    4  H   UNL     1     -35.587  40.290 -55.106  1.00  0.00     0.163 HD
ENDROOT
BRANCH   1   5
HETATM    5  C   UNL     1     -36.794  41.886 -55.835  1.00  0.00     0.114 C 
HETATM    6  C   UNL     1     -38.008  40.957 -55.966  1.00  0.00     0.035 C 
BRANCH   5   7
HETATM    7  C   UNL     1     -36.158  42.231 -57.214  1.00  0.00     0.173 C 
BRANCH   7   8
HETATM    8  O   UNL     1     -34.761  42.526 -57.075  1.00  0.00    -0.389 OA
HETATM    9  H   UNL     1     -34.465  42.083 -56.261  1.00  0.00     0.210 HD
ENDBRANCH   7   8
BRANCH   7  10
HETATM   10  C   UNL     1     -36.375  41.151 -58.257  1.00  0.00    -0.028 A 
HETATM   11  C   UNL     1     -37.196  41.413 -59.364  1.00  0.00     0.012 A 
HETATM   12  C   UNL     1     -37.420  40.432 -60.333  1.00  0.00     0.037 A 
HETATM   13  C   UNL     1     -36.830  39.172 -60.222  1.00  0.00     0.068 A 
HETATM   14  C   UNL     1     -36.011  38.901 -59.128  1.00  0.00     0.037 A 
HETATM   15  C   UNL     1     -35.786  39.882 -58.154  1.00  0.00     0.012 A 
BRANCH  13  16
HETATM   16  O   UNL     1     -37.131  38.309 -61.240  1.00  0.00    -0.356 OA
HETATM   17  C   UNL     1     -38.431  38.416 -61.805  1.00  0.00     0.210 C 
ENDBRANCH  13  16
ENDBRANCH   7  10
ENDBRANCH   5   7
ENDBRANCH   1   5
BRANCH   2  18
HETATM   18  C   UNL     1     -34.541  41.024 -52.838  1.00  0.00     0.079 A 
HETATM   19  C   UNL     1     -33.435  40.235 -53.188  1.00  0.00     0.165 A 
HETATM   20  N   UNL     1     -32.618  39.671 -52.233  1.00  0.00    -0.241 NA
HETATM   21  C   UNL     1     -32.886  39.876 -50.928  1.00  0.00     0.119 A 
HETATM   22  C   UNL     1     -33.950  40.628 -50.492  1.00  0.00     0.020 A 
HETATM   23  C   UNL     1     -34.775  41.198 -51.455  1.00  0.00     0.022 A 
BRANCH  19  24
HETATM   24  N   UNL     1     -33.052  39.897 -54.531  1.00  0.00    -0.226 N 
HETATM   25  N   UNL     1     -32.575  40.779 -55.456  1.00  0.00    -0.179 NA
HETATM   26  C   UNL     1     -32.393  40.053 -56.563  1.00  0.00     0.141 A 
HETATM   27  C   UNL     1     -32.674  38.696 -56.373  1.00  0.00     0.040 A 
HETATM   28  C   UNL     1     -33.076  38.616 -55.064  1.00  0.00     0.122 A 
ENDBRANCH  19  24
ENDBRANCH   2  18
TORSDOF 7
ENDMDL
