MODEL 1
REMARK VINA RESULT:      -8.7      0.000      0.000
REMARK  7 active torsions:
REMARK  status: ('A' for Active; 'I' for Inactive)
REMARK    1  A    between atoms: C_5  and  C_6 
REMARK       I    between atoms: C_6  and  N_7 
REMARK    2  A    between atoms: N_7  and  C_8 
REMARK    3  A    between atoms: C_8  and  C_9 
REMARK    4  A    between atoms: C_9  and  C_10 
REMARK    5  A    between atoms: N_15  and  C_17 
REMARK    6  A    between atoms: C_17  and  C_18 
REMARK    7  A    between atoms: C_21  and  C_22 
ROOT
HETATM    1  C   UNL     1     -43.536  59.347 -55.007  1.00  0.00     0.131 A 
HETATM    2  N   UNL     1     -43.395  58.939 -53.698  1.00  0.00    -0.319 N 
HETATM    3  C   UNL     1     -44.464  58.115 -53.440  1.00  0.00     0.131 A 
HETATM    4  C   UNL     1     -44.733  57.365 -52.183  1.00  0.00     0.108 C 
HETATM    5  C   UNL     1     -43.476  56.707 -51.627  1.00  0.00     0.243 C 
HETATM    6  N   UNL     1     -42.604  57.684 -50.838  1.00  0.00    -0.065 N 
HETATM    7  H   UNL     1     -43.023  57.709 -49.897  1.00  0.00     0.280 HD
HETATM    8  C   UNL     1     -42.600  59.124 -51.320  1.00  0.00     0.255 C 
HETATM    9  C   UNL     1     -42.303  59.278 -52.812  1.00  0.00     0.159 C 
HETATM   10  N   UNL     1     -45.221  58.063 -54.510  1.00  0.00    -0.135 NA
HETATM   11  N   UNL     1     -44.643  58.822 -55.484  1.00  0.00    -0.135 NA
ENDROOT
BRANCH   1  12
HETATM   12  C   UNL     1     -42.580  60.199 -55.777  1.00  0.00     0.100 C 
BRANCH  12  13
HETATM   13  C   UNL     1     -41.945  59.417 -56.934  1.00  0.00     0.130 C 
BRANCH  13  14
HETATM   14  N   UNL     1     -42.813  59.264 -58.095  1.00  0.00    -0.360 N 
HETATM   15  C   UNL     1     -43.174  58.036 -58.588  1.00  0.00     0.223 C 
HETATM   16  O   UNL     1     -43.019  56.977 -57.983  1.00  0.00    -0.273 OA
HETATM   17  H   UNL     1     -42.883  60.077 -58.700  1.00  0.00     0.162 HD
BRANCH  15  18
HETATM   18  C   UNL     1     -43.888  58.074 -59.933  1.00  0.00     0.103 C 
HETATM   19  C   UNL     1     -44.051  56.651 -60.470  1.00  0.00     0.248 C 
HETATM   20  N   UNL     1     -45.054  55.878 -59.639  1.00  0.00    -0.074 N 
HETATM   21  C   UNL     1     -45.137  54.437 -60.052  1.00  0.00     0.269 C 
HETATM   22  H   UNL     1     -44.666  55.882 -58.676  1.00  0.00     0.279 HD
HETATM   23  C   UNL     1     -46.406  56.538 -59.605  1.00  0.00     0.234 C 
HETATM   24  C   UNL     1     -46.270  57.948 -59.046  1.00  0.00     0.029 C 
HETATM   25  C   UNL     1     -45.240  58.784 -59.810  1.00  0.00     0.017 C 
ENDBRANCH  15  18
ENDBRANCH  13  14
ENDBRANCH  12  13
ENDBRANCH   1  12
BRANCH   6  26
HETATM   26  C   UNL     1     -41.200  57.138 -50.604  1.00  0.00     0.273 C 
BRANCH  26  27
HETATM   27  C   UNL     1     -40.972  55.800 -51.247  1.00  0.00    -0.033 A 
HETATM   28  C   UNL     1     -40.706  54.671 -50.463  1.00  0.00     0.010 A 
HETATM   29  C   UNL     1     -40.466  53.432 -51.065  1.00  0.00     0.015 A 
HETATM   30  C   UNL     1     -40.488  53.285 -52.459  1.00  0.00    -0.002 A 
HETATM   31  C   UNL     1     -40.761  54.418 -53.237  1.00  0.00     0.015 A 
HETATM   32  C   UNL     1     -40.996  55.663 -52.642  1.00  0.00     0.010 A 
BRANCH  30  33
HETATM   33  C   UNL     1     -40.244  51.988 -53.085  1.00  0.00     0.085 A 
HETATM   34  O   UNL     1     -39.754  51.008 -52.267  1.00  0.00    -0.322 OA
HETATM   35  C   UNL     1     -39.592  49.891 -53.019  1.00  0.00     0.142 A 
HETATM   36  C   UNL     1     -39.967  50.130 -54.318  1.00  0.00     0.027 A 
HETATM   37  C   UNL     1     -40.387  51.483 -54.364  1.00  0.00     0.040 A 
ENDBRANCH  30  33
ENDBRANCH  26  27
ENDBRANCH   6  26
TORSDOF 7
ENDMDL
MODEL 2
REMARK VINA RESULT:      -8.6      4.273      7.926
REMARK  7 active torsions:
REMARK  status: ('A' for Active; 'I' for Inactive)
REMARK    1  A    between atoms: C_5  and  C_6 
REMARK       I    between atoms: C_6  and  N_7 
REMARK    2  A    between atoms: N_7  and  C_8 
REMARK    3  A    between atoms: C_8  and  C_9 
REMARK    4  A    between atoms: C_9  and  C_10 
REMARK    5  A    between atoms: N_15  and  C_17 
REMARK    6  A    between atoms: C_17  and  C_18 
REMARK    7  A    between atoms: C_21  and  C_22 
ROOT
HETATM    1  C   UNL     1     -44.328  61.393 -51.394  1.00  0.00     0.131 A 
HETATM    2  N   UNL     1     -44.072  60.131 -51.884  1.00  0.00    -0.319 N 
HETATM    3  C   UNL     1     -44.851  59.996 -53.009  1.00  0.00     0.131 A 
HETATM    4  C   UNL     1     -44.886  58.834 -53.938  1.00  0.00     0.108 C 
HETATM    5  C   UNL     1     -43.491  58.311 -54.256  1.00  0.00     0.243 C 
HETATM    6  N   UNL     1     -42.946  57.395 -53.160  1.00  0.00    -0.065 N 
HETATM    7  H   UNL     1     -43.353  56.471 -53.362  1.00  0.00     0.280 HD
HETATM    8  C   UNL     1     -43.366  57.723 -51.737  1.00  0.00     0.255 C 
HETATM    9  C   UNL     1     -43.128  59.180 -51.340  1.00  0.00     0.159 C 
HETATM   10  N   UNL     1     -45.560  61.090 -53.162  1.00  0.00    -0.135 NA
HETATM   11  N   UNL     1     -45.231  61.959 -52.164  1.00  0.00    -0.135 NA
ENDROOT
BRANCH   1  12
HETATM   12  C   UNL     1     -43.665  62.038 -50.220  1.00  0.00     0.100 C 
BRANCH  12  13
HETATM   13  C   UNL     1     -44.489  63.222 -49.697  1.00  0.00     0.130 C 
BRANCH  13  14
HETATM   14  N   UNL     1     -44.903  63.089 -48.305  1.00  0.00    -0.360 N 
HETATM   15  C   UNL     1     -45.857  62.189 -47.904  1.00  0.00     0.223 C 
HETATM   16  O   UNL     1     -46.268  61.263 -48.601  1.00  0.00    -0.273 OA
HETATM   17  H   UNL     1     -44.693  63.883 -47.707  1.00  0.00     0.162 HD
BRANCH  15  18
HETATM   18  C   UNL     1     -46.322  62.354 -46.463  1.00  0.00     0.103 C 
HETATM   19  C   UNL     1     -47.213  61.173 -46.071  1.00  0.00     0.248 C 
HETATM   20  N   UNL     1     -46.397  59.902 -45.961  1.00  0.00    -0.074 N 
HETATM   21  C   UNL     1     -47.259  58.697 -45.714  1.00  0.00     0.269 C 
HETATM   22  H   UNL     1     -45.977  59.769 -46.901  1.00  0.00     0.279 HD
HETATM   23  C   UNL     1     -45.281  60.018 -44.959  1.00  0.00     0.234 C 
HETATM   24  C   UNL     1     -44.365  61.171 -45.346  1.00  0.00     0.029 C 
HETATM   25  C   UNL     1     -45.124  62.489 -45.517  1.00  0.00     0.017 C 
ENDBRANCH  15  18
ENDBRANCH  13  14
ENDBRANCH  12  13
ENDBRANCH   1  12
BRANCH   6  26
HETATM   26  C   UNL     1     -41.443  57.176 -53.293  1.00  0.00     0.273 C 
BRANCH  26  27
HETATM   27  C   UNL     1     -41.059  55.725 -53.341  1.00  0.00    -0.033 A 
HETATM   28  C   UNL     1     -40.663  55.133 -54.547  1.00  0.00     0.010 A 
HETATM   29  C   UNL     1     -40.333  53.775 -54.594  1.00  0.00     0.015 A 
HETATM   30  C   UNL     1     -40.385  52.975 -53.445  1.00  0.00    -0.002 A 
HETATM   31  C   UNL     1     -40.776  53.574 -52.241  1.00  0.00     0.015 A 
HETATM   32  C   UNL     1     -41.113  54.931 -52.186  1.00  0.00     0.010 A 
BRANCH  30  33
HETATM   33  C   UNL     1     -40.033  51.558 -53.496  1.00  0.00     0.085 A 
HETATM   34  O   UNL     1     -39.804  50.952 -52.291  1.00  0.00    -0.322 OA
HETATM   35  C   UNL     1     -39.493  49.654 -52.539  1.00  0.00     0.142 A 
HETATM   36  C   UNL     1     -39.514  49.408 -53.890  1.00  0.00     0.027 A 
HETATM   37  C   UNL     1     -39.860  50.634 -54.509  1.00  0.00     0.040 A 
ENDBRANCH  30  33
ENDBRANCH  26  27
ENDBRANCH   6  26
TORSDOF 7
ENDMDL
MODEL 3
REMARK VINA RESULT:      -8.6      1.728      2.153
REMARK  7 active torsions:
REMARK  status: ('A' for Active; 'I' for Inactive)
REMARK    1  A    between atoms: C_5  and  C_6 
REMARK       I    between atoms: C_6  and  N_7 
REMARK    2  A    between atoms: N_7  and  C_8 
REMARK    3  A    between atoms: C_8  and  C_9 
REMARK    4  A    between atoms: C_9  and  C_10 
REMARK    5  A    between atoms: N_15  and  C_17 
REMARK    6  A    between atoms: C_17  and  C_18 
REMARK    7  A    between atoms: C_21  and  C_22 
ROOT
HETATM    1  C   UNL     1     -44.476  60.881 -56.496  1.00  0.00     0.131 A 
HETATM    2  N   UNL     1     -44.142  59.932 -55.554  1.00  0.00    -0.319 N 
HETATM    3  C   UNL     1     -45.017  58.889 -55.739  1.00  0.00     0.131 A 
HETATM    4  C   UNL     1     -45.028  57.591 -55.012  1.00  0.00     0.108 C 
HETATM    5  C   UNL     1     -43.628  57.016 -54.841  1.00  0.00     0.243 C 
HETATM    6  N   UNL     1     -42.875  57.647 -53.669  1.00  0.00    -0.065 N 
HETATM    7  H   UNL     1     -43.203  57.132 -52.839  1.00  0.00     0.280 HD
HETATM    8  C   UNL     1     -43.175  59.109 -53.385  1.00  0.00     0.255 C 
HETATM    9  C   UNL     1     -43.051  60.017 -54.609  1.00  0.00     0.159 C 
HETATM   10  N   UNL     1     -45.850  59.206 -56.703  1.00  0.00    -0.135 NA
HETATM   11  N   UNL     1     -45.511  60.439 -57.177  1.00  0.00    -0.135 NA
ENDROOT
BRANCH   1  12
HETATM   12  C   UNL     1     -43.764  62.171 -56.745  1.00  0.00     0.100 C 
BRANCH  12  13
HETATM   13  C   UNL     1     -42.523  61.962 -57.623  1.00  0.00     0.130 C 
BRANCH  13  14
HETATM   14  N   UNL     1     -42.755  61.119 -58.789  1.00  0.00    -0.360 N 
HETATM   15  C   UNL     1     -42.239  59.853 -58.897  1.00  0.00     0.223 C 
HETATM   16  O   UNL     1     -41.756  59.222 -57.958  1.00  0.00    -0.273 OA
HETATM   17  H   UNL     1     -43.042  61.607 -59.633  1.00  0.00     0.162 HD
BRANCH  15  18
HETATM   18  C   UNL     1     -42.390  59.218 -60.274  1.00  0.00     0.103 C 
HETATM   19  C   UNL     1     -42.282  57.697 -60.154  1.00  0.00     0.248 C 
HETATM   20  N   UNL     1     -43.493  57.129 -59.446  1.00  0.00    -0.074 N 
HETATM   21  C   UNL     1     -43.358  55.656 -59.187  1.00  0.00     0.269 C 
HETATM   22  H   UNL     1     -43.500  57.587 -58.514  1.00  0.00     0.279 HD
HETATM   23  C   UNL     1     -44.782  57.467 -60.146  1.00  0.00     0.234 C 
HETATM   24  C   UNL     1     -44.923  58.979 -60.251  1.00  0.00     0.029 C 
HETATM   25  C   UNL     1     -43.714  59.635 -60.921  1.00  0.00     0.017 C 
ENDBRANCH  15  18
ENDBRANCH  13  14
ENDBRANCH  12  13
ENDBRANCH   1  12
BRANCH   6  26
HETATM   26  C   UNL     1     -41.381  57.353 -53.724  1.00  0.00     0.273 C 
BRANCH  26  27
HETATM   27  C   UNL     1     -41.065  55.885 -53.684  1.00  0.00    -0.033 A 
HETATM   28  C   UNL     1     -41.302  55.137 -52.524  1.00  0.00     0.010 A 
HETATM   29  C   UNL     1     -40.981  53.777 -52.481  1.00  0.00     0.015 A 
HETATM   30  C   UNL     1     -40.423  53.127 -53.590  1.00  0.00    -0.002 A 
HETATM   31  C   UNL     1     -40.194  53.880 -54.749  1.00  0.00     0.015 A 
HETATM   32  C   UNL     1     -40.507  55.243 -54.798  1.00  0.00     0.010 A 
BRANCH  30  33
HETATM   33  C   UNL     1     -40.094  51.705 -53.545  1.00  0.00     0.085 A 
HETATM   34  O   UNL     1     -39.705  51.216 -52.328  1.00  0.00    -0.322 OA
HETATM   35  C   UNL     1     -39.444  49.893 -52.484  1.00  0.00     0.142 A 
HETATM   36  C   UNL     1     -39.656  49.514 -53.786  1.00  0.00     0.027 A 
HETATM   37  C   UNL     1     -40.074  50.681 -54.473  1.00  0.00     0.040 A 
ENDBRANCH  30  33
ENDBRANCH  26  27
ENDBRANCH   6  26
TORSDOF 7
ENDMDL
MODEL 4
REMARK VINA RESULT:      -8.5      2.021      2.998
REMARK  7 active torsions:
REMARK  status: ('A' for Active; 'I' for Inactive)
REMARK    1  A    between atoms: C_5  and  C_6 
REMARK       I    between atoms: C_6  and  N_7 
REMARK    2  A    between atoms: N_7  and  C_8 
REMARK    3  A    between atoms: C_8  and  C_9 
REMARK    4  A    between atoms: C_9  and  C_10 
REMARK    5  A    between atoms: N_15  and  C_17 
REMARK    6  A    between atoms: C_17  and  C_18 
REMARK    7  A    between atoms: C_21  and  C_22 
ROOT
HETATM    1  C   UNL     1     -44.249  61.784 -53.369  1.00  0.00     0.131 A 
HETATM    2  N   UNL     1     -43.675  60.576 -53.034  1.00  0.00    -0.319 N 
HETATM    3  C   UNL     1     -44.707  59.764 -52.630  1.00  0.00     0.131 A 
HETATM    4  C   UNL     1     -44.616  58.333 -52.230  1.00  0.00     0.108 C 
HETATM    5  C   UNL     1     -43.714  57.533 -53.161  1.00  0.00     0.243 C 
HETATM    6  N   UNL     1     -42.231  57.704 -52.828  1.00  0.00    -0.065 N 
HETATM    7  H   UNL     1     -42.055  57.036 -52.062  1.00  0.00     0.280 HD
HETATM    8  C   UNL     1     -41.813  59.061 -52.289  1.00  0.00     0.255 C 
HETATM    9  C   UNL     1     -42.273  60.238 -53.149  1.00  0.00     0.159 C 
HETATM   10  N   UNL     1     -45.825  60.450 -52.679  1.00  0.00    -0.135 NA
HETATM   11  N   UNL     1     -45.542  61.701 -53.142  1.00  0.00    -0.135 NA
ENDROOT
BRANCH   1  12
HETATM   12  C   UNL     1     -43.544  62.972 -53.936  1.00  0.00     0.100 C 
BRANCH  12  13
HETATM   13  C   UNL     1     -43.754  63.073 -55.453  1.00  0.00     0.130 C 
BRANCH  13  14
HETATM   14  N   UNL     1     -42.758  62.356 -56.240  1.00  0.00    -0.360 N 
HETATM   15  C   UNL     1     -42.952  61.070 -56.677  1.00  0.00     0.223 C 
HETATM   16  O   UNL     1     -44.039  60.496 -56.671  1.00  0.00    -0.273 OA
HETATM   17  H   UNL     1     -41.812  62.720 -56.186  1.00  0.00     0.162 HD
BRANCH  15  18
HETATM   18  C   UNL     1     -41.718  60.409 -57.279  1.00  0.00     0.103 C 
HETATM   19  C   UNL     1     -42.067  58.994 -57.744  1.00  0.00     0.248 C 
HETATM   20  N   UNL     1     -42.981  59.038 -58.949  1.00  0.00    -0.074 N 
HETATM   21  C   UNL     1     -43.456  57.670 -59.349  1.00  0.00     0.269 C 
HETATM   22  H   UNL     1     -43.824  59.554 -58.631  1.00  0.00     0.279 HD
HETATM   23  C   UNL     1     -42.377  59.789 -60.105  1.00  0.00     0.234 C 
HETATM   24  C   UNL     1     -42.047  61.211 -59.671  1.00  0.00     0.029 C 
HETATM   25  C   UNL     1     -41.157  61.252 -58.428  1.00  0.00     0.017 C 
ENDBRANCH  15  18
ENDBRANCH  13  14
ENDBRANCH  12  13
ENDBRANCH   1  12
BRANCH   6  26
HETATM   26  C   UNL     1     -41.331  57.217 -53.958  1.00  0.00     0.273 C 
BRANCH  26  27
HETATM   27  C   UNL     1     -41.008  55.753 -53.868  1.00  0.00    -0.033 A 
HETATM   28  C   UNL     1     -41.122  55.073 -52.650  1.00  0.00     0.010 A 
HETATM   29  C   UNL     1     -40.794  53.716 -52.564  1.00  0.00     0.015 A 
HETATM   30  C   UNL     1     -40.350  53.003 -53.686  1.00  0.00    -0.002 A 
HETATM   31  C   UNL     1     -40.245  53.689 -54.903  1.00  0.00     0.015 A 
HETATM   32  C   UNL     1     -40.566  55.048 -54.996  1.00  0.00     0.010 A 
BRANCH  30  33
HETATM   33  C   UNL     1     -40.015  51.585 -53.595  1.00  0.00     0.085 A 
HETATM   34  O   UNL     1     -39.818  51.093 -52.334  1.00  0.00    -0.322 OA
HETATM   35  C   UNL     1     -39.518  49.775 -52.451  1.00  0.00     0.142 A 
HETATM   36  C   UNL     1     -39.514  49.401 -53.773  1.00  0.00     0.027 A 
HETATM   37  C   UNL     1     -39.832  50.567 -54.513  1.00  0.00     0.040 A 
ENDBRANCH  30  33
ENDBRANCH  26  27
ENDBRANCH   6  26
TORSDOF 7
ENDMDL
MODEL 5
REMARK VINA RESULT:      -8.4      2.089      3.064
REMARK  7 active torsions:
REMARK  status: ('A' for Active; 'I' for Inactive)
REMARK    1  A    between atoms: C_5  and  C_6 
REMARK       I    between atoms: C_6  and  N_7 
REMARK    2  A    between atoms: N_7  and  C_8 
REMARK    3  A    between atoms: C_8  and  C_9 
REMARK    4  A    between atoms: C_9  and  C_10 
REMARK    5  A    between atoms: N_15  and  C_17 
REMARK    6  A    between atoms: C_17  and  C_18 
REMARK    7  A    between atoms: C_21  and  C_22 
ROOT
HETATM    1  C   UNL     1     -45.362  60.960 -52.550  1.00  0.00     0.131 A 
HETATM    2  N   UNL     1     -44.423  59.995 -52.254  1.00  0.00    -0.319 N 
HETATM    3  C   UNL     1     -45.093  59.012 -51.565  1.00  0.00     0.131 A 
HETATM    4  C   UNL     1     -44.536  57.721 -51.080  1.00  0.00     0.108 C 
HETATM    5  C   UNL     1     -43.644  57.054 -52.119  1.00  0.00     0.243 C 
HETATM    6  N   UNL     1     -42.231  57.637 -52.139  1.00  0.00    -0.065 N 
HETATM    7  H   UNL     1     -41.734  57.149 -51.380  1.00  0.00     0.280 HD
HETATM    8  C   UNL     1     -42.108  59.117 -51.820  1.00  0.00     0.255 C 
HETATM    9  C   UNL     1     -43.032  60.009 -52.649  1.00  0.00     0.159 C 
HETATM   10  N   UNL     1     -46.344  59.381 -51.420  1.00  0.00    -0.135 NA
HETATM   11  N   UNL     1     -46.513  60.586 -52.035  1.00  0.00    -0.135 NA
ENDROOT
BRANCH   1  12
HETATM   12  C   UNL     1     -45.136  62.198 -53.355  1.00  0.00     0.100 C 
BRANCH  12  13
HETATM   13  C   UNL     1     -45.945  62.170 -54.658  1.00  0.00     0.130 C 
BRANCH  13  14
HETATM   14  N   UNL     1     -46.045  60.850 -55.268  1.00  0.00    -0.360 N 
HETATM   15  C   UNL     1     -45.337  60.502 -56.391  1.00  0.00     0.223 C 
HETATM   16  O   UNL     1     -44.393  61.150 -56.839  1.00  0.00    -0.273 OA
HETATM   17  H   UNL     1     -46.873  60.315 -55.023  1.00  0.00     0.162 HD
BRANCH  15  18
HETATM   18  C   UNL     1     -45.743  59.172 -57.013  1.00  0.00     0.103 C 
HETATM   19  C   UNL     1     -44.801  58.836 -58.171  1.00  0.00     0.248 C 
HETATM   20  N   UNL     1     -43.419  58.497 -57.654  1.00  0.00    -0.074 N 
HETATM   21  C   UNL     1     -42.433  58.298 -58.769  1.00  0.00     0.269 C 
HETATM   22  H   UNL     1     -43.107  59.344 -57.141  1.00  0.00     0.279 HD
HETATM   23  C   UNL     1     -43.430  57.340 -56.692  1.00  0.00     0.234 C 
HETATM   24  C   UNL     1     -44.341  57.665 -55.516  1.00  0.00     0.029 C 
HETATM   25  C   UNL     1     -45.751  58.059 -55.959  1.00  0.00     0.017 C 
ENDBRANCH  15  18
ENDBRANCH  13  14
ENDBRANCH  12  13
ENDBRANCH   1  12
BRANCH   6  26
HETATM   26  C   UNL     1     -41.466  57.242 -53.397  1.00  0.00     0.273 C 
BRANCH  26  27
HETATM   27  C   UNL     1     -41.081  55.791 -53.424  1.00  0.00    -0.033 A 
HETATM   28  C   UNL     1     -40.729  55.171 -54.629  1.00  0.00     0.010 A 
HETATM   29  C   UNL     1     -40.398  53.812 -54.656  1.00  0.00     0.015 A 
HETATM   30  C   UNL     1     -40.405  53.040 -53.486  1.00  0.00    -0.002 A 
HETATM   31  C   UNL     1     -40.752  53.668 -52.283  1.00  0.00     0.015 A 
HETATM   32  C   UNL     1     -41.091  55.026 -52.249  1.00  0.00     0.010 A 
BRANCH  30  33
HETATM   33  C   UNL     1     -40.052  51.623 -53.516  1.00  0.00     0.085 A 
HETATM   34  O   UNL     1     -39.756  51.052 -52.308  1.00  0.00    -0.322 OA
HETATM   35  C   UNL     1     -39.455  49.749 -52.535  1.00  0.00     0.142 A 
HETATM   36  C   UNL     1     -39.549  49.463 -53.875  1.00  0.00     0.027 A 
HETATM   37  C   UNL     1     -39.932  50.670 -54.510  1.00  0.00     0.040 A 
ENDBRANCH  30  33
ENDBRANCH  26  27
ENDBRANCH   6  26
TORSDOF 7
ENDMDL
MODEL 6
REMARK VINA RESULT:      -8.2      4.041      6.991
REMARK  7 active torsions:
REMARK  status: ('A' for Active; 'I' for Inactive)
REMARK    1  A    between atoms: C_5  and  C_6 
REMARK       I    between atoms: C_6  and  N_7 
REMARK    2  A    between atoms: N_7  and  C_8 
REMARK    3  A    between atoms: C_8  and  C_9 
REMARK    4  A    between atoms: C_9  and  C_10 
REMARK    5  A    between atoms: N_15  and  C_17 
REMARK    6  A    between atoms: C_17  and  C_18 
REMARK    7  A    between atoms: C_21  and  C_22 
ROOT
HETATM    1  C   UNL     1     -44.473  61.670 -53.281  1.00  0.00     0.131 A 
HETATM    2  N   UNL     1     -43.852  60.489 -52.937  1.00  0.00    -0.319 N 
HETATM    3  C   UNL     1     -44.848  59.649 -52.499  1.00  0.00     0.131 A 
HETATM    4  C   UNL     1     -44.701  58.230 -52.077  1.00  0.00     0.108 C 
HETATM    5  C   UNL     1     -43.789  57.445 -53.011  1.00  0.00     0.243 C 
HETATM    6  N   UNL     1     -42.307  57.671 -52.709  1.00  0.00    -0.065 N 
HETATM    7  H   UNL     1     -42.095  57.023 -51.936  1.00  0.00     0.280 HD
HETATM    8  C   UNL     1     -41.926  59.051 -52.202  1.00  0.00     0.255 C 
HETATM    9  C   UNL     1     -42.442  60.196 -53.073  1.00  0.00     0.159 C 
HETATM   10  N   UNL     1     -45.989  60.297 -52.538  1.00  0.00    -0.135 NA
HETATM   11  N   UNL     1     -45.758  61.548 -53.028  1.00  0.00    -0.135 NA
ENDROOT
BRANCH   1  12
HETATM   12  C   UNL     1     -43.820  62.872 -53.882  1.00  0.00     0.100 C 
BRANCH  12  13
HETATM   13  C   UNL     1     -43.851  64.064 -52.917  1.00  0.00     0.130 C 
BRANCH  13  14
HETATM   14  N   UNL     1     -43.801  63.690 -51.509  1.00  0.00    -0.360 N 
HETATM   15  C   UNL     1     -44.737  64.114 -50.600  1.00  0.00     0.223 C 
HETATM   16  O   UNL     1     -45.813  64.625 -50.906  1.00  0.00    -0.273 OA
HETATM   17  H   UNL     1     -42.897  63.371 -51.171  1.00  0.00     0.162 HD
BRANCH  15  18
HETATM   18  C   UNL     1     -44.394  63.818 -49.146  1.00  0.00     0.103 C 
HETATM   19  C   UNL     1     -45.483  64.387 -48.234  1.00  0.00     0.248 C 
HETATM   20  N   UNL     1     -46.770  63.604 -48.386  1.00  0.00    -0.074 N 
HETATM   21  C   UNL     1     -47.899  64.218 -47.610  1.00  0.00     0.269 C 
HETATM   22  H   UNL     1     -47.024  63.695 -49.389  1.00  0.00     0.279 HD
HETATM   23  C   UNL     1     -46.596  62.142 -48.076  1.00  0.00     0.234 C 
HETATM   24  C   UNL     1     -45.536  61.549 -48.993  1.00  0.00     0.029 C 
HETATM   25  C   UNL     1     -44.212  62.312 -48.927  1.00  0.00     0.017 C 
ENDBRANCH  15  18
ENDBRANCH  13  14
ENDBRANCH  12  13
ENDBRANCH   1  12
BRANCH   6  26
HETATM   26  C   UNL     1     -41.413  57.195 -53.848  1.00  0.00     0.273 C 
BRANCH  26  27
HETATM   27  C   UNL     1     -41.030  55.747 -53.735  1.00  0.00    -0.033 A 
HETATM   28  C   UNL     1     -40.560  55.046 -54.851  1.00  0.00     0.010 A 
HETATM   29  C   UNL     1     -40.231  53.691 -54.750  1.00  0.00     0.015 A 
HETATM   30  C   UNL     1     -40.358  53.002 -53.536  1.00  0.00    -0.002 A 
HETATM   31  C   UNL     1     -40.823  53.711 -52.421  1.00  0.00     0.015 A 
HETATM   32  C   UNL     1     -41.160  55.066 -52.516  1.00  0.00     0.010 A 
BRANCH  30  33
HETATM   33  C   UNL     1     -40.007  51.588 -53.430  1.00  0.00     0.085 A 
HETATM   34  O   UNL     1     -39.798  51.113 -52.165  1.00  0.00    -0.322 OA
HETATM   35  C   UNL     1     -39.485  49.797 -52.269  1.00  0.00     0.142 A 
HETATM   36  C   UNL     1     -39.485  49.408 -53.585  1.00  0.00     0.027 A 
HETATM   37  C   UNL     1     -39.820  50.562 -54.337  1.00  0.00     0.040 A 
ENDBRANCH  30  33
ENDBRANCH  26  27
ENDBRANCH   6  26
TORSDOF 7
ENDMDL
MODEL 7
REMARK VINA RESULT:      -8.0      2.724      8.035
REMARK  7 active torsions:
REMARK  status: ('A' for Active; 'I' for Inactive)
REMARK    1  A    between atoms: C_5  and  C_6 
REMARK       I    between atoms: C_6  and  N_7 
REMARK    2  A    between atoms: N_7  and  C_8 
REMARK    3  A    between atoms: C_8  and  C_9 
REMARK    4  A    between atoms: C_9  and  C_10 
REMARK    5  A    between atoms: N_15  and  C_17 
REMARK    6  A    between atoms: C_17  and  C_18 
REMARK    7  A    between atoms: C_21  and  C_22 
ROOT
HETATM    1  C   UNL     1     -40.874  53.847 -50.538  1.00  0.00     0.131 A 
HETATM    2  N   UNL     1     -40.873  53.932 -51.914  1.00  0.00    -0.319 N 
HETATM    3  C   UNL     1     -40.284  52.776 -52.365  1.00  0.00     0.131 A 
HETATM    4  C   UNL     1     -40.104  52.357 -53.782  1.00  0.00     0.108 C 
HETATM    5  C   UNL     1     -41.349  52.619 -54.620  1.00  0.00     0.243 C 
HETATM    6  N   UNL     1     -41.450  54.074 -55.080  1.00  0.00    -0.065 N 
HETATM    7  H   UNL     1     -40.856  54.125 -55.921  1.00  0.00     0.280 HD
HETATM    8  C   UNL     1     -40.898  55.121 -54.128  1.00  0.00     0.255 C 
HETATM    9  C   UNL     1     -41.435  55.007 -52.701  1.00  0.00     0.159 C 
HETATM   10  N   UNL     1     -39.917  52.059 -51.328  1.00  0.00    -0.135 NA
HETATM   11  N   UNL     1     -40.289  52.720 -50.195  1.00  0.00    -0.135 NA
ENDROOT
BRANCH   1  12
HETATM   12  C   UNL     1     -41.477  54.832 -49.590  1.00  0.00     0.100 C 
BRANCH  12  13
HETATM   13  C   UNL     1     -40.967  56.253 -49.866  1.00  0.00     0.130 C 
BRANCH  13  14
HETATM   14  N   UNL     1     -42.019  57.207 -50.200  1.00  0.00    -0.360 N 
HETATM   15  C   UNL     1     -41.815  58.255 -51.061  1.00  0.00     0.223 C 
HETATM   16  O   UNL     1     -40.843  58.357 -51.807  1.00  0.00    -0.273 OA
HETATM   17  H   UNL     1     -42.795  57.250 -49.547  1.00  0.00     0.162 HD
BRANCH  15  18
HETATM   18  C   UNL     1     -42.949  59.271 -51.106  1.00  0.00     0.103 C 
HETATM   19  C   UNL     1     -42.679  60.295 -52.211  1.00  0.00     0.248 C 
HETATM   20  N   UNL     1     -42.817  59.655 -53.576  1.00  0.00    -0.074 N 
HETATM   21  C   UNL     1     -42.425  60.593 -54.682  1.00  0.00     0.269 C 
HETATM   22  H   UNL     1     -42.118  58.888 -53.587  1.00  0.00     0.279 HD
HETATM   23  C   UNL     1     -44.179  59.055 -53.798  1.00  0.00     0.234 C 
HETATM   24  C   UNL     1     -44.457  58.012 -52.724  1.00  0.00     0.029 C 
HETATM   25  C   UNL     1     -44.297  58.572 -51.309  1.00  0.00     0.017 C 
ENDBRANCH  15  18
ENDBRANCH  13  14
ENDBRANCH  12  13
ENDBRANCH   1  12
BRANCH   6  26
HETATM   26  C   UNL     1     -42.845  54.418 -55.588  1.00  0.00     0.273 C 
BRANCH  26  27
HETATM   27  C   UNL     1     -42.849  55.532 -56.596  1.00  0.00    -0.033 A 
HETATM   28  C   UNL     1     -43.170  55.279 -57.935  1.00  0.00     0.010 A 
HETATM   29  C   UNL     1     -43.146  56.313 -58.876  1.00  0.00     0.015 A 
HETATM   30  C   UNL     1     -42.808  57.622 -58.508  1.00  0.00    -0.002 A 
HETATM   31  C   UNL     1     -42.494  57.869 -57.166  1.00  0.00     0.015 A 
HETATM   32  C   UNL     1     -42.510  56.839 -56.219  1.00  0.00     0.010 A 
BRANCH  30  33
HETATM   33  C   UNL     1     -42.790  58.701 -59.492  1.00  0.00     0.085 A 
HETATM   34  O   UNL     1     -43.812  58.703 -60.402  1.00  0.00    -0.322 OA
HETATM   35  C   UNL     1     -43.626  59.766 -61.223  1.00  0.00     0.142 A 
HETATM   36  C   UNL     1     -42.496  60.457 -60.863  1.00  0.00     0.027 A 
HETATM   37  C   UNL     1     -41.954  59.772 -59.747  1.00  0.00     0.040 A 
ENDBRANCH  30  33
ENDBRANCH  26  27
ENDBRANCH   6  26
TORSDOF 7
ENDMDL
MODEL 8
REMARK VINA RESULT:      -7.9      3.908      7.574
REMARK  7 active torsions:
REMARK  status: ('A' for Active; 'I' for Inactive)
REMARK    1  A    between atoms: C_5  and  C_6 
REMARK       I    between atoms: C_6  and  N_7 
REMARK    2  A    between atoms: N_7  and  C_8 
REMARK    3  A    between atoms: C_8  and  C_9 
REMARK    4  A    between atoms: C_9  and  C_10 
REMARK    5  A    between atoms: N_15  and  C_17 
REMARK    6  A    between atoms: C_17  and  C_18 
REMARK    7  A    between atoms: C_21  and  C_22 
ROOT
HETATM    1  C   UNL     1     -41.599  54.096 -53.148  1.00  0.00     0.131 A 
HETATM    2  N   UNL     1     -41.956  55.131 -52.311  1.00  0.00    -0.319 N 
HETATM    3  C   UNL     1     -41.134  55.032 -51.214  1.00  0.00     0.131 A 
HETATM    4  C   UNL     1     -41.078  55.960 -50.052  1.00  0.00     0.108 C 
HETATM    5  C   UNL     1     -41.131  57.421 -50.480  1.00  0.00     0.243 C 
HETATM    6  N   UNL     1     -42.556  57.895 -50.768  1.00  0.00    -0.065 N 
HETATM    7  H   UNL     1     -42.944  58.137 -49.845  1.00  0.00     0.280 HD
HETATM    8  C   UNL     1     -43.505  56.861 -51.350  1.00  0.00     0.255 C 
HETATM    9  C   UNL     1     -42.956  56.139 -52.582  1.00  0.00     0.159 C 
HETATM   10  N   UNL     1     -40.361  53.982 -51.362  1.00  0.00    -0.135 NA
HETATM   11  N   UNL     1     -40.645  53.404 -52.564  1.00  0.00    -0.135 NA
ENDROOT
BRANCH   1  12
HETATM   12  C   UNL     1     -42.157  53.823 -54.507  1.00  0.00     0.100 C 
BRANCH  12  13
HETATM   13  C   UNL     1     -41.362  54.559 -55.594  1.00  0.00     0.130 C 
BRANCH  13  14
HETATM   14  N   UNL     1     -41.834  55.911 -55.864  1.00  0.00    -0.360 N 
HETATM   15  C   UNL     1     -42.669  56.203 -56.913  1.00  0.00     0.223 C 
HETATM   16  O   UNL     1     -43.285  55.358 -57.560  1.00  0.00    -0.273 OA
HETATM   17  H   UNL     1     -41.287  56.658 -55.448  1.00  0.00     0.162 HD
BRANCH  15  18
HETATM   18  C   UNL     1     -42.867  57.691 -57.174  1.00  0.00     0.103 C 
HETATM   19  C   UNL     1     -43.914  57.886 -58.273  1.00  0.00     0.248 C 
HETATM   20  N   UNL     1     -45.290  57.500 -57.774  1.00  0.00    -0.074 N 
HETATM   21  C   UNL     1     -46.320  57.547 -58.866  1.00  0.00     0.269 C 
HETATM   22  H   UNL     1     -45.208  56.503 -57.497  1.00  0.00     0.279 HD
HETATM   23  C   UNL     1     -45.709  58.292 -56.565  1.00  0.00     0.234 C 
HETATM   24  C   UNL     1     -44.694  58.089 -55.447  1.00  0.00     0.029 C 
HETATM   25  C   UNL     1     -43.266  58.420 -55.886  1.00  0.00     0.017 C 
ENDBRANCH  15  18
ENDBRANCH  13  14
ENDBRANCH  12  13
ENDBRANCH   1  12
BRANCH   6  26
HETATM   26  C   UNL     1     -42.576  59.211 -51.537  1.00  0.00     0.273 C 
BRANCH  26  27
HETATM   27  C   UNL     1     -43.696  60.121 -51.122  1.00  0.00    -0.033 A 
HETATM   28  C   UNL     1     -43.591  60.893 -49.959  1.00  0.00     0.010 A 
HETATM   29  C   UNL     1     -44.647  61.719 -49.559  1.00  0.00     0.015 A 
HETATM   30  C   UNL     1     -45.828  61.800 -50.308  1.00  0.00    -0.002 A 
HETATM   31  C   UNL     1     -45.925  61.030 -51.474  1.00  0.00     0.015 A 
HETATM   32  C   UNL     1     -44.875  60.197 -51.878  1.00  0.00     0.010 A 
BRANCH  30  33
HETATM   33  C   UNL     1     -46.927  62.669 -49.893  1.00  0.00     0.085 A 
HETATM   34  O   UNL     1     -47.254  62.631 -48.566  1.00  0.00    -0.322 OA
HETATM   35  C   UNL     1     -48.285  63.493 -48.374  1.00  0.00     0.142 A 
HETATM   36  C   UNL     1     -48.635  64.090 -49.560  1.00  0.00     0.027 A 
HETATM   37  C   UNL     1     -47.762  63.560 -50.541  1.00  0.00     0.040 A 
ENDBRANCH  30  33
ENDBRANCH  26  27
ENDBRANCH   6  26
TORSDOF 7
ENDMDL
MODEL 9
REMARK VINA RESULT:      -7.9      1.584      2.310
REMARK  7 active torsions:
REMARK  status: ('A' for Active; 'I' for Inactive)
REMARK    1  A    between atoms: C_5  and  C_6 
REMARK       I    between atoms: C_6  and  N_7 
REMARK    2  A    between atoms: N_7  and  C_8 
REMARK    3  A    between atoms: C_8  and  C_9 
REMARK    4  A    between atoms: C_9  and  C_10 
REMARK    5  A    between atoms: N_15  and  C_17 
REMARK    6  A    between atoms: C_17  and  C_18 
REMARK    7  A    between atoms: C_21  and  C_22 
ROOT
HETATM    1  C   UNL     1     -43.087  61.325 -55.171  1.00  0.00     0.131 A 
HETATM    2  N   UNL     1     -42.679  60.298 -54.348  1.00  0.00    -0.319 N 
HETATM    3  C   UNL     1     -42.587  60.836 -53.087  1.00  0.00     0.131 A 
HETATM    4  C   UNL     1     -42.247  60.115 -51.830  1.00  0.00     0.108 C 
HETATM    5  C   UNL     1     -42.960  58.773 -51.727  1.00  0.00     0.243 C 
HETATM    6  N   UNL     1     -42.259  57.674 -52.526  1.00  0.00    -0.065 N 
HETATM    7  H   UNL     1     -41.507  57.338 -51.906  1.00  0.00     0.280 HD
HETATM    8  C   UNL     1     -41.567  58.110 -53.806  1.00  0.00     0.255 C 
HETATM    9  C   UNL     1     -42.456  58.925 -54.745  1.00  0.00     0.159 C 
HETATM   10  N   UNL     1     -42.880  62.113 -53.154  1.00  0.00    -0.135 NA
HETATM   11  N   UNL     1     -43.196  62.416 -54.445  1.00  0.00    -0.135 NA
ENDROOT
BRANCH   1  12
HETATM   12  C   UNL     1     -43.402  61.221 -56.628  1.00  0.00     0.100 C 
BRANCH  12  13
HETATM   13  C   UNL     1     -44.776  60.578 -56.857  1.00  0.00     0.130 C 
BRANCH  13  14
HETATM   14  N   UNL     1     -44.947  59.999 -58.184  1.00  0.00    -0.360 N 
HETATM   15  C   UNL     1     -44.644  58.690 -58.461  1.00  0.00     0.223 C 
HETATM   16  O   UNL     1     -44.442  57.832 -57.603  1.00  0.00    -0.273 OA
HETATM   17  H   UNL     1     -45.000  60.664 -58.949  1.00  0.00     0.162 HD
BRANCH  15  18
HETATM   18  C   UNL     1     -44.666  58.330 -59.941  1.00  0.00     0.103 C 
HETATM   19  C   UNL     1     -44.080  56.931 -60.140  1.00  0.00     0.248 C 
HETATM   20  N   UNL     1     -45.011  55.878 -59.579  1.00  0.00    -0.074 N 
HETATM   21  C   UNL     1     -44.406  54.504 -59.632  1.00  0.00     0.269 C 
HETATM   22  H   UNL     1     -45.108  56.112 -58.572  1.00  0.00     0.279 HD
HETATM   23  C   UNL     1     -46.378  55.921 -60.207  1.00  0.00     0.234 C 
HETATM   24  C   UNL     1     -46.992  57.298 -59.996  1.00  0.00     0.029 C 
HETATM   25  C   UNL     1     -46.089  58.425 -60.502  1.00  0.00     0.017 C 
ENDBRANCH  15  18
ENDBRANCH  13  14
ENDBRANCH  12  13
ENDBRANCH   1  12
BRANCH   6  26
HETATM   26  C   UNL     1     -43.150  56.454 -52.725  1.00  0.00     0.273 C 
BRANCH  26  27
HETATM   27  C   UNL     1     -42.376  55.179 -52.898  1.00  0.00    -0.033 A 
HETATM   28  C   UNL     1     -42.551  54.390 -54.041  1.00  0.00     0.010 A 
HETATM   29  C   UNL     1     -41.850  53.188 -54.187  1.00  0.00     0.015 A 
HETATM   30  C   UNL     1     -40.957  52.746 -53.202  1.00  0.00    -0.002 A 
HETATM   31  C   UNL     1     -40.782  53.542 -52.064  1.00  0.00     0.015 A 
HETATM   32  C   UNL     1     -41.484  54.743 -51.908  1.00  0.00     0.010 A 
BRANCH  30  33
HETATM   33  C   UNL     1     -40.221  51.494 -53.359  1.00  0.00     0.085 A 
HETATM   34  O   UNL     1     -40.193  50.967 -54.621  1.00  0.00    -0.322 OA
HETATM   35  C   UNL     1     -39.473  49.818 -54.569  1.00  0.00     0.142 A 
HETATM   36  C   UNL     1     -39.033  49.588 -53.289  1.00  0.00     0.027 A 
HETATM   37  C   UNL     1     -39.515  50.666 -52.506  1.00  0.00     0.040 A 
ENDBRANCH  30  33
ENDBRANCH  26  27
ENDBRANCH   6  26
TORSDOF 7
ENDMDL
MODEL 10
REMARK VINA RESULT:      -7.9      4.232      7.705
REMARK  7 active torsions:
REMARK  status: ('A' for Active; 'I' for Inactive)
REMARK    1  A    between atoms: C_5  and  C_6 
REMARK       I    between atoms: C_6  and  N_7 
REMARK    2  A    between atoms: N_7  and  C_8 
REMARK    3  A    between atoms: C_8  and  C_9 
REMARK    4  A    between atoms: C_9  and  C_10 
REMARK    5  A    between atoms: N_15  and  C_17 
REMARK    6  A    between atoms: C_17  and  C_18 
REMARK    7  A    between atoms: C_21  and  C_22 
ROOT
HETATM    1  C   UNL     1     -45.439  61.440 -53.390  1.00  0.00     0.131 A 
HETATM    2  N   UNL     1     -44.518  60.437 -53.602  1.00  0.00    -0.319 N 
HETATM    3  C   UNL     1     -43.413  61.046 -54.148  1.00  0.00     0.131 A 
HETATM    4  C   UNL     1     -42.117  60.402 -54.497  1.00  0.00     0.108 C 
HETATM    5  C   UNL     1     -41.647  59.436 -53.417  1.00  0.00     0.243 C 
HETATM    6  N   UNL     1     -42.331  58.072 -53.514  1.00  0.00    -0.065 N 
HETATM    7  H   UNL     1     -41.794  57.558 -54.227  1.00  0.00     0.280 HD
HETATM    8  C   UNL     1     -43.768  58.073 -54.009  1.00  0.00     0.255 C 
HETATM    9  C   UNL     1     -44.682  59.042 -53.258  1.00  0.00     0.159 C 
HETATM   10  N   UNL     1     -43.668  62.325 -54.292  1.00  0.00    -0.135 NA
HETATM   11  N   UNL     1     -44.922  62.571 -53.817  1.00  0.00    -0.135 NA
ENDROOT
BRANCH   1  12
HETATM   12  C   UNL     1     -46.777  61.290 -52.743  1.00  0.00     0.100 C 
BRANCH  12  13
HETATM   13  C   UNL     1     -46.978  62.328 -51.631  1.00  0.00     0.130 C 
BRANCH  13  14
HETATM   14  N   UNL     1     -45.975  62.269 -50.575  1.00  0.00    -0.360 N 
HETATM   15  C   UNL     1     -46.136  62.906 -49.370  1.00  0.00     0.223 C 
HETATM   16  O   UNL     1     -47.204  63.366 -48.970  1.00  0.00    -0.273 OA
HETATM   17  H   UNL     1     -45.040  62.008 -50.872  1.00  0.00     0.162 HD
BRANCH  15  18
HETATM   18  C   UNL     1     -44.893  62.925 -48.489  1.00  0.00     0.103 C 
HETATM   19  C   UNL     1     -45.148  63.798 -47.259  1.00  0.00     0.248 C 
HETATM   20  N   UNL     1     -46.143  63.136 -46.330  1.00  0.00    -0.074 N 
HETATM   21  C   UNL     1     -46.522  64.025 -45.181  1.00  0.00     0.269 C 
HETATM   22  H   UNL     1     -47.003  63.015 -46.899  1.00  0.00     0.279 HD
HETATM   23  C   UNL     1     -45.688  61.777 -45.871  1.00  0.00     0.234 C 
HETATM   24  C   UNL     1     -45.455  60.882 -47.080  1.00  0.00     0.029 C 
HETATM   25  C   UNL     1     -44.488  61.502 -48.090  1.00  0.00     0.017 C 
ENDBRANCH  15  18
ENDBRANCH  13  14
ENDBRANCH  12  13
ENDBRANCH   1  12
BRANCH   6  26
HETATM   26  C   UNL     1     -42.147  57.248 -52.245  1.00  0.00     0.273 C 
BRANCH  26  27
HETATM   27  C   UNL     1     -41.646  55.858 -52.510  1.00  0.00    -0.033 A 
HETATM   28  C   UNL     1     -40.965  55.561 -53.697  1.00  0.00     0.010 A 
HETATM   29  C   UNL     1     -40.524  54.259 -53.953  1.00  0.00     0.015 A 
HETATM   30  C   UNL     1     -40.745  53.223 -53.035  1.00  0.00    -0.002 A 
HETATM   31  C   UNL     1     -41.421  53.528 -51.847  1.00  0.00     0.015 A 
HETATM   32  C   UNL     1     -41.871  54.828 -51.585  1.00  0.00     0.010 A 
BRANCH  30  33
HETATM   33  C   UNL     1     -40.277  51.866 -53.302  1.00  0.00     0.085 A 
HETATM   34  O   UNL     1     -39.774  51.181 -52.230  1.00  0.00    -0.322 OA
HETATM   35  C   UNL     1     -39.394  49.955 -52.670  1.00  0.00     0.142 A 
HETATM   36  C   UNL     1     -39.641  49.832 -54.015  1.00  0.00     0.027 A 
HETATM   37  C   UNL     1     -40.209  51.063 -54.426  1.00  0.00     0.040 A 
ENDBRANCH  30  33
ENDBRANCH  26  27
ENDBRANCH   6  26
TORSDOF 7
ENDMDL
