MODEL 1
REMARK VINA RESULT:      -9.2      0.000      0.000
REMARK  5 active torsions:
REMARK  status: ('A' for Active; 'I' for Inactive)
REMARK    1  A    between atoms: C_3  and  O_4 
REMARK    2  A    between atoms: C_6  and  C_7 
REMARK       I    between atoms: N_10  and  C_11 
REMARK    3  A    between atoms: C_11  and  C_12 
REMARK    4  A    between atoms: C_18  and  C_19 
REMARK    5  A    between atoms: C_19  and  O_20 
ROOT
HETATM    1  C   UNL     1     -40.306  53.969 -53.247  1.00  0.00     0.022 C 
HETATM    2  C   UNL     1     -40.220  54.566 -54.674  1.00  0.00     0.029 C 
HETATM    3  C   UNL     1     -41.536  54.524 -55.457  1.00  0.00     0.127 C 
HETATM    4  N   UNL     1     -42.636  55.018 -54.636  1.00  0.00    -0.348 N 
HETATM    5  C   UNL     1     -43.529  56.036 -54.959  1.00  0.00     0.253 C 
HETATM    6  O   UNL     1     -44.566  56.241 -54.331  1.00  0.00    -0.267 OA
HETATM    7  C   UNL     1     -42.833  54.276 -53.398  1.00  0.00     0.127 C 
HETATM    8  C   UNL     1     -41.592  54.434 -52.526  1.00  0.00     0.029 C 
ENDROOT
BRANCH   5   9
HETATM    9  C   UNL     1     -43.232  56.967 -56.073  1.00  0.00     0.034 A 
HETATM   10  C   UNL     1     -42.660  58.208 -55.757  1.00  0.00     0.051 A 
HETATM   11  C   UNL     1     -42.255  59.040 -56.809  1.00  0.00     0.086 A 
HETATM   12  C   UNL     1     -42.431  58.620 -58.123  1.00  0.00     0.062 A 
HETATM   13  N   UNL     1     -41.648  60.271 -56.768  1.00  0.00    -0.231 NA
HETATM   14  N   UNL     1     -41.911  59.641 -58.878  1.00  0.00    -0.341 N 
HETATM   15  C   UNL     1     -42.993  57.389 -58.468  1.00  0.00     0.033 A 
HETATM   16  H   UNL     1     -41.836  59.654 -59.885  1.00  0.00     0.167 HD
HETATM   17  C   UNL     1     -41.441  60.609 -58.025  1.00  0.00     0.128 A 
HETATM   18  C   UNL     1     -43.371  56.557 -57.408  1.00  0.00     0.019 A 
BRANCH  17  19
HETATM   19  C   UNL     1     -40.734  61.824 -58.503  1.00  0.00     0.242 C 
BRANCH  19  20
HETATM   20  O   UNL     1     -41.097  62.883 -57.627  1.00  0.00    -0.393 OA
HETATM   21  H   UNL     1     -41.051  62.503 -56.727  1.00  0.00     0.209 HD
ENDBRANCH  19  20
ENDBRANCH  17  19
ENDBRANCH   5   9
BRANCH   1  22
HETATM   22  C   UNL     1     -40.097  52.466 -53.108  1.00  0.00    -0.051 A 
HETATM   23  C   UNL     1     -40.160  51.563 -54.177  1.00  0.00     0.044 A 
HETATM   24  C   UNL     1     -39.942  50.202 -53.967  1.00  0.00     0.066 A 
HETATM   25  C   UNL     1     -39.656  49.703 -52.702  1.00  0.00     0.036 A 
HETATM   26  C   UNL     1     -39.582  50.584 -51.628  1.00  0.00     0.003 A 
HETATM   27  C   UNL     1     -39.797  51.949 -51.831  1.00  0.00     0.007 A 
BRANCH  24  28
HETATM   28  O   UNL     1     -40.015  49.376 -55.051  1.00  0.00    -0.361 OA
HETATM   29  H   UNL     1     -40.888  48.950 -55.056  1.00  0.00     0.217 HD
ENDBRANCH  24  28
ENDBRANCH   1  22
TORSDOF 5
ENDMDL
MODEL 2
REMARK VINA RESULT:      -8.6      1.685      2.130
REMARK  5 active torsions:
REMARK  status: ('A' for Active; 'I' for Inactive)
REMARK    1  A    between atoms: C_3  and  O_4 
REMARK    2  A    between atoms: C_6  and  C_7 
REMARK       I    between atoms: N_10  and  C_11 
REMARK    3  A    between atoms: C_11  and  C_12 
REMARK    4  A    between atoms: C_18  and  C_19 
REMARK    5  A    between atoms: C_19  and  O_20 
ROOT
HETATM    1  C   UNL     1     -40.055  53.777 -52.992  1.00  0.00     0.022 C 
HETATM    2  C   UNL     1     -40.652  54.452 -54.251  1.00  0.00     0.029 C 
HETATM    3  C   UNL     1     -42.180  54.554 -54.249  1.00  0.00     0.127 C 
HETATM    4  N   UNL     1     -42.657  55.075 -52.972  1.00  0.00    -0.348 N 
HETATM    5  C   UNL     1     -43.490  56.172 -52.776  1.00  0.00     0.253 C 
HETATM    6  O   UNL     1     -44.038  56.412 -51.701  1.00  0.00    -0.267 OA
HETATM    7  C   UNL     1     -42.264  54.274 -51.820  1.00  0.00     0.127 C 
HETATM    8  C   UNL     1     -40.744  54.289 -51.706  1.00  0.00     0.029 C 
ENDROOT
BRANCH   5   9
HETATM    9  C   UNL     1     -43.717  57.146 -53.870  1.00  0.00     0.034 A 
HETATM   10  C   UNL     1     -42.630  57.926 -54.290  1.00  0.00     0.051 A 
HETATM   11  C   UNL     1     -42.800  58.752 -55.408  1.00  0.00     0.086 A 
HETATM   12  C   UNL     1     -44.027  58.781 -56.062  1.00  0.00     0.062 A 
HETATM   13  N   UNL     1     -41.896  59.578 -56.032  1.00  0.00    -0.231 NA
HETATM   14  N   UNL     1     -43.837  59.653 -57.103  1.00  0.00    -0.341 N 
HETATM   15  C   UNL     1     -45.125  58.013 -55.669  1.00  0.00     0.033 A 
HETATM   16  H   UNL     1     -44.515  59.884 -57.815  1.00  0.00     0.167 HD
HETATM   17  C   UNL     1     -42.540  60.102 -57.056  1.00  0.00     0.128 A 
HETATM   18  C   UNL     1     -44.936  57.172 -54.566  1.00  0.00     0.019 A 
BRANCH  17  19
HETATM   19  C   UNL     1     -41.964  61.001 -58.088  1.00  0.00     0.242 C 
BRANCH  19  20
HETATM   20  O   UNL     1     -40.822  61.617 -57.508  1.00  0.00    -0.393 OA
HETATM   21  H   UNL     1     -40.602  61.071 -56.726  1.00  0.00     0.209 HD
ENDBRANCH  19  20
ENDBRANCH  17  19
ENDBRANCH   5   9
BRANCH   1  22
HETATM   22  C   UNL     1     -39.945  52.257 -53.003  1.00  0.00    -0.051 A 
HETATM   23  C   UNL     1     -39.615  51.486 -51.882  1.00  0.00     0.044 A 
HETATM   24  C   UNL     1     -39.550  50.096 -51.973  1.00  0.00     0.066 A 
HETATM   25  C   UNL     1     -39.810  49.438 -53.168  1.00  0.00     0.036 A 
HETATM   26  C   UNL     1     -40.147  50.185 -54.292  1.00  0.00     0.003 A 
HETATM   27  C   UNL     1     -40.216  51.578 -54.208  1.00  0.00     0.007 A 
BRANCH  24  28
HETATM   28  O   UNL     1     -39.225  49.404 -50.842  1.00  0.00    -0.361 OA
HETATM   29  H   UNL     1     -39.967  48.820 -50.614  1.00  0.00     0.217 HD
ENDBRANCH  24  28
ENDBRANCH   1  22
TORSDOF 5
ENDMDL
MODEL 3
REMARK VINA RESULT:      -8.5      3.597      5.115
REMARK  5 active torsions:
REMARK  status: ('A' for Active; 'I' for Inactive)
REMARK    1  A    between atoms: C_3  and  O_4 
REMARK    2  A    between atoms: C_6  and  C_7 
REMARK       I    between atoms: N_10  and  C_11 
REMARK    3  A    between atoms: C_11  and  C_12 
REMARK    4  A    between atoms: C_18  and  C_19 
REMARK    5  A    between atoms: C_19  and  O_20 
ROOT
HETATM    1  C   UNL     1     -41.623  54.196 -54.285  1.00  0.00     0.022 C 
HETATM    2  C   UNL     1     -42.880  53.985 -55.165  1.00  0.00     0.029 C 
HETATM    3  C   UNL     1     -43.630  55.274 -55.514  1.00  0.00     0.127 C 
HETATM    4  N   UNL     1     -42.701  56.296 -55.982  1.00  0.00    -0.348 N 
HETATM    5  C   UNL     1     -42.771  57.006 -57.177  1.00  0.00     0.253 C 
HETATM    6  O   UNL     1     -42.095  58.010 -57.401  1.00  0.00    -0.267 OA
HETATM    7  C   UNL     1     -41.658  56.636 -55.022  1.00  0.00     0.127 C 
HETATM    8  C   UNL     1     -40.794  55.404 -54.777  1.00  0.00     0.029 C 
ENDROOT
BRANCH   5   9
HETATM    9  C   UNL     1     -43.652  56.540 -58.274  1.00  0.00     0.034 A 
HETATM   10  C   UNL     1     -44.875  57.201 -58.461  1.00  0.00     0.051 A 
HETATM   11  C   UNL     1     -45.653  56.856 -59.573  1.00  0.00     0.086 A 
HETATM   12  C   UNL     1     -45.201  55.877 -60.451  1.00  0.00     0.062 A 
HETATM   13  N   UNL     1     -46.856  57.369 -59.994  1.00  0.00    -0.231 NA
HETATM   14  N   UNL     1     -46.171  55.813 -61.417  1.00  0.00    -0.341 N 
HETATM   15  C   UNL     1     -43.987  55.205 -60.293  1.00  0.00     0.033 A 
HETATM   16  H   UNL     1     -46.150  55.229 -62.242  1.00  0.00     0.167 HD
HETATM   17  C   UNL     1     -47.143  56.732 -61.112  1.00  0.00     0.128 A 
HETATM   18  C   UNL     1     -43.206  55.576 -59.192  1.00  0.00     0.019 A 
BRANCH  17  19
HETATM   19  C   UNL     1     -48.309  56.992 -61.994  1.00  0.00     0.242 C 
BRANCH  19  20
HETATM   20  O   UNL     1     -47.954  56.534 -63.292  1.00  0.00    -0.393 OA
HETATM   21  H   UNL     1     -46.977  56.565 -63.320  1.00  0.00     0.209 HD
ENDBRANCH  19  20
ENDBRANCH  17  19
ENDBRANCH   5   9
BRANCH   1  22
HETATM   22  C   UNL     1     -41.829  54.235 -52.775  1.00  0.00    -0.051 A 
HETATM   23  C   UNL     1     -43.077  54.380 -52.158  1.00  0.00     0.044 A 
HETATM   24  C   UNL     1     -43.182  54.392 -50.767  1.00  0.00     0.066 A 
HETATM   25  C   UNL     1     -42.060  54.260 -49.957  1.00  0.00     0.036 A 
HETATM   26  C   UNL     1     -40.811  54.109 -50.551  1.00  0.00     0.003 A 
HETATM   27  C   UNL     1     -40.699  54.094 -51.943  1.00  0.00     0.007 A 
BRANCH  24  28
HETATM   28  O   UNL     1     -44.428  54.533 -50.229  1.00  0.00    -0.361 OA
HETATM   29  H   UNL     1     -44.549  55.462 -49.972  1.00  0.00     0.217 HD
ENDBRANCH  24  28
ENDBRANCH   1  22
TORSDOF 5
ENDMDL
MODEL 4
REMARK VINA RESULT:      -8.5      1.815      2.441
REMARK  5 active torsions:
REMARK  status: ('A' for Active; 'I' for Inactive)
REMARK    1  A    between atoms: C_3  and  O_4 
REMARK    2  A    between atoms: C_6  and  C_7 
REMARK       I    between atoms: N_10  and  C_11 
REMARK    3  A    between atoms: C_11  and  C_12 
REMARK    4  A    between atoms: C_18  and  C_19 
REMARK    5  A    between atoms: C_19  and  O_20 
ROOT
HETATM    1  C   UNL     1     -40.305  53.845 -53.180  1.00  0.00     0.022 C 
HETATM    2  C   UNL     1     -40.149  54.560 -54.545  1.00  0.00     0.029 C 
HETATM    3  C   UNL     1     -41.420  54.571 -55.401  1.00  0.00     0.127 C 
HETATM    4  N   UNL     1     -42.570  54.983 -54.604  1.00  0.00    -0.348 N 
HETATM    5  C   UNL     1     -43.459  56.015 -54.890  1.00  0.00     0.253 C 
HETATM    6  O   UNL     1     -44.532  56.156 -54.306  1.00  0.00    -0.267 OA
HETATM    7  C   UNL     1     -42.823  54.137 -53.445  1.00  0.00     0.127 C 
HETATM    8  C   UNL     1     -41.635  54.234 -52.495  1.00  0.00     0.029 C 
ENDROOT
BRANCH   5   9
HETATM    9  C   UNL     1     -43.115  57.040 -55.905  1.00  0.00     0.034 A 
HETATM   10  C   UNL     1     -43.612  56.870 -57.205  1.00  0.00     0.051 A 
HETATM   11  C   UNL     1     -43.404  57.896 -58.135  1.00  0.00     0.086 A 
HETATM   12  C   UNL     1     -42.714  59.041 -57.752  1.00  0.00     0.062 A 
HETATM   13  N   UNL     1     -43.813  57.988 -59.443  1.00  0.00    -0.231 NA
HETATM   14  N   UNL     1     -42.717  59.831 -58.873  1.00  0.00    -0.341 N 
HETATM   15  C   UNL     1     -42.211  59.240 -56.464  1.00  0.00     0.033 A 
HETATM   16  H   UNL     1     -42.335  60.763 -58.943  1.00  0.00     0.167 HD
HETATM   17  C   UNL     1     -43.396  59.167 -59.864  1.00  0.00     0.128 A 
HETATM   18  C   UNL     1     -42.447  58.218 -55.537  1.00  0.00     0.019 A 
BRANCH  17  19
HETATM   19  C   UNL     1     -43.664  59.768 -61.195  1.00  0.00     0.242 C 
BRANCH  19  20
HETATM   20  O   UNL     1     -45.045  59.569 -61.467  1.00  0.00    -0.393 OA
HETATM   21  H   UNL     1     -45.111  58.663 -61.831  1.00  0.00     0.209 HD
ENDBRANCH  19  20
ENDBRANCH  17  19
ENDBRANCH   5   9
BRANCH   1  22
HETATM   22  C   UNL     1     -40.082  52.337 -53.155  1.00  0.00    -0.051 A 
HETATM   23  C   UNL     1     -39.674  51.623 -52.022  1.00  0.00     0.044 A 
HETATM   24  C   UNL     1     -39.506  50.240 -52.079  1.00  0.00     0.066 A 
HETATM   25  C   UNL     1     -39.738  49.532 -53.252  1.00  0.00     0.036 A 
HETATM   26  C   UNL     1     -40.150  50.222 -54.388  1.00  0.00     0.003 A 
HETATM   27  C   UNL     1     -40.323  51.607 -54.337  1.00  0.00     0.007 A 
BRANCH  24  28
HETATM   28  O   UNL     1     -39.110  49.604 -50.938  1.00  0.00    -0.361 OA
HETATM   29  H   UNL     1     -39.711  49.859 -50.219  1.00  0.00     0.217 HD
ENDBRANCH  24  28
ENDBRANCH   1  22
TORSDOF 5
ENDMDL
MODEL 5
REMARK VINA RESULT:      -8.0      2.112      2.431
REMARK  5 active torsions:
REMARK  status: ('A' for Active; 'I' for Inactive)
REMARK    1  A    between atoms: C_3  and  O_4 
REMARK    2  A    between atoms: C_6  and  C_7 
REMARK       I    between atoms: N_10  and  C_11 
REMARK    3  A    between atoms: C_11  and  C_12 
REMARK    4  A    between atoms: C_18  and  C_19 
REMARK    5  A    between atoms: C_19  and  O_20 
ROOT
HETATM    1  C   UNL     1     -40.162  53.844 -53.405  1.00  0.00     0.022 C 
HETATM    2  C   UNL     1     -40.879  54.274 -54.708  1.00  0.00     0.029 C 
HETATM    3  C   UNL     1     -42.405  54.339 -54.599  1.00  0.00     0.127 C 
HETATM    4  N   UNL     1     -42.802  55.064 -53.397  1.00  0.00    -0.348 N 
HETATM    5  C   UNL     1     -43.657  56.159 -53.324  1.00  0.00     0.253 C 
HETATM    6  O   UNL     1     -44.130  56.571 -52.266  1.00  0.00    -0.267 OA
HETATM    7  C   UNL     1     -42.292  54.486 -52.160  1.00  0.00     0.127 C 
HETATM    8  C   UNL     1     -40.769  54.555 -52.174  1.00  0.00     0.029 C 
ENDROOT
BRANCH   5   9
HETATM    9  C   UNL     1     -44.003  56.921 -54.548  1.00  0.00     0.034 A 
HETATM   10  C   UNL     1     -43.079  56.924 -55.603  1.00  0.00     0.051 A 
HETATM   11  C   UNL     1     -43.451  57.530 -56.810  1.00  0.00     0.086 A 
HETATM   12  C   UNL     1     -44.710  58.109 -56.928  1.00  0.00     0.062 A 
HETATM   13  N   UNL     1     -42.753  57.636 -57.988  1.00  0.00    -0.231 NA
HETATM   14  N   UNL     1     -44.751  58.572 -58.218  1.00  0.00    -0.341 N 
HETATM   15  C   UNL     1     -45.651  58.118 -55.896  1.00  0.00     0.033 A 
HETATM   16  H   UNL     1     -45.540  59.017 -58.664  1.00  0.00     0.167 HD
HETATM   17  C   UNL     1     -43.560  58.259 -58.824  1.00  0.00     0.128 A 
HETATM   18  C   UNL     1     -45.277  57.488 -54.704  1.00  0.00     0.019 A 
BRANCH  17  19
HETATM   19  C   UNL     1     -43.290  58.540 -60.257  1.00  0.00     0.242 C 
BRANCH  19  20
HETATM   20  O   UNL     1     -43.619  57.359 -60.978  1.00  0.00    -0.393 OA
HETATM   21  H   UNL     1     -43.837  57.660 -61.883  1.00  0.00     0.209 HD
ENDBRANCH  19  20
ENDBRANCH  17  19
ENDBRANCH   5   9
BRANCH   1  22
HETATM   22  C   UNL     1     -39.998  52.348 -53.163  1.00  0.00    -0.051 A 
HETATM   23  C   UNL     1     -40.055  51.379 -54.172  1.00  0.00     0.044 A 
HETATM   24  C   UNL     1     -39.880  50.029 -53.869  1.00  0.00     0.066 A 
HETATM   25  C   UNL     1     -39.643  49.607 -52.566  1.00  0.00     0.036 A 
HETATM   26  C   UNL     1     -39.577  50.554 -51.550  1.00  0.00     0.003 A 
HETATM   27  C   UNL     1     -39.749  51.908 -51.847  1.00  0.00     0.007 A 
BRANCH  24  28
HETATM   28  O   UNL     1     -39.944  49.137 -54.899  1.00  0.00    -0.361 OA
HETATM   29  H   UNL     1     -40.553  49.485 -55.571  1.00  0.00     0.217 HD
ENDBRANCH  24  28
ENDBRANCH   1  22
TORSDOF 5
ENDMDL
MODEL 6
REMARK VINA RESULT:      -8.0      4.107      5.200
REMARK  5 active torsions:
REMARK  status: ('A' for Active; 'I' for Inactive)
REMARK    1  A    between atoms: C_3  and  O_4 
REMARK    2  A    between atoms: C_6  and  C_7 
REMARK       I    between atoms: N_10  and  C_11 
REMARK    3  A    between atoms: C_11  and  C_12 
REMARK    4  A    between atoms: C_18  and  C_19 
REMARK    5  A    between atoms: C_19  and  O_20 
ROOT
HETATM    1  C   UNL     1     -42.016  53.926 -54.166  1.00  0.00     0.022 C 
HETATM    2  C   UNL     1     -42.928  54.627 -53.128  1.00  0.00     0.029 C 
HETATM    3  C   UNL     1     -42.268  55.801 -52.400  1.00  0.00     0.127 C 
HETATM    4  N   UNL     1     -41.604  56.686 -53.350  1.00  0.00    -0.348 N 
HETATM    5  C   UNL     1     -41.794  58.058 -53.489  1.00  0.00     0.253 C 
HETATM    6  O   UNL     1     -41.039  58.776 -54.143  1.00  0.00    -0.267 OA
HETATM    7  C   UNL     1     -40.580  56.032 -54.155  1.00  0.00     0.127 C 
HETATM    8  C   UNL     1     -41.240  54.959 -55.014  1.00  0.00     0.029 C 
ENDROOT
BRANCH   5   9
HETATM    9  C   UNL     1     -42.973  58.717 -52.877  1.00  0.00     0.034 A 
HETATM   10  C   UNL     1     -42.794  59.378 -51.654  1.00  0.00     0.051 A 
HETATM   11  C   UNL     1     -43.866  60.114 -51.134  1.00  0.00     0.086 A 
HETATM   12  C   UNL     1     -45.067  60.165 -51.833  1.00  0.00     0.062 A 
HETATM   13  N   UNL     1     -43.937  60.867 -49.988  1.00  0.00    -0.231 NA
HETATM   14  N   UNL     1     -45.870  60.975 -51.071  1.00  0.00    -0.341 N 
HETATM   15  C   UNL     1     -45.273  59.520 -53.055  1.00  0.00     0.033 A 
HETATM   16  H   UNL     1     -46.809  61.266 -51.302  1.00  0.00     0.167 HD
HETATM   17  C   UNL     1     -45.150  61.384 -49.976  1.00  0.00     0.128 A 
HETATM   18  C   UNL     1     -44.186  58.809 -53.576  1.00  0.00     0.019 A 
BRANCH  17  19
HETATM   19  C   UNL     1     -45.685  62.343 -48.977  1.00  0.00     0.242 C 
BRANCH  19  20
HETATM   20  O   UNL     1     -46.717  61.669 -48.269  1.00  0.00    -0.393 OA
HETATM   21  H   UNL     1     -47.226  62.373 -47.818  1.00  0.00     0.209 HD
ENDBRANCH  19  20
ENDBRANCH  17  19
ENDBRANCH   5   9
BRANCH   1  22
HETATM   22  C   UNL     1     -41.101  52.820 -53.653  1.00  0.00    -0.051 A 
HETATM   23  C   UNL     1     -40.772  51.672 -54.383  1.00  0.00     0.044 A 
HETATM   24  C   UNL     1     -39.914  50.712 -53.846  1.00  0.00     0.066 A 
HETATM   25  C   UNL     1     -39.362  50.865 -52.580  1.00  0.00     0.036 A 
HETATM   26  C   UNL     1     -39.671  52.003 -51.841  1.00  0.00     0.003 A 
HETATM   27  C   UNL     1     -40.527  52.968 -52.373  1.00  0.00     0.007 A 
BRANCH  24  28
HETATM   28  O   UNL     1     -39.632  49.618 -54.611  1.00  0.00    -0.361 OA
HETATM   29  H   UNL     1     -39.688  48.827 -54.051  1.00  0.00     0.217 HD
ENDBRANCH  24  28
ENDBRANCH   1  22
TORSDOF 5
ENDMDL
MODEL 7
REMARK VINA RESULT:      -8.0      3.104      4.398
REMARK  5 active torsions:
REMARK  status: ('A' for Active; 'I' for Inactive)
REMARK    1  A    between atoms: C_3  and  O_4 
REMARK    2  A    between atoms: C_6  and  C_7 
REMARK       I    between atoms: N_10  and  C_11 
REMARK    3  A    between atoms: C_11  and  C_12 
REMARK    4  A    between atoms: C_18  and  C_19 
REMARK    5  A    between atoms: C_19  and  O_20 
ROOT
HETATM    1  C   UNL     1     -41.178  54.137 -54.285  1.00  0.00     0.022 C 
HETATM    2  C   UNL     1     -42.642  54.399 -54.716  1.00  0.00     0.029 C 
HETATM    3  C   UNL     1     -43.170  55.789 -54.348  1.00  0.00     0.127 C 
HETATM    4  N   UNL     1     -42.211  56.819 -54.730  1.00  0.00    -0.348 N 
HETATM    5  C   UNL     1     -42.453  57.934 -55.527  1.00  0.00     0.253 C 
HETATM    6  O   UNL     1     -41.669  58.877 -55.615  1.00  0.00    -0.267 OA
HETATM    7  C   UNL     1     -40.898  56.665 -54.115  1.00  0.00     0.127 C 
HETATM    8  C   UNL     1     -40.279  55.357 -54.593  1.00  0.00     0.029 C 
ENDROOT
BRANCH   5   9
HETATM    9  C   UNL     1     -43.678  58.007 -56.359  1.00  0.00     0.034 A 
HETATM   10  C   UNL     1     -43.657  57.384 -57.615  1.00  0.00     0.051 A 
HETATM   11  C   UNL     1     -44.847  57.334 -58.351  1.00  0.00     0.086 A 
HETATM   12  C   UNL     1     -46.003  57.900 -57.826  1.00  0.00     0.062 A 
HETATM   13  N   UNL     1     -45.097  56.761 -59.574  1.00  0.00    -0.231 NA
HETATM   14  N   UNL     1     -46.963  57.652 -58.774  1.00  0.00    -0.341 N 
HETATM   15  C   UNL     1     -46.056  58.524 -56.578  1.00  0.00     0.033 A 
HETATM   16  H   UNL     1     -47.942  57.890 -58.703  1.00  0.00     0.167 HD
HETATM   17  C   UNL     1     -46.380  56.956 -59.804  1.00  0.00     0.128 A 
HETATM   18  C   UNL     1     -44.866  58.545 -55.841  1.00  0.00     0.019 A 
BRANCH  17  19
HETATM   19  C   UNL     1     -47.151  56.448 -60.967  1.00  0.00     0.242 C 
BRANCH  19  20
HETATM   20  O   UNL     1     -46.239  55.723 -61.781  1.00  0.00    -0.393 OA
HETATM   21  H   UNL     1     -45.358  55.874 -61.383  1.00  0.00     0.209 HD
ENDBRANCH  19  20
ENDBRANCH  17  19
ENDBRANCH   5   9
BRANCH   1  22
HETATM   22  C   UNL     1     -40.951  53.617 -52.870  1.00  0.00    -0.051 A 
HETATM   23  C   UNL     1     -41.536  54.175 -51.727  1.00  0.00     0.044 A 
HETATM   24  C   UNL     1     -41.288  53.630 -50.467  1.00  0.00     0.066 A 
HETATM   25  C   UNL     1     -40.462  52.524 -50.309  1.00  0.00     0.036 A 
HETATM   26  C   UNL     1     -39.875  51.952 -51.433  1.00  0.00     0.003 A 
HETATM   27  C   UNL     1     -40.121  52.491 -52.698  1.00  0.00     0.007 A 
BRANCH  24  28
HETATM   28  O   UNL     1     -41.892  54.219 -49.394  1.00  0.00    -0.361 OA
HETATM   29  H   UNL     1     -42.094  55.141 -49.623  1.00  0.00     0.217 HD
ENDBRANCH  24  28
ENDBRANCH   1  22
TORSDOF 5
ENDMDL
MODEL 8
REMARK VINA RESULT:      -8.0      3.141      3.741
REMARK  5 active torsions:
REMARK  status: ('A' for Active; 'I' for Inactive)
REMARK    1  A    between atoms: C_3  and  O_4 
REMARK    2  A    between atoms: C_6  and  C_7 
REMARK       I    between atoms: N_10  and  C_11 
REMARK    3  A    between atoms: C_11  and  C_12 
REMARK    4  A    between atoms: C_18  and  C_19 
REMARK    5  A    between atoms: C_19  and  O_20 
ROOT
HETATM    1  C   UNL     1     -40.338  54.009 -52.339  1.00  0.00     0.022 C 
HETATM    2  C   UNL     1     -41.002  54.865 -53.446  1.00  0.00     0.029 C 
HETATM    3  C   UNL     1     -42.533  54.851 -53.423  1.00  0.00     0.127 C 
HETATM    4  N   UNL     1     -43.027  55.083 -52.070  1.00  0.00    -0.348 N 
HETATM    5  C   UNL     1     -43.935  56.058 -51.667  1.00  0.00     0.253 C 
HETATM    6  O   UNL     1     -44.483  56.049 -50.566  1.00  0.00    -0.267 OA
HETATM    7  C   UNL     1     -42.560  54.109 -51.092  1.00  0.00     0.127 C 
HETATM    8  C   UNL     1     -41.043  54.214 -50.978  1.00  0.00     0.029 C 
ENDROOT
BRANCH   5   9
HETATM    9  C   UNL     1     -44.248  57.203 -52.556  1.00  0.00     0.034 A 
HETATM   10  C   UNL     1     -44.559  56.929 -53.895  1.00  0.00     0.051 A 
HETATM   11  C   UNL     1     -44.983  57.987 -54.708  1.00  0.00     0.086 A 
HETATM   12  C   UNL     1     -45.080  59.267 -54.174  1.00  0.00     0.062 A 
HETATM   13  N   UNL     1     -45.373  57.978 -56.025  1.00  0.00    -0.231 NA
HETATM   14  N   UNL     1     -45.542  60.035 -55.213  1.00  0.00    -0.341 N 
HETATM   15  C   UNL     1     -44.782  59.569 -52.844  1.00  0.00     0.033 A 
HETATM   16  H   UNL     1     -45.768  61.018 -55.169  1.00  0.00     0.167 HD
HETATM   17  C   UNL     1     -45.714  59.220 -56.305  1.00  0.00     0.128 A 
HETATM   18  C   UNL     1     -44.382  58.499 -52.035  1.00  0.00     0.019 A 
BRANCH  17  19
HETATM   19  C   UNL     1     -46.283  59.707 -57.587  1.00  0.00     0.242 C 
BRANCH  19  20
HETATM   20  O   UNL     1     -45.736  58.894 -58.616  1.00  0.00    -0.393 OA
HETATM   21  H   UNL     1     -45.793  59.433 -59.431  1.00  0.00     0.209 HD
ENDBRANCH  19  20
ENDBRANCH  17  19
ENDBRANCH   5   9
BRANCH   1  22
HETATM   22  C   UNL     1     -40.119  52.531 -52.639  1.00  0.00    -0.051 A 
HETATM   23  C   UNL     1     -39.740  51.583 -51.681  1.00  0.00     0.044 A 
HETATM   24  C   UNL     1     -39.574  50.245 -52.036  1.00  0.00     0.066 A 
HETATM   25  C   UNL     1     -39.780  49.813 -53.341  1.00  0.00     0.036 A 
HETATM   26  C   UNL     1     -40.164  50.738 -54.307  1.00  0.00     0.003 A 
HETATM   27  C   UNL     1     -40.335  52.079 -53.957  1.00  0.00     0.007 A 
BRANCH  24  28
HETATM   28  O   UNL     1     -39.205  49.372 -51.054  1.00  0.00    -0.361 OA
HETATM   29  H   UNL     1     -38.237  49.302 -51.051  1.00  0.00     0.217 HD
ENDBRANCH  24  28
ENDBRANCH   1  22
TORSDOF 5
ENDMDL
MODEL 9
REMARK VINA RESULT:      -7.9      5.189      6.525
REMARK  5 active torsions:
REMARK  status: ('A' for Active; 'I' for Inactive)
REMARK    1  A    between atoms: C_3  and  O_4 
REMARK    2  A    between atoms: C_6  and  C_7 
REMARK       I    between atoms: N_10  and  C_11 
REMARK    3  A    between atoms: C_11  and  C_12 
REMARK    4  A    between atoms: C_18  and  C_19 
REMARK    5  A    between atoms: C_19  and  O_20 
ROOT
HETATM    1  C   UNL     1     -42.993  54.774 -51.886  1.00  0.00     0.022 C 
HETATM    2  C   UNL     1     -42.838  55.879 -50.812  1.00  0.00     0.029 C 
HETATM    3  C   UNL     1     -42.135  57.147 -51.306  1.00  0.00     0.127 C 
HETATM    4  N   UNL     1     -42.701  57.584 -52.577  1.00  0.00    -0.348 N 
HETATM    5  C   UNL     1     -43.213  58.843 -52.876  1.00  0.00     0.253 C 
HETATM    6  O   UNL     1     -43.456  59.212 -54.024  1.00  0.00    -0.267 OA
HETATM    7  C   UNL     1     -42.618  56.588 -53.638  1.00  0.00     0.127 C 
HETATM    8  C   UNL     1     -43.446  55.372 -53.238  1.00  0.00     0.029 C 
ENDROOT
BRANCH   5   9
HETATM    9  C   UNL     1     -43.538  59.796 -51.788  1.00  0.00     0.034 A 
HETATM   10  C   UNL     1     -44.685  59.550 -51.020  1.00  0.00     0.051 A 
HETATM   11  C   UNL     1     -44.928  60.368 -49.909  1.00  0.00     0.086 A 
HETATM   12  C   UNL     1     -44.040  61.393 -49.604  1.00  0.00     0.062 A 
HETATM   13  N   UNL     1     -45.947  60.315 -48.989  1.00  0.00    -0.231 NA
HETATM   14  N   UNL     1     -44.556  61.961 -48.467  1.00  0.00    -0.341 N 
HETATM   15  C   UNL     1     -42.889  61.660 -50.348  1.00  0.00     0.033 A 
HETATM   16  H   UNL     1     -44.140  62.717 -47.940  1.00  0.00     0.167 HD
HETATM   17  C   UNL     1     -45.696  61.278 -48.125  1.00  0.00     0.128 A 
HETATM   18  C   UNL     1     -42.643  60.820 -51.440  1.00  0.00     0.019 A 
BRANCH  17  19
HETATM   19  C   UNL     1     -46.470  61.574 -46.892  1.00  0.00     0.242 C 
BRANCH  19  20
HETATM   20  O   UNL     1     -47.748  62.035 -47.309  1.00  0.00    -0.393 OA
HETATM   21  H   UNL     1     -48.052  62.636 -46.598  1.00  0.00     0.209 HD
ENDBRANCH  19  20
ENDBRANCH  17  19
ENDBRANCH   5   9
BRANCH   1  22
HETATM   22  C   UNL     1     -41.829  53.806 -52.063  1.00  0.00    -0.051 A 
HETATM   23  C   UNL     1     -41.484  53.209 -53.281  1.00  0.00     0.044 A 
HETATM   24  C   UNL     1     -40.393  52.344 -53.361  1.00  0.00     0.066 A 
HETATM   25  C   UNL     1     -39.619  52.052 -52.244  1.00  0.00     0.036 A 
HETATM   26  C   UNL     1     -39.942  52.641 -51.025  1.00  0.00     0.003 A 
HETATM   27  C   UNL     1     -41.031  53.510 -50.939  1.00  0.00     0.007 A 
BRANCH  24  28
HETATM   28  O   UNL     1     -40.108  51.797 -54.578  1.00  0.00    -0.361 OA
HETATM   29  H   UNL     1     -40.903  51.852 -55.134  1.00  0.00     0.217 HD
ENDBRANCH  24  28
ENDBRANCH   1  22
TORSDOF 5
ENDMDL
MODEL 10
REMARK VINA RESULT:      -7.7      3.647      4.073
REMARK  5 active torsions:
REMARK  status: ('A' for Active; 'I' for Inactive)
REMARK    1  A    between atoms: C_3  and  O_4 
REMARK    2  A    between atoms: C_6  and  C_7 
REMARK       I    between atoms: N_10  and  C_11 
REMARK    3  A    between atoms: C_11  and  C_12 
REMARK    4  A    between atoms: C_18  and  C_19 
REMARK    5  A    between atoms: C_19  and  O_20 
ROOT
HETATM    1  C   UNL     1     -40.308  53.766 -51.780  1.00  0.00     0.022 C 
HETATM    2  C   UNL     1     -40.553  54.992 -52.694  1.00  0.00     0.029 C 
HETATM    3  C   UNL     1     -42.024  55.239 -53.038  1.00  0.00     0.127 C 
HETATM    4  N   UNL     1     -42.849  55.179 -51.837  1.00  0.00    -0.348 N 
HETATM    5  C   UNL     1     -43.733  56.151 -51.379  1.00  0.00     0.253 C 
HETATM    6  O   UNL     1     -44.563  55.940 -50.496  1.00  0.00    -0.267 OA
HETATM    7  C   UNL     1     -42.768  53.911 -51.124  1.00  0.00     0.127 C 
HETATM    8  C   UNL     1     -41.339  53.714 -50.629  1.00  0.00     0.029 C 
ENDROOT
BRANCH   5   9
HETATM    9  C   UNL     1     -43.675  57.530 -51.920  1.00  0.00     0.034 A 
HETATM   10  C   UNL     1     -44.654  57.913 -52.849  1.00  0.00     0.051 A 
HETATM   11  C   UNL     1     -44.687  59.250 -53.265  1.00  0.00     0.086 A 
HETATM   12  C   UNL     1     -43.757  60.151 -52.757  1.00  0.00     0.062 A 
HETATM   13  N   UNL     1     -45.553  59.878 -54.127  1.00  0.00    -0.231 NA
HETATM   14  N   UNL     1     -44.089  61.347 -53.341  1.00  0.00    -0.341 N 
HETATM   15  C   UNL     1     -42.775  59.800 -51.829  1.00  0.00     0.033 A 
HETATM   16  H   UNL     1     -43.643  62.236 -53.166  1.00  0.00     0.167 HD
HETATM   17  C   UNL     1     -45.179  61.142 -54.150  1.00  0.00     0.128 A 
HETATM   18  C   UNL     1     -42.768  58.467 -51.401  1.00  0.00     0.019 A 
BRANCH  17  19
HETATM   19  C   UNL     1     -45.858  62.245 -54.876  1.00  0.00     0.242 C 
BRANCH  19  20
HETATM   20  O   UNL     1     -45.907  63.354 -53.989  1.00  0.00    -0.393 OA
HETATM   21  H   UNL     1     -45.024  63.391 -53.570  1.00  0.00     0.209 HD
ENDBRANCH  19  20
ENDBRANCH  17  19
ENDBRANCH   5   9
BRANCH   1  22
HETATM   22  C   UNL     1     -40.159  52.410 -52.460  1.00  0.00    -0.051 A 
HETATM   23  C   UNL     1     -39.774  51.238 -51.797  1.00  0.00     0.044 A 
HETATM   24  C   UNL     1     -39.674  50.032 -52.491  1.00  0.00     0.066 A 
HETATM   25  C   UNL     1     -39.955  49.956 -53.850  1.00  0.00     0.036 A 
HETATM   26  C   UNL     1     -40.346  51.108 -54.525  1.00  0.00     0.003 A 
HETATM   27  C   UNL     1     -40.449  52.318 -53.836  1.00  0.00     0.007 A 
BRANCH  24  28
HETATM   28  O   UNL     1     -39.297  48.927 -51.785  1.00  0.00    -0.361 OA
HETATM   29  H   UNL     1     -39.615  48.138 -52.254  1.00  0.00     0.217 HD
ENDBRANCH  24  28
ENDBRANCH   1  22
TORSDOF 5
ENDMDL
