MODEL 1
REMARK VINA RESULT:      -7.7      0.000      0.000
REMARK  8 active torsions:
REMARK  status: ('A' for Active; 'I' for Inactive)
REMARK    1  A    between atoms: C_2  and  N_3 
REMARK       I    between atoms: N_3  and  C_4 
REMARK    2  A    between atoms: C_4  and  C_5 
REMARK    3  A    between atoms: C_5  and  C_6 
REMARK    4  A    between atoms: C_10  and  C_11 
REMARK    5  A    between atoms: C_11  and  O_12 
REMARK    6  A    between atoms: C_14  and  O_15 
REMARK    7  A    between atoms: C_22  and  N_23 
REMARK       I    between atoms: N_23  and  C_24 
REMARK    8  A    between atoms: C_24  and  C_25 
ROOT
HETATM    1  C   UNL     1     -42.704  58.717 -55.472  1.00  0.00     0.056 C 
HETATM    2  C   UNL     1     -43.774  59.363 -56.463  1.00  0.00    -0.030 C 
HETATM    3  C   UNL     1     -45.203  59.238 -55.838  1.00  0.00     0.016 C 
HETATM    4  C   UNL     1     -43.827  58.637 -57.878  1.00  0.00     0.012 C 
HETATM    5  C   UNL     1     -42.755  59.052 -58.976  1.00  0.00     0.008 C 
HETATM    6  C   UNL     1     -43.462  58.916 -60.361  1.00  0.00     0.020 C 
HETATM    7  C   UNL     1     -42.344  60.551 -58.830  1.00  0.00     0.128 C 
HETATM    8  C   UNL     1     -43.381  61.366 -58.061  1.00  0.00     0.033 C 
HETATM    9  C   UNL     1     -43.481  60.887 -56.615  1.00  0.00     0.013 C 
HETATM   10  C   UNL     1     -44.057  57.106 -57.757  1.00  0.00     0.055 C 
HETATM   11  C   UNL     1     -43.286  56.522 -56.633  1.00  0.00     0.012 A 
HETATM   12  C   UNL     1     -42.716  57.210 -55.582  1.00  0.00     0.056 A 
HETATM   13  N   UNL     1     -42.107  56.407 -54.628  1.00  0.00    -0.227 NA
HETATM   14  C   UNL     1     -42.181  55.158 -55.012  1.00  0.00     0.174 A 
HETATM   15  S   UNL     1     -43.014  54.849 -56.470  1.00  0.00    -0.055 SA
ENDROOT
BRANCH  14  16
HETATM   16  N   UNL     1     -41.683  54.035 -54.425  1.00  0.00    -0.300 N 
HETATM   17  C   UNL     1     -40.384  53.619 -54.573  1.00  0.00     0.281 C 
HETATM   18  O   UNL     1     -39.498  54.225 -55.165  1.00  0.00    -0.265 OA
HETATM   19  H   UNL     1     -42.316  53.470 -53.878  1.00  0.00     0.171 HD
BRANCH  17  20
HETATM   20  C   UNL     1     -40.145  52.342 -53.921  1.00  0.00     0.142 A 
HETATM   21  O   UNL     1     -39.757  52.321 -52.603  1.00  0.00    -0.317 OA
HETATM   22  C   UNL     1     -39.619  51.019 -52.247  1.00  0.00     0.143 A 
HETATM   23  C   UNL     1     -39.904  50.194 -53.309  1.00  0.00     0.027 A 
HETATM   24  C   UNL     1     -40.243  51.045 -54.389  1.00  0.00     0.045 A 
ENDBRANCH  17  20
ENDBRANCH  14  16
BRANCH   1  25
HETATM   25  C   UNL     1     -42.878  59.191 -54.013  1.00  0.00     0.114 C 
BRANCH  25  26
HETATM   26  C   UNL     1     -41.637  59.011 -53.160  1.00  0.00     0.218 C 
HETATM   27  N   UNL     1     -41.827  58.309 -51.999  1.00  0.00    -0.357 N 
HETATM   28  H   UNL     1     -42.729  57.845 -51.861  1.00  0.00     0.162 HD
HETATM   29  O   UNL     1     -40.566  59.515 -53.494  1.00  0.00    -0.274 OA
BRANCH  27  30
HETATM   30  C   UNL     1     -40.841  58.160 -50.940  1.00  0.00     0.076 C 
HETATM   31  C   UNL     1     -41.016  56.839 -50.191  1.00  0.00     0.032 C 
HETATM   32  C   UNL     1     -40.808  59.348 -49.984  1.00  0.00     0.032 C 
ENDBRANCH  27  30
ENDBRANCH  25  26
ENDBRANCH   1  25
BRANCH   5  33
HETATM   33  C   UNL     1     -41.507  58.136 -59.067  1.00  0.00     0.176 C 
BRANCH  33  34
HETATM   34  O   UNL     1     -41.475  57.354 -60.245  1.00  0.00    -0.400 OA
HETATM   35  H   UNL     1     -40.761  56.695 -60.096  1.00  0.00     0.209 HD
ENDBRANCH  33  34
ENDBRANCH   5  33
BRANCH   7  36
HETATM   36  O   UNL     1     -41.081  60.679 -58.169  1.00  0.00    -0.395 OA
HETATM   37  H   UNL     1     -40.957  59.885 -57.615  1.00  0.00     0.210 HD
ENDBRANCH   7  36
TORSDOF 8
ENDMDL
MODEL 2
REMARK VINA RESULT:      -7.5      4.432      7.987
REMARK  8 active torsions:
REMARK  status: ('A' for Active; 'I' for Inactive)
REMARK    1  A    between atoms: C_2  and  N_3 
REMARK       I    between atoms: N_3  and  C_4 
REMARK    2  A    between atoms: C_4  and  C_5 
REMARK    3  A    between atoms: C_5  and  C_6 
REMARK    4  A    between atoms: C_10  and  C_11 
REMARK    5  A    between atoms: C_11  and  O_12 
REMARK    6  A    between atoms: C_14  and  O_15 
REMARK    7  A    between atoms: C_22  and  N_23 
REMARK       I    between atoms: N_23  and  C_24 
REMARK    8  A    between atoms: C_24  and  C_25 
ROOT
HETATM    1  C   UNL     1     -42.442  57.827 -52.089  1.00  0.00     0.056 C 
HETATM    2  C   UNL     1     -41.710  57.726 -53.503  1.00  0.00    -0.030 C 
HETATM    3  C   UNL     1     -40.293  58.382 -53.401  1.00  0.00     0.016 C 
HETATM    4  C   UNL     1     -42.488  58.490 -54.662  1.00  0.00     0.012 C 
HETATM    5  C   UNL     1     -43.691  57.741 -55.379  1.00  0.00     0.008 C 
HETATM    6  C   UNL     1     -43.698  58.230 -56.862  1.00  0.00     0.020 C 
HETATM    7  C   UNL     1     -43.456  56.198 -55.419  1.00  0.00     0.128 C 
HETATM    8  C   UNL     1     -41.985  55.829 -55.248  1.00  0.00     0.033 C 
HETATM    9  C   UNL     1     -41.486  56.225 -53.861  1.00  0.00     0.013 C 
HETATM   10  C   UNL     1     -42.780  59.974 -54.308  1.00  0.00     0.055 C 
HETATM   11  C   UNL     1     -43.184  60.132 -52.890  1.00  0.00     0.012 A 
HETATM   12  C   UNL     1     -43.003  59.213 -51.877  1.00  0.00     0.056 A 
HETATM   13  N   UNL     1     -43.415  59.647 -50.624  1.00  0.00    -0.227 NA
HETATM   14  C   UNL     1     -43.943  60.838 -50.737  1.00  0.00     0.174 A 
HETATM   15  S   UNL     1     -43.934  61.539 -52.294  1.00  0.00    -0.055 SA
ENDROOT
BRANCH  14  16
HETATM   16  N   UNL     1     -44.521  61.628 -49.791  1.00  0.00    -0.300 N 
HETATM   17  C   UNL     1     -45.538  61.205 -48.973  1.00  0.00     0.281 C 
HETATM   18  O   UNL     1     -45.995  60.069 -48.924  1.00  0.00    -0.265 OA
HETATM   19  H   UNL     1     -44.199  62.582 -49.713  1.00  0.00     0.171 HD
BRANCH  17  20
HETATM   20  C   UNL     1     -46.034  62.276 -48.125  1.00  0.00     0.142 A 
HETATM   21  O   UNL     1     -47.389  62.438 -47.966  1.00  0.00    -0.317 OA
HETATM   22  C   UNL     1     -47.572  63.487 -47.126  1.00  0.00     0.143 A 
HETATM   23  C   UNL     1     -46.363  64.013 -46.739  1.00  0.00     0.027 A 
HETATM   24  C   UNL     1     -45.370  63.234 -47.382  1.00  0.00     0.045 A 
ENDBRANCH  17  20
ENDBRANCH  14  16
BRANCH   1  25
HETATM   25  C   UNL     1     -41.542  57.381 -50.917  1.00  0.00     0.114 C 
BRANCH  25  26
HETATM   26  C   UNL     1     -41.905  56.023 -50.349  1.00  0.00     0.218 C 
HETATM   27  N   UNL     1     -40.883  55.365 -49.717  1.00  0.00    -0.357 N 
HETATM   28  H   UNL     1     -40.014  55.879 -49.548  1.00  0.00     0.162 HD
HETATM   29  O   UNL     1     -43.032  55.556 -50.508  1.00  0.00    -0.274 OA
BRANCH  27  30
HETATM   30  C   UNL     1     -40.935  53.988 -49.252  1.00  0.00     0.076 C 
HETATM   31  C   UNL     1     -40.319  53.840 -47.862  1.00  0.00     0.032 C 
HETATM   32  C   UNL     1     -40.326  53.001 -50.244  1.00  0.00     0.032 C 
ENDBRANCH  27  30
ENDBRANCH  25  26
ENDBRANCH   1  25
BRANCH   5  33
HETATM   33  C   UNL     1     -45.105  58.077 -54.836  1.00  0.00     0.176 C 
BRANCH  33  34
HETATM   34  O   UNL     1     -46.147  57.613 -55.671  1.00  0.00    -0.400 OA
HETATM   35  H   UNL     1     -45.858  56.723 -55.972  1.00  0.00     0.209 HD
ENDBRANCH  33  34
ENDBRANCH   5  33
BRANCH   7  36
HETATM   36  O   UNL     1     -44.214  55.532 -54.403  1.00  0.00    -0.395 OA
HETATM   37  H   UNL     1     -44.864  56.172 -54.055  1.00  0.00     0.210 HD
ENDBRANCH   7  36
TORSDOF 8
ENDMDL
MODEL 3
REMARK VINA RESULT:      -7.5      2.712      5.390
REMARK  8 active torsions:
REMARK  status: ('A' for Active; 'I' for Inactive)
REMARK    1  A    between atoms: C_2  and  N_3 
REMARK       I    between atoms: N_3  and  C_4 
REMARK    2  A    between atoms: C_4  and  C_5 
REMARK    3  A    between atoms: C_5  and  C_6 
REMARK    4  A    between atoms: C_10  and  C_11 
REMARK    5  A    between atoms: C_11  and  O_12 
REMARK    6  A    between atoms: C_14  and  O_15 
REMARK    7  A    between atoms: C_22  and  N_23 
REMARK       I    between atoms: N_23  and  C_24 
REMARK    8  A    between atoms: C_24  and  C_25 
ROOT
HETATM    1  C   UNL     1     -43.045  58.254 -56.883  1.00  0.00     0.056 C 
HETATM    2  C   UNL     1     -43.013  59.842 -57.024  1.00  0.00    -0.030 C 
HETATM    3  C   UNL     1     -41.636  60.282 -57.623  1.00  0.00     0.016 C 
HETATM    4  C   UNL     1     -43.168  60.594 -55.631  1.00  0.00     0.012 C 
HETATM    5  C   UNL     1     -44.633  60.807 -55.051  1.00  0.00     0.008 C 
HETATM    6  C   UNL     1     -44.611  62.162 -54.274  1.00  0.00     0.020 C 
HETATM    7  C   UNL     1     -45.679  60.967 -56.199  1.00  0.00     0.128 C 
HETATM    8  C   UNL     1     -45.036  61.386 -57.518  1.00  0.00     0.033 C 
HETATM    9  C   UNL     1     -44.109  60.291 -58.039  1.00  0.00     0.013 C 
HETATM   10  C   UNL     1     -42.128  60.124 -54.578  1.00  0.00     0.055 C 
HETATM   11  C   UNL     1     -41.918  58.656 -54.630  1.00  0.00     0.012 A 
HETATM   12  C   UNL     1     -42.274  57.811 -55.661  1.00  0.00     0.056 A 
HETATM   13  N   UNL     1     -41.898  56.488 -55.479  1.00  0.00    -0.227 NA
HETATM   14  C   UNL     1     -41.332  56.363 -54.306  1.00  0.00     0.174 A 
HETATM   15  S   UNL     1     -41.155  57.787 -53.381  1.00  0.00    -0.055 SA
ENDROOT
BRANCH  14  16
HETATM   16  N   UNL     1     -40.854  55.250 -53.683  1.00  0.00    -0.300 N 
HETATM   17  C   UNL     1     -41.660  54.319 -53.079  1.00  0.00     0.281 C 
HETATM   18  O   UNL     1     -42.886  54.314 -53.090  1.00  0.00    -0.265 OA
HETATM   19  H   UNL     1     -39.853  55.126 -53.643  1.00  0.00     0.171 HD
BRANCH  17  20
HETATM   20  C   UNL     1     -40.888  53.286 -52.409  1.00  0.00     0.142 A 
HETATM   21  O   UNL     1     -40.151  52.402 -53.159  1.00  0.00    -0.317 OA
HETATM   22  C   UNL     1     -39.527  51.564 -52.293  1.00  0.00     0.143 A 
HETATM   23  C   UNL     1     -39.848  51.883 -50.995  1.00  0.00     0.027 A 
HETATM   24  C   UNL     1     -40.726  52.992 -51.068  1.00  0.00     0.045 A 
ENDBRANCH  17  20
ENDBRANCH  14  16
BRANCH   1  25
HETATM   25  C   UNL     1     -42.570  57.530 -58.160  1.00  0.00     0.114 C 
BRANCH  25  26
HETATM   26  C   UNL     1     -43.508  56.433 -58.626  1.00  0.00     0.218 C 
HETATM   27  N   UNL     1     -44.461  56.827 -59.527  1.00  0.00    -0.357 N 
HETATM   28  H   UNL     1     -44.387  57.768 -59.923  1.00  0.00     0.162 HD
HETATM   29  O   UNL     1     -43.420  55.295 -58.167  1.00  0.00    -0.274 OA
BRANCH  27  30
HETATM   30  C   UNL     1     -45.574  56.007 -59.981  1.00  0.00     0.076 C 
HETATM   31  C   UNL     1     -45.176  55.124 -61.162  1.00  0.00     0.032 C 
HETATM   32  C   UNL     1     -46.828  56.822 -60.286  1.00  0.00     0.032 C 
ENDBRANCH  27  30
ENDBRANCH  25  26
ENDBRANCH   1  25
BRANCH   5  33
HETATM   33  C   UNL     1     -45.099  59.753 -54.013  1.00  0.00     0.176 C 
BRANCH  33  34
HETATM   34  O   UNL     1     -46.222  60.170 -53.261  1.00  0.00    -0.400 OA
HETATM   35  H   UNL     1     -46.999  59.959 -53.824  1.00  0.00     0.209 HD
ENDBRANCH  33  34
ENDBRANCH   5  33
BRANCH   7  36
HETATM   36  O   UNL     1     -46.406  59.752 -56.410  1.00  0.00    -0.395 OA
HETATM   37  H   UNL     1     -47.119  59.944 -57.048  1.00  0.00     0.210 HD
ENDBRANCH   7  36
TORSDOF 8
ENDMDL
MODEL 4
REMARK VINA RESULT:      -7.5      2.298      7.681
REMARK  8 active torsions:
REMARK  status: ('A' for Active; 'I' for Inactive)
REMARK    1  A    between atoms: C_2  and  N_3 
REMARK       I    between atoms: N_3  and  C_4 
REMARK    2  A    between atoms: C_4  and  C_5 
REMARK    3  A    between atoms: C_5  and  C_6 
REMARK    4  A    between atoms: C_10  and  C_11 
REMARK    5  A    between atoms: C_11  and  O_12 
REMARK    6  A    between atoms: C_14  and  O_15 
REMARK    7  A    between atoms: C_22  and  N_23 
REMARK       I    between atoms: N_23  and  C_24 
REMARK    8  A    between atoms: C_24  and  C_25 
ROOT
HETATM    1  C   UNL     1     -42.333  55.909 -54.808  1.00  0.00     0.056 C 
HETATM    2  C   UNL     1     -43.412  55.511 -53.704  1.00  0.00    -0.030 C 
HETATM    3  C   UNL     1     -44.513  54.610 -54.356  1.00  0.00     0.016 C 
HETATM    4  C   UNL     1     -44.159  56.770 -53.081  1.00  0.00     0.012 C 
HETATM    5  C   UNL     1     -43.442  57.562 -51.905  1.00  0.00     0.008 C 
HETATM    6  C   UNL     1     -44.576  58.093 -50.972  1.00  0.00     0.020 C 
HETATM    7  C   UNL     1     -42.559  56.612 -51.037  1.00  0.00     0.128 C 
HETATM    8  C   UNL     1     -42.969  55.148 -51.176  1.00  0.00     0.033 C 
HETATM    9  C   UNL     1     -42.725  54.651 -52.598  1.00  0.00     0.013 C 
HETATM   10  C   UNL     1     -44.803  57.679 -54.163  1.00  0.00     0.055 C 
HETATM   11  C   UNL     1     -43.925  57.827 -55.350  1.00  0.00     0.012 A 
HETATM   12  C   UNL     1     -42.852  57.027 -55.683  1.00  0.00     0.056 A 
HETATM   13  N   UNL     1     -42.244  57.349 -56.888  1.00  0.00    -0.227 NA
HETATM   14  C   UNL     1     -42.829  58.405 -57.393  1.00  0.00     0.174 A 
HETATM   15  S   UNL     1     -44.152  59.041 -56.522  1.00  0.00    -0.055 SA
ENDROOT
BRANCH  14  16
HETATM   16  N   UNL     1     -42.542  59.102 -58.526  1.00  0.00    -0.300 N 
HETATM   17  C   UNL     1     -41.707  60.190 -58.552  1.00  0.00     0.281 C 
HETATM   18  O   UNL     1     -41.058  60.621 -57.605  1.00  0.00    -0.265 OA
HETATM   19  H   UNL     1     -42.993  58.814 -59.383  1.00  0.00     0.171 HD
BRANCH  17  20
HETATM   20  C   UNL     1     -41.653  60.802 -59.869  1.00  0.00     0.142 A 
HETATM   21  O   UNL     1     -40.981  61.989 -60.033  1.00  0.00    -0.317 OA
HETATM   22  C   UNL     1     -41.075  62.325 -61.345  1.00  0.00     0.143 A 
HETATM   23  C   UNL     1     -41.799  61.382 -62.034  1.00  0.00     0.027 A 
HETATM   24  C   UNL     1     -42.172  60.400 -61.085  1.00  0.00     0.045 A 
ENDBRANCH  17  20
ENDBRANCH  14  16
BRANCH   1  25
HETATM   25  C   UNL     1     -41.852  54.701 -55.639  1.00  0.00     0.114 C 
BRANCH  25  26
HETATM   26  C   UNL     1     -40.619  54.022 -55.075  1.00  0.00     0.218 C 
HETATM   27  N   UNL     1     -40.811  52.739 -54.635  1.00  0.00    -0.357 N 
HETATM   28  H   UNL     1     -41.707  52.290 -54.845  1.00  0.00     0.162 HD
HETATM   29  O   UNL     1     -39.552  54.629 -54.987  1.00  0.00    -0.274 OA
BRANCH  27  30
HETATM   30  C   UNL     1     -39.835  51.951 -53.899  1.00  0.00     0.076 C 
HETATM   31  C   UNL     1     -39.940  50.465 -54.239  1.00  0.00     0.032 C 
HETATM   32  C   UNL     1     -39.893  52.188 -52.393  1.00  0.00     0.032 C 
ENDBRANCH  27  30
ENDBRANCH  25  26
ENDBRANCH   1  25
BRANCH   5  33
HETATM   33  C   UNL     1     -42.649  58.823 -52.337  1.00  0.00     0.176 C 
BRANCH  33  34
HETATM   34  O   UNL     1     -42.069  59.516 -51.249  1.00  0.00    -0.400 OA
HETATM   35  H   UNL     1     -42.813  60.000 -50.827  1.00  0.00     0.209 HD
ENDBRANCH  33  34
ENDBRANCH   5  33
BRANCH   7  36
HETATM   36  O   UNL     1     -41.175  56.733 -51.381  1.00  0.00    -0.395 OA
HETATM   37  H   UNL     1     -41.055  57.599 -51.815  1.00  0.00     0.210 HD
ENDBRANCH   7  36
TORSDOF 8
ENDMDL
MODEL 5
REMARK VINA RESULT:      -7.2      3.068      7.272
REMARK  8 active torsions:
REMARK  status: ('A' for Active; 'I' for Inactive)
REMARK    1  A    between atoms: C_2  and  N_3 
REMARK       I    between atoms: N_3  and  C_4 
REMARK    2  A    between atoms: C_4  and  C_5 
REMARK    3  A    between atoms: C_5  and  C_6 
REMARK    4  A    between atoms: C_10  and  C_11 
REMARK    5  A    between atoms: C_11  and  O_12 
REMARK    6  A    between atoms: C_14  and  O_15 
REMARK    7  A    between atoms: C_22  and  N_23 
REMARK       I    between atoms: N_23  and  C_24 
REMARK    8  A    between atoms: C_24  and  C_25 
ROOT
HETATM    1  C   UNL     1     -42.828  58.099 -53.337  1.00  0.00     0.056 C 
HETATM    2  C   UNL     1     -41.429  57.675 -52.701  1.00  0.00    -0.030 C 
HETATM    3  C   UNL     1     -40.280  58.488 -53.383  1.00  0.00     0.016 C 
HETATM    4  C   UNL     1     -41.090  56.134 -52.914  1.00  0.00     0.012 C 
HETATM    5  C   UNL     1     -41.720  55.080 -51.905  1.00  0.00     0.008 C 
HETATM    6  C   UNL     1     -40.677  53.927 -51.759  1.00  0.00     0.020 C 
HETATM    7  C   UNL     1     -41.907  55.697 -50.483  1.00  0.00     0.128 C 
HETATM    8  C   UNL     1     -41.017  56.916 -50.256  1.00  0.00     0.033 C 
HETATM    9  C   UNL     1     -41.415  58.057 -51.188  1.00  0.00     0.013 C 
HETATM   10  C   UNL     1     -41.157  55.709 -54.406  1.00  0.00     0.055 C 
HETATM   11  C   UNL     1     -42.302  56.338 -55.107  1.00  0.00     0.012 A 
HETATM   12  C   UNL     1     -43.031  57.428 -54.676  1.00  0.00     0.056 A 
HETATM   13  N   UNL     1     -44.009  57.855 -55.563  1.00  0.00    -0.227 NA
HETATM   14  C   UNL     1     -44.033  57.049 -56.593  1.00  0.00     0.174 A 
HETATM   15  S   UNL     1     -42.878  55.792 -56.613  1.00  0.00    -0.055 SA
ENDROOT
BRANCH  14  16
HETATM   16  N   UNL     1     -44.854  57.047 -57.679  1.00  0.00    -0.300 N 
HETATM   17  C   UNL     1     -44.812  58.007 -58.659  1.00  0.00     0.281 C 
HETATM   18  O   UNL     1     -44.001  58.922 -58.734  1.00  0.00    -0.265 OA
HETATM   19  H   UNL     1     -45.545  56.314 -57.745  1.00  0.00     0.171 HD
BRANCH  17  20
HETATM   20  C   UNL     1     -45.860  57.819 -59.649  1.00  0.00     0.142 A 
HETATM   21  O   UNL     1     -46.222  56.544 -60.011  1.00  0.00    -0.317 OA
HETATM   22  C   UNL     1     -47.217  56.655 -60.928  1.00  0.00     0.143 A 
HETATM   23  C   UNL     1     -47.504  57.977 -61.171  1.00  0.00     0.027 A 
HETATM   24  C   UNL     1     -46.630  58.729 -60.348  1.00  0.00     0.045 A 
ENDBRANCH  17  20
ENDBRANCH  14  16
BRANCH   1  25
HETATM   25  C   UNL     1     -43.006  59.629 -53.425  1.00  0.00     0.114 C 
BRANCH  25  26
HETATM   26  C   UNL     1     -44.235  60.145 -52.701  1.00  0.00     0.218 C 
HETATM   27  N   UNL     1     -43.999  60.673 -51.459  1.00  0.00    -0.357 N 
HETATM   28  H   UNL     1     -43.026  60.813 -51.174  1.00  0.00     0.162 HD
HETATM   29  O   UNL     1     -45.353  60.034 -53.203  1.00  0.00    -0.274 OA
BRANCH  27  30
HETATM   30  C   UNL     1     -45.027  61.065 -50.507  1.00  0.00     0.076 C 
HETATM   31  C   UNL     1     -44.517  62.127 -49.535  1.00  0.00     0.032 C 
HETATM   32  C   UNL     1     -45.641  59.877 -49.771  1.00  0.00     0.032 C 
ENDBRANCH  27  30
ENDBRANCH  25  26
ENDBRANCH   1  25
BRANCH   5  33
HETATM   33  C   UNL     1     -43.022  54.389 -52.390  1.00  0.00     0.176 C 
BRANCH  33  34
HETATM   34  O   UNL     1     -43.672  53.651 -51.373  1.00  0.00    -0.400 OA
HETATM   35  H   UNL     1     -44.497  53.316 -51.789  1.00  0.00     0.209 HD
ENDBRANCH  33  34
ENDBRANCH   5  33
BRANCH   7  36
HETATM   36  O   UNL     1     -43.268  56.077 -50.258  1.00  0.00    -0.395 OA
HETATM   37  H   UNL     1     -43.499  56.750 -50.926  1.00  0.00     0.210 HD
ENDBRANCH   7  36
TORSDOF 8
ENDMDL
MODEL 6
REMARK VINA RESULT:      -7.2      3.368      6.216
REMARK  8 active torsions:
REMARK  status: ('A' for Active; 'I' for Inactive)
REMARK    1  A    between atoms: C_2  and  N_3 
REMARK       I    between atoms: N_3  and  C_4 
REMARK    2  A    between atoms: C_4  and  C_5 
REMARK    3  A    between atoms: C_5  and  C_6 
REMARK    4  A    between atoms: C_10  and  C_11 
REMARK    5  A    between atoms: C_11  and  O_12 
REMARK    6  A    between atoms: C_14  and  O_15 
REMARK    7  A    between atoms: C_22  and  N_23 
REMARK       I    between atoms: N_23  and  C_24 
REMARK    8  A    between atoms: C_24  and  C_25 
ROOT
HETATM    1  C   UNL     1     -44.037  59.269 -53.959  1.00  0.00     0.056 C 
HETATM    2  C   UNL     1     -43.967  60.762 -53.402  1.00  0.00    -0.030 C 
HETATM    3  C   UNL     1     -42.823  61.537 -54.135  1.00  0.00     0.016 C 
HETATM    4  C   UNL     1     -43.643  60.830 -51.845  1.00  0.00     0.012 C 
HETATM    5  C   UNL     1     -44.842  60.642 -50.819  1.00  0.00     0.008 C 
HETATM    6  C   UNL     1     -44.510  61.532 -49.580  1.00  0.00     0.020 C 
HETATM    7  C   UNL     1     -46.183  61.182 -51.409  1.00  0.00     0.128 C 
HETATM    8  C   UNL     1     -45.960  62.180 -52.542  1.00  0.00     0.033 C 
HETATM    9  C   UNL     1     -45.299  61.500 -53.739  1.00  0.00     0.013 C 
HETATM   10  C   UNL     1     -42.353  60.051 -51.469  1.00  0.00     0.055 C 
HETATM   11  C   UNL     1     -42.247  58.772 -52.211  1.00  0.00     0.012 A 
HETATM   12  C   UNL     1     -42.949  58.419 -53.345  1.00  0.00     0.056 A 
HETATM   13  N   UNL     1     -42.604  57.185 -53.877  1.00  0.00    -0.227 NA
HETATM   14  C   UNL     1     -41.709  56.622 -53.106  1.00  0.00     0.174 A 
HETATM   15  S   UNL     1     -41.180  57.525 -51.757  1.00  0.00    -0.055 SA
ENDROOT
BRANCH  14  16
HETATM   16  N   UNL     1     -41.121  55.398 -53.203  1.00  0.00    -0.300 N 
HETATM   17  C   UNL     1     -41.695  54.245 -52.730  1.00  0.00     0.281 C 
HETATM   18  O   UNL     1     -42.818  54.147 -52.248  1.00  0.00    -0.265 OA
HETATM   19  H   UNL     1     -40.202  55.349 -53.618  1.00  0.00     0.171 HD
BRANCH  17  20
HETATM   20  C   UNL     1     -40.812  53.100 -52.875  1.00  0.00     0.142 A 
HETATM   21  O   UNL     1     -40.241  52.544 -51.756  1.00  0.00    -0.317 OA
HETATM   22  C   UNL     1     -39.484  51.497 -52.171  1.00  0.00     0.143 A 
HETATM   23  C   UNL     1     -39.549  51.364 -53.537  1.00  0.00     0.027 A 
HETATM   24  C   UNL     1     -40.404  52.397 -53.993  1.00  0.00     0.045 A 
ENDBRANCH  17  20
ENDBRANCH  14  16
BRANCH   1  25
HETATM   25  C   UNL     1     -44.020  59.205 -55.501  1.00  0.00     0.114 C 
BRANCH  25  26
HETATM   26  C   UNL     1     -45.161  58.400 -56.092  1.00  0.00     0.218 C 
HETATM   27  N   UNL     1     -45.369  58.585 -57.434  1.00  0.00    -0.357 N 
HETATM   28  H   UNL     1     -44.673  59.123 -57.957  1.00  0.00     0.162 HD
HETATM   29  O   UNL     1     -45.859  57.682 -55.378  1.00  0.00    -0.274 OA
BRANCH  27  30
HETATM   30  C   UNL     1     -46.502  58.066 -58.184  1.00  0.00     0.076 C 
HETATM   31  C   UNL     1     -46.050  57.311 -59.433  1.00  0.00     0.032 C 
HETATM   32  C   UNL     1     -47.535  59.138 -58.519  1.00  0.00     0.032 C 
ENDBRANCH  27  30
ENDBRANCH  25  26
ENDBRANCH   1  25
BRANCH   5  33
HETATM   33  C   UNL     1     -45.017  59.209 -50.253  1.00  0.00     0.176 C 
BRANCH  33  34
HETATM   34  O   UNL     1     -45.860  59.157 -49.118  1.00  0.00    -0.400 OA
HETATM   35  H   UNL     1     -45.260  59.276 -48.349  1.00  0.00     0.209 HD
ENDBRANCH  33  34
ENDBRANCH   5  33
BRANCH   7  36
HETATM   36  O   UNL     1     -47.002  60.114 -51.896  1.00  0.00    -0.395 OA
HETATM   37  H   UNL     1     -46.632  59.827 -52.753  1.00  0.00     0.210 HD
ENDBRANCH   7  36
TORSDOF 8
ENDMDL
MODEL 7
REMARK VINA RESULT:      -6.9      3.243      7.874
REMARK  8 active torsions:
REMARK  status: ('A' for Active; 'I' for Inactive)
REMARK    1  A    between atoms: C_2  and  N_3 
REMARK       I    between atoms: N_3  and  C_4 
REMARK    2  A    between atoms: C_4  and  C_5 
REMARK    3  A    between atoms: C_5  and  C_6 
REMARK    4  A    between atoms: C_10  and  C_11 
REMARK    5  A    between atoms: C_11  and  O_12 
REMARK    6  A    between atoms: C_14  and  O_15 
REMARK    7  A    between atoms: C_22  and  N_23 
REMARK       I    between atoms: N_23  and  C_24 
REMARK    8  A    between atoms: C_24  and  C_25 
ROOT
HETATM    1  C   UNL     1     -42.896  58.533 -54.474  1.00  0.00     0.056 C 
HETATM    2  C   UNL     1     -44.352  58.205 -53.912  1.00  0.00    -0.030 C 
HETATM    3  C   UNL     1     -45.178  57.461 -55.013  1.00  0.00     0.016 C 
HETATM    4  C   UNL     1     -45.176  59.510 -53.523  1.00  0.00     0.012 C 
HETATM    5  C   UNL     1     -44.917  60.165 -52.099  1.00  0.00     0.008 C 
HETATM    6  C   UNL     1     -46.278  60.775 -51.636  1.00  0.00     0.020 C 
HETATM    7  C   UNL     1     -44.529  59.085 -51.039  1.00  0.00     0.128 C 
HETATM    8  C   UNL     1     -44.972  57.684 -51.449  1.00  0.00     0.033 C 
HETATM    9  C   UNL     1     -44.230  57.227 -52.703  1.00  0.00     0.013 C 
HETATM   10  C   UNL     1     -45.263  60.532 -54.689  1.00  0.00     0.055 C 
HETATM   11  C   UNL     1     -43.981  60.636 -55.426  1.00  0.00     0.012 A 
HETATM   12  C   UNL     1     -42.933  59.738 -55.384  1.00  0.00     0.056 A 
HETATM   13  N   UNL     1     -41.876  60.045 -56.228  1.00  0.00    -0.227 NA
HETATM   14  C   UNL     1     -42.124  61.180 -56.829  1.00  0.00     0.174 A 
HETATM   15  S   UNL     1     -43.626  61.918 -56.488  1.00  0.00    -0.055 SA
ENDROOT
BRANCH  14  16
HETATM   16  N   UNL     1     -41.357  61.892 -57.700  1.00  0.00    -0.300 N 
HETATM   17  C   UNL     1     -41.319  61.643 -59.048  1.00  0.00     0.281 C 
HETATM   18  O   UNL     1     -42.011  60.830 -59.649  1.00  0.00    -0.265 OA
HETATM   19  H   UNL     1     -40.767  62.619 -57.322  1.00  0.00     0.171 HD
BRANCH  17  20
HETATM   20  C   UNL     1     -40.346  62.483 -59.728  1.00  0.00     0.142 A 
HETATM   21  O   UNL     1     -40.283  62.465 -61.100  1.00  0.00    -0.317 OA
HETATM   22  C   UNL     1     -39.312  63.339 -61.468  1.00  0.00     0.143 A 
HETATM   23  C   UNL     1     -38.740  63.920 -60.362  1.00  0.00     0.027 A 
HETATM   24  C   UNL     1     -39.405  63.370 -59.239  1.00  0.00     0.045 A 
ENDBRANCH  17  20
ENDBRANCH  14  16
BRANCH   1  25
HETATM   25  C   UNL     1     -42.230  57.317 -55.152  1.00  0.00     0.114 C 
BRANCH  25  26
HETATM   26  C   UNL     1     -41.316  56.529 -54.234  1.00  0.00     0.218 C 
HETATM   27  N   UNL     1     -41.309  55.175 -54.443  1.00  0.00    -0.357 N 
HETATM   28  H   UNL     1     -41.792  54.815 -55.272  1.00  0.00     0.162 HD
HETATM   29  O   UNL     1     -40.681  57.092 -53.344  1.00  0.00    -0.274 OA
BRANCH  27  30
HETATM   30  C   UNL     1     -40.658  54.198 -53.584  1.00  0.00     0.076 C 
HETATM   31  C   UNL     1     -40.228  52.959 -54.368  1.00  0.00     0.032 C 
HETATM   32  C   UNL     1     -41.494  53.829 -52.362  1.00  0.00     0.032 C 
ENDBRANCH  27  30
ENDBRANCH  25  26
ENDBRANCH   1  25
BRANCH   5  33
HETATM   33  C   UNL     1     -43.916  61.350 -52.082  1.00  0.00     0.176 C 
BRANCH  33  34
HETATM   34  O   UNL     1     -43.742  61.914 -50.797  1.00  0.00    -0.400 OA
HETATM   35  H   UNL     1     -44.538  62.471 -50.652  1.00  0.00     0.209 HD
ENDBRANCH  33  34
ENDBRANCH   5  33
BRANCH   7  36
HETATM   36  O   UNL     1     -43.116  59.070 -50.810  1.00  0.00    -0.395 OA
HETATM   37  H   UNL     1     -42.695  59.568 -51.536  1.00  0.00     0.210 HD
ENDBRANCH   7  36
TORSDOF 8
ENDMDL
MODEL 8
REMARK VINA RESULT:      -6.7      3.139      6.387
REMARK  8 active torsions:
REMARK  status: ('A' for Active; 'I' for Inactive)
REMARK    1  A    between atoms: C_2  and  N_3 
REMARK       I    between atoms: N_3  and  C_4 
REMARK    2  A    between atoms: C_4  and  C_5 
REMARK    3  A    between atoms: C_5  and  C_6 
REMARK    4  A    between atoms: C_10  and  C_11 
REMARK    5  A    between atoms: C_11  and  O_12 
REMARK    6  A    between atoms: C_14  and  O_15 
REMARK    7  A    between atoms: C_22  and  N_23 
REMARK       I    between atoms: N_23  and  C_24 
REMARK    8  A    between atoms: C_24  and  C_25 
ROOT
HETATM    1  C   UNL     1     -43.501  57.429 -56.887  1.00  0.00     0.056 C 
HETATM    2  C   UNL     1     -43.236  57.893 -58.390  1.00  0.00    -0.030 C 
HETATM    3  C   UNL     1     -41.857  58.627 -58.471  1.00  0.00     0.016 C 
HETATM    4  C   UNL     1     -44.332  58.914 -58.928  1.00  0.00     0.012 C 
HETATM    5  C   UNL     1     -45.697  58.325 -59.489  1.00  0.00     0.008 C 
HETATM    6  C   UNL     1     -46.157  59.282 -60.633  1.00  0.00     0.020 C 
HETATM    7  C   UNL     1     -45.483  56.922 -60.140  1.00  0.00     0.128 C 
HETATM    8  C   UNL     1     -44.030  56.681 -60.539  1.00  0.00     0.033 C 
HETATM    9  C   UNL     1     -43.131  56.635 -59.307  1.00  0.00     0.013 C 
HETATM   10  C   UNL     1     -44.503  60.149 -58.002  1.00  0.00     0.055 C 
HETATM   11  C   UNL     1     -44.455  59.773 -56.568  1.00  0.00     0.012 A 
HETATM   12  C   UNL     1     -43.972  58.592 -56.045  1.00  0.00     0.056 A 
HETATM   13  N   UNL     1     -43.982  58.528 -54.658  1.00  0.00    -0.227 NA
HETATM   14  C   UNL     1     -44.521  59.622 -54.184  1.00  0.00     0.174 A 
HETATM   15  S   UNL     1     -44.988  60.805 -55.323  1.00  0.00    -0.055 SA
ENDROOT
BRANCH  14  16
HETATM   16  N   UNL     1     -44.782  59.977 -52.897  1.00  0.00    -0.300 N 
HETATM   17  C   UNL     1     -43.840  60.512 -52.055  1.00  0.00     0.281 C 
HETATM   18  O   UNL     1     -42.692  60.814 -52.361  1.00  0.00    -0.265 OA
HETATM   19  H   UNL     1     -45.712  59.808 -52.541  1.00  0.00     0.171 HD
BRANCH  17  20
HETATM   20  C   UNL     1     -44.360  60.708 -50.712  1.00  0.00     0.142 A 
HETATM   21  O   UNL     1     -43.688  61.534 -49.843  1.00  0.00    -0.317 OA
HETATM   22  C   UNL     1     -44.388  61.547 -48.681  1.00  0.00     0.143 A 
HETATM   23  C   UNL     1     -45.498  60.743 -48.776  1.00  0.00     0.027 A 
HETATM   24  C   UNL     1     -45.482  60.201 -50.084  1.00  0.00     0.045 A 
ENDBRANCH  17  20
ENDBRANCH  14  16
BRANCH   1  25
HETATM   25  C   UNL     1     -42.286  56.715 -56.259  1.00  0.00     0.114 C 
BRANCH  25  26
HETATM   26  C   UNL     1     -42.608  55.346 -55.690  1.00  0.00     0.218 C 
HETATM   27  N   UNL     1     -42.101  55.101 -54.441  1.00  0.00    -0.357 N 
HETATM   28  H   UNL     1     -41.678  55.884 -53.933  1.00  0.00     0.162 HD
HETATM   29  O   UNL     1     -43.238  54.523 -56.352  1.00  0.00    -0.274 OA
BRANCH  27  30
HETATM   30  C   UNL     1     -42.123  53.813 -53.767  1.00  0.00     0.076 C 
HETATM   31  C   UNL     1     -42.380  53.967 -52.268  1.00  0.00     0.032 C 
HETATM   32  C   UNL     1     -40.876  52.976 -54.039  1.00  0.00     0.032 C 
ENDBRANCH  27  30
ENDBRANCH  25  26
ENDBRANCH   1  25
BRANCH   5  33
HETATM   33  C   UNL     1     -46.876  58.301 -58.482  1.00  0.00     0.176 C 
BRANCH  33  34
HETATM   34  O   UNL     1     -46.679  57.395 -57.414  1.00  0.00    -0.400 OA
HETATM   35  H   UNL     1     -47.436  57.547 -56.806  1.00  0.00     0.209 HD
ENDBRANCH  33  34
ENDBRANCH   5  33
BRANCH   7  36
HETATM   36  O   UNL     1     -45.894  55.873 -59.256  1.00  0.00    -0.395 OA
HETATM   37  H   UNL     1     -46.645  55.412 -59.677  1.00  0.00     0.210 HD
ENDBRANCH   7  36
TORSDOF 8
ENDMDL
MODEL 9
REMARK VINA RESULT:      -6.6      3.767      6.523
REMARK  8 active torsions:
REMARK  status: ('A' for Active; 'I' for Inactive)
REMARK    1  A    between atoms: C_2  and  N_3 
REMARK       I    between atoms: N_3  and  C_4 
REMARK    2  A    between atoms: C_4  and  C_5 
REMARK    3  A    between atoms: C_5  and  C_6 
REMARK    4  A    between atoms: C_10  and  C_11 
REMARK    5  A    between atoms: C_11  and  O_12 
REMARK    6  A    between atoms: C_14  and  O_15 
REMARK    7  A    between atoms: C_22  and  N_23 
REMARK       I    between atoms: N_23  and  C_24 
REMARK    8  A    between atoms: C_24  and  C_25 
ROOT
HETATM    1  C   UNL     1     -42.699  58.726 -54.892  1.00  0.00     0.056 C 
HETATM    2  C   UNL     1     -42.706  59.305 -56.378  1.00  0.00    -0.030 C 
HETATM    3  C   UNL     1     -41.684  60.485 -56.481  1.00  0.00     0.016 C 
HETATM    4  C   UNL     1     -44.123  59.885 -56.813  1.00  0.00     0.012 C 
HETATM    5  C   UNL     1     -45.221  58.867 -57.344  1.00  0.00     0.008 C 
HETATM    6  C   UNL     1     -46.058  59.635 -58.415  1.00  0.00     0.020 C 
HETATM    7  C   UNL     1     -44.563  57.655 -58.077  1.00  0.00     0.128 C 
HETATM    8  C   UNL     1     -43.146  57.962 -58.552  1.00  0.00     0.033 C 
HETATM    9  C   UNL     1     -42.217  58.199 -57.364  1.00  0.00     0.013 C 
HETATM   10  C   UNL     1     -44.665  60.946 -55.816  1.00  0.00     0.055 C 
HETATM   11  C   UNL     1     -44.401  60.564 -54.408  1.00  0.00     0.012 A 
HETATM   12  C   UNL     1     -43.500  59.615 -53.969  1.00  0.00     0.056 A 
HETATM   13  N   UNL     1     -43.404  59.505 -52.589  1.00  0.00    -0.227 NA
HETATM   14  C   UNL     1     -44.266  60.318 -52.035  1.00  0.00     0.174 A 
HETATM   15  S   UNL     1     -45.190  61.294 -53.088  1.00  0.00    -0.055 SA
ENDROOT
BRANCH  14  16
HETATM   16  N   UNL     1     -44.559  60.513 -50.720  1.00  0.00    -0.300 N 
HETATM   17  C   UNL     1     -45.545  59.827 -50.057  1.00  0.00     0.281 C 
HETATM   18  O   UNL     1     -46.219  58.913 -50.518  1.00  0.00    -0.265 OA
HETATM   19  H   UNL     1     -44.040  61.221 -50.222  1.00  0.00     0.171 HD
BRANCH  17  20
HETATM   20  C   UNL     1     -45.711  60.298 -48.692  1.00  0.00     0.142 A 
HETATM   21  O   UNL     1     -46.233  59.451 -47.745  1.00  0.00    -0.317 OA
HETATM   22  C   UNL     1     -46.266  60.132 -46.572  1.00  0.00     0.143 A 
HETATM   23  C   UNL     1     -45.780  61.406 -46.739  1.00  0.00     0.027 A 
HETATM   24  C   UNL     1     -45.422  61.516 -48.105  1.00  0.00     0.045 A 
ENDBRANCH  17  20
ENDBRANCH  14  16
BRANCH   1  25
HETATM   25  C   UNL     1     -41.274  58.472 -54.356  1.00  0.00     0.114 C 
BRANCH  25  26
HETATM   26  C   UNL     1     -41.089  57.099 -53.741  1.00  0.00     0.218 C 
HETATM   27  N   UNL     1     -41.572  56.962 -52.466  1.00  0.00    -0.357 N 
HETATM   28  H   UNL     1     -42.137  57.726 -52.083  1.00  0.00     0.162 HD
HETATM   29  O   UNL     1     -40.496  56.211 -54.352  1.00  0.00    -0.274 OA
BRANCH  27  30
HETATM   30  C   UNL     1     -41.356  55.808 -51.608  1.00  0.00     0.076 C 
HETATM   31  C   UNL     1     -42.470  54.774 -51.767  1.00  0.00     0.032 C 
HETATM   32  C   UNL     1     -41.144  56.184 -50.144  1.00  0.00     0.032 C 
ENDBRANCH  27  30
ENDBRANCH  25  26
ENDBRANCH   1  25
BRANCH   5  33
HETATM   33  C   UNL     1     -46.253  58.389 -56.289  1.00  0.00     0.176 C 
BRANCH  33  34
HETATM   34  O   UNL     1     -47.270  57.572 -56.836  1.00  0.00    -0.400 OA
HETATM   35  H   UNL     1     -47.546  58.026 -57.663  1.00  0.00     0.209 HD
ENDBRANCH  33  34
ENDBRANCH   5  33
BRANCH   7  36
HETATM   36  O   UNL     1     -44.522  56.500 -57.233  1.00  0.00    -0.395 OA
HETATM   37  H   UNL     1     -45.046  55.800 -57.667  1.00  0.00     0.210 HD
ENDBRANCH   7  36
TORSDOF 8
ENDMDL
MODEL 10
REMARK VINA RESULT:      -6.4      3.667      7.694
REMARK  8 active torsions:
REMARK  status: ('A' for Active; 'I' for Inactive)
REMARK    1  A    between atoms: C_2  and  N_3 
REMARK       I    between atoms: N_3  and  C_4 
REMARK    2  A    between atoms: C_4  and  C_5 
REMARK    3  A    between atoms: C_5  and  C_6 
REMARK    4  A    between atoms: C_10  and  C_11 
REMARK    5  A    between atoms: C_11  and  O_12 
REMARK    6  A    between atoms: C_14  and  O_15 
REMARK    7  A    between atoms: C_22  and  N_23 
REMARK       I    between atoms: N_23  and  C_24 
REMARK    8  A    between atoms: C_24  and  C_25 
ROOT
HETATM    1  C   UNL     1     -43.371  57.888 -53.367  1.00  0.00     0.056 C 
HETATM    2  C   UNL     1     -41.985  57.133 -53.138  1.00  0.00    -0.030 C 
HETATM    3  C   UNL     1     -40.804  58.131 -53.379  1.00  0.00     0.016 C 
HETATM    4  C   UNL     1     -41.768  55.915 -54.139  1.00  0.00     0.012 C 
HETATM    5  C   UNL     1     -42.437  54.520 -53.780  1.00  0.00     0.008 C 
HETATM    6  C   UNL     1     -41.477  53.414 -54.322  1.00  0.00     0.020 C 
HETATM    7  C   UNL     1     -42.527  54.314 -52.235  1.00  0.00     0.128 C 
HETATM    8  C   UNL     1     -41.542  55.197 -51.473  1.00  0.00     0.033 C 
HETATM    9  C   UNL     1     -41.889  56.672 -51.651  1.00  0.00     0.013 C 
HETATM   10  C   UNL     1     -41.918  56.331 -55.628  1.00  0.00     0.055 C 
HETATM   11  C   UNL     1     -43.038  57.283 -55.823  1.00  0.00     0.012 A 
HETATM   12  C   UNL     1     -43.669  58.021 -54.842  1.00  0.00     0.056 A 
HETATM   13  N   UNL     1     -44.645  58.890 -55.311  1.00  0.00    -0.227 NA
HETATM   14  C   UNL     1     -44.763  58.740 -56.606  1.00  0.00     0.174 A 
HETATM   15  S   UNL     1     -43.706  57.625 -57.351  1.00  0.00    -0.055 SA
ENDROOT
BRANCH  14  16
HETATM   16  N   UNL     1     -45.620  59.339 -57.477  1.00  0.00    -0.300 N 
HETATM   17  C   UNL     1     -46.861  58.837 -57.781  1.00  0.00     0.281 C 
HETATM   18  O   UNL     1     -47.387  57.859 -57.262  1.00  0.00    -0.265 OA
HETATM   19  H   UNL     1     -45.308  60.178 -57.942  1.00  0.00     0.171 HD
BRANCH  17  20
HETATM   20  C   UNL     1     -47.526  59.618 -58.810  1.00  0.00     0.142 A 
HETATM   21  O   UNL     1     -47.034  59.599 -60.093  1.00  0.00    -0.317 OA
HETATM   22  C   UNL     1     -47.840  60.393 -60.843  1.00  0.00     0.143 A 
HETATM   23  C   UNL     1     -48.842  60.931 -60.072  1.00  0.00     0.027 A 
HETATM   24  C   UNL     1     -48.641  60.433 -58.761  1.00  0.00     0.045 A 
ENDBRANCH  17  20
ENDBRANCH  14  16
BRANCH   1  25
HETATM   25  C   UNL     1     -43.439  59.248 -52.639  1.00  0.00     0.114 C 
BRANCH  25  26
HETATM   26  C   UNL     1     -44.556  59.339 -51.618  1.00  0.00     0.218 C 
HETATM   27  N   UNL     1     -44.859  60.608 -51.200  1.00  0.00    -0.357 N 
HETATM   28  H   UNL     1     -44.427  61.393 -51.696  1.00  0.00     0.162 HD
HETATM   29  O   UNL     1     -45.094  58.322 -51.182  1.00  0.00    -0.274 OA
BRANCH  27  30
HETATM   30  C   UNL     1     -45.761  60.937 -50.107  1.00  0.00     0.076 C 
HETATM   31  C   UNL     1     -46.522  62.234 -50.377  1.00  0.00     0.032 C 
HETATM   32  C   UNL     1     -45.066  60.965 -48.749  1.00  0.00     0.032 C 
ENDBRANCH  27  30
ENDBRANCH  25  26
ENDBRANCH   1  25
BRANCH   5  33
HETATM   33  C   UNL     1     -43.802  54.240 -54.462  1.00  0.00     0.176 C 
BRANCH  33  34
HETATM   34  O   UNL     1     -43.675  53.784 -55.794  1.00  0.00    -0.400 OA
HETATM   35  H   UNL     1     -43.848  52.817 -55.752  1.00  0.00     0.209 HD
ENDBRANCH  33  34
ENDBRANCH   5  33
BRANCH   7  36
HETATM   36  O   UNL     1     -43.848  54.583 -51.753  1.00  0.00    -0.395 OA
HETATM   37  H   UNL     1     -43.953  54.110 -50.905  1.00  0.00     0.210 HD
ENDBRANCH   7  36
TORSDOF 8
ENDMDL
