MODEL 1
REMARK VINA RESULT:      -8.4      0.000      0.000
REMARK  8 active torsions:
REMARK  status: ('A' for Active; 'I' for Inactive)
REMARK    1  A    between atoms: O_2  and  C_3 
REMARK    2  A    between atoms: C_3  and  C_4 
REMARK    3  A    between atoms: C_4  and  C_5 
REMARK    4  A    between atoms: C_5  and  N_6 
REMARK    5  A    between atoms: N_6  and  C_8 
REMARK    6  A    between atoms: N_6  and  C_21 
REMARK    7  A    between atoms: C_8  and  C_9 
REMARK    8  A    between atoms: C_21  and  C_22 
ROOT
HETATM    1  N   UNL     1     -42.735  56.605 -56.290  1.00  0.00    -0.058 N 
HETATM    2  H   UNL     1     -41.747  56.376 -56.102  1.00  0.00     0.280 HD
ENDROOT
BRANCH   1   3
HETATM    3  C   UNL     1     -43.101  56.113 -57.675  1.00  0.00     0.238 C 
BRANCH   3   4
HETATM    4  C   UNL     1     -42.907  57.199 -58.729  1.00  0.00     0.054 C 
BRANCH   4   5
HETATM    5  C   UNL     1     -43.945  57.055 -59.839  1.00  0.00     0.168 C 
BRANCH   5   6
HETATM    6  O   UNL     1     -43.639  55.862 -60.555  1.00  0.00    -0.396 OA
HETATM    7  C   UNL     1     -44.806  55.076 -60.791  1.00  0.00     0.201 C 
ENDBRANCH   5   6
ENDBRANCH   4   5
ENDBRANCH   3   4
ENDBRANCH   1   3
BRANCH   1   8
HETATM    8  C   UNL     1     -42.856  58.122 -56.099  1.00  0.00     0.313 C 
BRANCH   8   9
HETATM    9  C   UNL     1     -42.589  58.598 -54.672  1.00  0.00     0.133 A 
HETATM   10  N   UNL     1     -41.397  58.501 -54.171  1.00  0.00    -0.233 NA
HETATM   11  C   UNL     1     -41.197  58.970 -52.855  1.00  0.00     0.076 A 
HETATM   12  C   UNL     1     -42.236  59.500 -52.079  1.00  0.00     0.061 A 
HETATM   13  C   UNL     1     -39.917  58.909 -52.300  1.00  0.00     0.056 A 
HETATM   14  C   UNL     1     -43.571  59.564 -52.693  1.00  0.00     0.259 A 
HETATM   15  C   UNL     1     -42.019  59.958 -50.777  1.00  0.00     0.021 A 
HETATM   16  O   UNL     1     -44.550  60.003 -52.108  1.00  0.00    -0.267 OA
HETATM   17  N   UNL     1     -43.659  59.096 -53.980  1.00  0.00    -0.309 N 
HETATM   18  H   UNL     1     -44.590  59.174 -54.374  1.00  0.00     0.170 HD
HETATM   19  C   UNL     1     -40.737  59.883 -50.234  1.00  0.00     0.025 A 
HETATM   20  C   UNL     1     -39.693  59.360 -50.997  1.00  0.00     0.036 A 
HETATM   21 CL   UNL     1     -38.113  59.264 -50.328  1.00  0.00    -0.084 Cl
ENDBRANCH   8   9
ENDBRANCH   1   8
BRANCH   1  22
HETATM   22  C   UNL     1     -43.501  55.797 -55.229  1.00  0.00     0.313 C 
BRANCH  22  23
HETATM   23  C   UNL     1     -42.572  54.990 -54.336  1.00  0.00     0.133 A 
HETATM   24  N   UNL     1     -42.087  53.872 -54.774  1.00  0.00    -0.233 NA
HETATM   25  C   UNL     1     -41.227  53.154 -53.916  1.00  0.00     0.076 A 
HETATM   26  C   UNL     1     -40.849  53.635 -52.656  1.00  0.00     0.061 A 
HETATM   27  C   UNL     1     -40.726  51.921 -54.337  1.00  0.00     0.056 A 
HETATM   28  C   UNL     1     -41.384  54.941 -52.242  1.00  0.00     0.259 A 
HETATM   29  C   UNL     1     -39.988  52.914 -51.824  1.00  0.00     0.021 A 
HETATM   30  O   UNL     1     -41.057  55.493 -51.201  1.00  0.00    -0.267 OA
HETATM   31  N   UNL     1     -42.263  55.525 -53.118  1.00  0.00    -0.309 N 
HETATM   32  H   UNL     1     -42.574  56.449 -52.843  1.00  0.00     0.170 HD
HETATM   33  C   UNL     1     -39.496  51.683 -52.257  1.00  0.00     0.025 A 
HETATM   34  C   UNL     1     -39.866  51.194 -53.511  1.00  0.00     0.036 A 
HETATM   35 CL   UNL     1     -39.255  49.679 -54.048  1.00  0.00    -0.084 Cl
ENDBRANCH  22  23
ENDBRANCH   1  22
TORSDOF 8
ENDMDL
MODEL 2
REMARK VINA RESULT:      -8.3      2.896      6.853
REMARK  8 active torsions:
REMARK  status: ('A' for Active; 'I' for Inactive)
REMARK    1  A    between atoms: O_2  and  C_3 
REMARK    2  A    between atoms: C_3  and  C_4 
REMARK    3  A    between atoms: C_4  and  C_5 
REMARK    4  A    between atoms: C_5  and  N_6 
REMARK    5  A    between atoms: N_6  and  C_8 
REMARK    6  A    between atoms: N_6  and  C_21 
REMARK    7  A    between atoms: C_8  and  C_9 
REMARK    8  A    between atoms: C_21  and  C_22 
ROOT
HETATM    1  N   UNL     1     -43.643  58.262 -52.704  1.00  0.00    -0.058 N 
HETATM    2  H   UNL     1     -42.800  57.888 -53.165  1.00  0.00     0.280 HD
ENDROOT
BRANCH   1   3
HETATM    3  C   UNL     1     -43.562  59.773 -52.678  1.00  0.00     0.238 C 
BRANCH   3   4
HETATM    4  C   UNL     1     -42.137  60.267 -52.908  1.00  0.00     0.054 C 
BRANCH   4   5
HETATM    5  C   UNL     1     -41.339  59.237 -53.702  1.00  0.00     0.168 C 
BRANCH   5   6
HETATM    6  O   UNL     1     -40.023  59.205 -53.156  1.00  0.00    -0.396 OA
HETATM    7  C   UNL     1     -40.042  59.002 -51.745  1.00  0.00     0.201 C 
ENDBRANCH   5   6
ENDBRANCH   4   5
ENDBRANCH   3   4
ENDBRANCH   1   3
BRANCH   1   8
HETATM    8  C   UNL     1     -43.688  57.601 -51.320  1.00  0.00     0.313 C 
BRANCH   8   9
HETATM    9  C   UNL     1     -42.736  56.418 -51.158  1.00  0.00     0.133 A 
HETATM   10  N   UNL     1     -42.469  55.658 -52.176  1.00  0.00    -0.233 NA
HETATM   11  C   UNL     1     -41.571  54.588 -51.981  1.00  0.00     0.076 A 
HETATM   12  C   UNL     1     -40.993  54.310 -50.736  1.00  0.00     0.061 A 
HETATM   13  C   UNL     1     -41.240  53.774 -53.065  1.00  0.00     0.056 A 
HETATM   14  C   UNL     1     -41.350  55.191 -49.613  1.00  0.00     0.259 A 
HETATM   15  C   UNL     1     -40.106  53.243 -50.561  1.00  0.00     0.021 A 
HETATM   16  O   UNL     1     -40.908  55.039 -48.484  1.00  0.00    -0.267 OA
HETATM   17  N   UNL     1     -42.220  56.210 -49.908  1.00  0.00    -0.309 N 
HETATM   18  H   UNL     1     -42.426  56.806 -49.115  1.00  0.00     0.170 HD
HETATM   19  C   UNL     1     -39.791  52.434 -51.651  1.00  0.00     0.025 A 
HETATM   20  C   UNL     1     -40.359  52.703 -52.898  1.00  0.00     0.036 A 
HETATM   21 CL   UNL     1     -39.974  51.704 -54.243  1.00  0.00    -0.084 Cl
ENDBRANCH   8   9
ENDBRANCH   1   8
BRANCH   1  22
HETATM   22  C   UNL     1     -44.789  57.815 -53.627  1.00  0.00     0.313 C 
BRANCH  22  23
HETATM   23  C   UNL     1     -44.294  57.408 -55.006  1.00  0.00     0.133 A 
HETATM   24  N   UNL     1     -44.453  58.222 -56.001  1.00  0.00    -0.233 NA
HETATM   25  C   UNL     1     -43.979  57.809 -57.263  1.00  0.00     0.076 A 
HETATM   26  C   UNL     1     -43.305  56.595 -57.453  1.00  0.00     0.061 A 
HETATM   27  C   UNL     1     -44.178  58.640 -58.366  1.00  0.00     0.056 A 
HETATM   28  C   UNL     1     -43.100  55.743 -56.271  1.00  0.00     0.259 A 
HETATM   29  C   UNL     1     -42.833  56.207 -58.710  1.00  0.00     0.021 A 
HETATM   30  O   UNL     1     -42.456  54.704 -56.305  1.00  0.00    -0.267 OA
HETATM   31  N   UNL     1     -43.658  56.204 -55.107  1.00  0.00    -0.309 N 
HETATM   32  H   UNL     1     -43.455  55.633 -54.293  1.00  0.00     0.170 HD
HETATM   33  C   UNL     1     -43.040  57.047 -59.803  1.00  0.00     0.025 A 
HETATM   34  C   UNL     1     -43.711  58.259 -59.626  1.00  0.00     0.036 A 
HETATM   35 CL   UNL     1     -43.961  59.298 -60.974  1.00  0.00    -0.084 Cl
ENDBRANCH  22  23
ENDBRANCH   1  22
TORSDOF 8
ENDMDL
MODEL 3
REMARK VINA RESULT:      -8.3      2.763      6.067
REMARK  8 active torsions:
REMARK  status: ('A' for Active; 'I' for Inactive)
REMARK    1  A    between atoms: O_2  and  C_3 
REMARK    2  A    between atoms: C_3  and  C_4 
REMARK    3  A    between atoms: C_4  and  C_5 
REMARK    4  A    between atoms: C_5  and  N_6 
REMARK    5  A    between atoms: N_6  and  C_8 
REMARK    6  A    between atoms: N_6  and  C_21 
REMARK    7  A    between atoms: C_8  and  C_9 
REMARK    8  A    between atoms: C_21  and  C_22 
ROOT
HETATM    1  N   UNL     1     -42.998  57.563 -52.610  1.00  0.00    -0.058 N 
HETATM    2  H   UNL     1     -43.192  56.861 -53.341  1.00  0.00     0.280 HD
ENDROOT
BRANCH   1   3
HETATM    3  C   UNL     1     -44.133  57.558 -51.608  1.00  0.00     0.238 C 
BRANCH   3   4
HETATM    4  C   UNL     1     -44.474  58.968 -51.134  1.00  0.00     0.054 C 
BRANCH   4   5
HETATM    5  C   UNL     1     -45.963  59.078 -50.817  1.00  0.00     0.168 C 
BRANCH   5   6
HETATM    6  O   UNL     1     -46.081  59.483 -49.457  1.00  0.00    -0.396 OA
HETATM    7  C   UNL     1     -45.333  60.668 -49.193  1.00  0.00     0.201 C 
ENDBRANCH   5   6
ENDBRANCH   4   5
ENDBRANCH   3   4
ENDBRANCH   1   3
BRANCH   1   8
HETATM    8  C   UNL     1     -42.806  58.893 -53.351  1.00  0.00     0.313 C 
BRANCH   8   9
HETATM    9  C   UNL     1     -42.636  58.751 -54.862  1.00  0.00     0.133 A 
HETATM   10  N   UNL     1     -43.048  57.677 -55.461  1.00  0.00    -0.233 NA
HETATM   11  C   UNL     1     -42.884  57.600 -56.860  1.00  0.00     0.076 A 
HETATM   12  C   UNL     1     -42.273  58.618 -57.603  1.00  0.00     0.061 A 
HETATM   13  C   UNL     1     -43.347  56.469 -57.536  1.00  0.00     0.056 A 
HETATM   14  C   UNL     1     -41.806  59.803 -56.866  1.00  0.00     0.259 A 
HETATM   15  C   UNL     1     -42.118  58.523 -58.988  1.00  0.00     0.021 A 
HETATM   16  O   UNL     1     -41.256  60.749 -57.412  1.00  0.00    -0.267 OA
HETATM   17  N   UNL     1     -42.024  59.788 -55.512  1.00  0.00    -0.309 N 
HETATM   18  H   UNL     1     -41.705  60.628 -55.043  1.00  0.00     0.170 HD
HETATM   19  C   UNL     1     -42.578  57.386 -59.649  1.00  0.00     0.025 A 
HETATM   20  C   UNL     1     -43.190  56.364 -58.920  1.00  0.00     0.036 A 
HETATM   21 CL   UNL     1     -43.756  54.959 -59.733  1.00  0.00    -0.084 Cl
ENDBRANCH   8   9
ENDBRANCH   1   8
BRANCH   1  22
HETATM   22  C   UNL     1     -41.711  57.048 -51.945  1.00  0.00     0.313 C 
BRANCH  22  23
HETATM   23  C   UNL     1     -41.251  55.721 -52.527  1.00  0.00     0.133 A 
HETATM   24  N   UNL     1     -40.953  54.748 -51.727  1.00  0.00    -0.233 NA
HETATM   25  C   UNL     1     -40.533  53.532 -52.306  1.00  0.00     0.076 A 
HETATM   26  C   UNL     1     -40.485  53.337 -53.692  1.00  0.00     0.061 A 
HETATM   27  C   UNL     1     -40.156  52.479 -51.471  1.00  0.00     0.056 A 
HETATM   28  C   UNL     1     -40.897  54.460 -54.548  1.00  0.00     0.259 A 
HETATM   29  C   UNL     1     -40.076  52.122 -54.248  1.00  0.00     0.021 A 
HETATM   30  O   UNL     1     -40.973  54.374 -55.766  1.00  0.00    -0.267 OA
HETATM   31  N   UNL     1     -41.223  55.617 -53.889  1.00  0.00    -0.309 N 
HETATM   32  H   UNL     1     -41.560  56.360 -54.492  1.00  0.00     0.170 HD
HETATM   33  C   UNL     1     -39.702  51.079 -53.402  1.00  0.00     0.025 A 
HETATM   34  C   UNL     1     -39.744  51.262 -52.018  1.00  0.00     0.036 A 
HETATM   35 CL   UNL     1     -39.289  49.974 -50.974  1.00  0.00    -0.084 Cl
ENDBRANCH  22  23
ENDBRANCH   1  22
TORSDOF 8
ENDMDL
MODEL 4
REMARK VINA RESULT:      -8.1      3.192      6.744
REMARK  8 active torsions:
REMARK  status: ('A' for Active; 'I' for Inactive)
REMARK    1  A    between atoms: O_2  and  C_3 
REMARK    2  A    between atoms: C_3  and  C_4 
REMARK    3  A    between atoms: C_4  and  C_5 
REMARK    4  A    between atoms: C_5  and  N_6 
REMARK    5  A    between atoms: N_6  and  C_8 
REMARK    6  A    between atoms: N_6  and  C_21 
REMARK    7  A    between atoms: C_8  and  C_9 
REMARK    8  A    between atoms: C_21  and  C_22 
ROOT
HETATM    1  N   UNL     1     -42.883  56.729 -55.389  1.00  0.00    -0.058 N 
HETATM    2  H   UNL     1     -42.747  55.739 -55.643  1.00  0.00     0.280 HD
ENDROOT
BRANCH   1   3
HETATM    3  C   UNL     1     -44.218  56.880 -54.691  1.00  0.00     0.238 C 
BRANCH   3   4
HETATM    4  C   UNL     1     -44.241  58.099 -53.774  1.00  0.00     0.054 C 
BRANCH   4   5
HETATM    5  C   UNL     1     -44.735  57.710 -52.383  1.00  0.00     0.168 C 
BRANCH   5   6
HETATM    6  O   UNL     1     -43.607  57.723 -51.512  1.00  0.00    -0.396 OA
HETATM    7  C   UNL     1     -42.955  58.991 -51.513  1.00  0.00     0.201 C 
ENDBRANCH   5   6
ENDBRANCH   4   5
ENDBRANCH   3   4
ENDBRANCH   1   3
BRANCH   1   8
HETATM    8  C   UNL     1     -42.755  57.517 -56.699  1.00  0.00     0.313 C 
BRANCH   8   9
HETATM    9  C   UNL     1     -43.753  57.105 -57.780  1.00  0.00     0.133 A 
HETATM   10  N   UNL     1     -44.623  57.963 -58.216  1.00  0.00    -0.233 NA
HETATM   11  C   UNL     1     -45.513  57.541 -59.227  1.00  0.00     0.076 A 
HETATM   12  C   UNL     1     -45.503  56.238 -59.741  1.00  0.00     0.061 A 
HETATM   13  C   UNL     1     -46.439  58.451 -59.739  1.00  0.00     0.056 A 
HETATM   14  C   UNL     1     -44.508  55.303 -59.192  1.00  0.00     0.259 A 
HETATM   15  C   UNL     1     -46.394  55.838 -60.741  1.00  0.00     0.021 A 
HETATM   16  O   UNL     1     -44.413  54.142 -59.564  1.00  0.00    -0.267 OA
HETATM   17  N   UNL     1     -43.681  55.813 -58.224  1.00  0.00    -0.309 N 
HETATM   18  H   UNL     1     -42.998  55.145 -57.885  1.00  0.00     0.170 HD
HETATM   19  C   UNL     1     -47.317  56.756 -61.238  1.00  0.00     0.025 A 
HETATM   20  C   UNL     1     -47.336  58.057 -60.735  1.00  0.00     0.036 A 
HETATM   21 CL   UNL     1     -48.477  59.190 -61.343  1.00  0.00    -0.084 Cl
ENDBRANCH   8   9
ENDBRANCH   1   8
BRANCH   1  22
HETATM   22  C   UNL     1     -41.740  57.009 -54.399  1.00  0.00     0.313 C 
BRANCH  22  23
HETATM   23  C   UNL     1     -41.310  55.761 -53.645  1.00  0.00     0.133 A 
HETATM   24  N   UNL     1     -40.932  54.717 -54.313  1.00  0.00    -0.233 NA
HETATM   25  C   UNL     1     -40.538  53.580 -53.577  1.00  0.00     0.076 A 
HETATM   26  C   UNL     1     -40.493  53.569 -52.177  1.00  0.00     0.061 A 
HETATM   27  C   UNL     1     -40.173  52.423 -54.265  1.00  0.00     0.056 A 
HETATM   28  C   UNL     1     -40.873  54.807 -51.478  1.00  0.00     0.259 A 
HETATM   29  C   UNL     1     -40.089  52.436 -51.465  1.00  0.00     0.021 A 
HETATM   30  O   UNL     1     -40.792  54.936 -50.265  1.00  0.00    -0.267 OA
HETATM   31  N   UNL     1     -41.304  55.831 -52.281  1.00  0.00    -0.309 N 
HETATM   32  H   UNL     1     -41.506  56.692 -51.786  1.00  0.00     0.170 HD
HETATM   33  C   UNL     1     -39.727  51.286 -52.166  1.00  0.00     0.025 A 
HETATM   34  C   UNL     1     -39.771  51.285 -53.561  1.00  0.00     0.036 A 
HETATM   35 CL   UNL     1     -39.319  49.868 -54.425  1.00  0.00    -0.084 Cl
ENDBRANCH  22  23
ENDBRANCH   1  22
TORSDOF 8
ENDMDL
MODEL 5
REMARK VINA RESULT:      -8.1      3.072      4.311
REMARK  8 active torsions:
REMARK  status: ('A' for Active; 'I' for Inactive)
REMARK    1  A    between atoms: O_2  and  C_3 
REMARK    2  A    between atoms: C_3  and  C_4 
REMARK    3  A    between atoms: C_4  and  C_5 
REMARK    4  A    between atoms: C_5  and  N_6 
REMARK    5  A    between atoms: N_6  and  C_8 
REMARK    6  A    between atoms: N_6  and  C_21 
REMARK    7  A    between atoms: C_8  and  C_9 
REMARK    8  A    between atoms: C_21  and  C_22 
ROOT
HETATM    1  N   UNL     1     -43.244  57.654 -53.702  1.00  0.00    -0.058 N 
HETATM    2  H   UNL     1     -42.912  57.564 -52.729  1.00  0.00     0.280 HD
ENDROOT
BRANCH   1   3
HETATM    3  C   UNL     1     -42.121  58.200 -54.557  1.00  0.00     0.238 C 
BRANCH   3   4
HETATM    4  C   UNL     1     -41.334  59.286 -53.831  1.00  0.00     0.054 C 
BRANCH   4   5
HETATM    5  C   UNL     1     -40.254  58.663 -52.950  1.00  0.00     0.168 C 
BRANCH   5   6
HETATM    6  O   UNL     1     -40.873  58.277 -51.726  1.00  0.00    -0.396 OA
HETATM    7  C   UNL     1     -40.892  59.348 -50.784  1.00  0.00     0.201 C 
ENDBRANCH   5   6
ENDBRANCH   4   5
ENDBRANCH   3   4
ENDBRANCH   1   3
BRANCH   1   8
HETATM    8  C   UNL     1     -44.489  58.548 -53.635  1.00  0.00     0.313 C 
BRANCH   8   9
HETATM    9  C   UNL     1     -44.595  59.384 -52.362  1.00  0.00     0.133 A 
HETATM   10  N   UNL     1     -43.974  60.521 -52.282  1.00  0.00    -0.233 NA
HETATM   11  C   UNL     1     -44.116  61.266 -51.092  1.00  0.00     0.076 A 
HETATM   12  C   UNL     1     -44.869  60.807 -50.004  1.00  0.00     0.061 A 
HETATM   13  C   UNL     1     -43.487  62.507 -50.990  1.00  0.00     0.056 A 
HETATM   14  C   UNL     1     -45.532  59.501 -50.144  1.00  0.00     0.259 A 
HETATM   15  C   UNL     1     -44.997  61.558 -48.832  1.00  0.00     0.021 A 
HETATM   16  O   UNL     1     -46.210  59.002 -49.257  1.00  0.00    -0.267 OA
HETATM   17  N   UNL     1     -45.344  58.862 -51.344  1.00  0.00    -0.309 N 
HETATM   18  H   UNL     1     -45.831  57.976 -51.408  1.00  0.00     0.170 HD
HETATM   19  C   UNL     1     -44.357  62.792 -48.741  1.00  0.00     0.025 A 
HETATM   20  C   UNL     1     -43.605  63.261 -49.820  1.00  0.00     0.036 A 
HETATM   21 CL   UNL     1     -42.812  64.782 -49.708  1.00  0.00    -0.084 Cl
ENDBRANCH   8   9
ENDBRANCH   1   8
BRANCH   1  22
HETATM   22  C   UNL     1     -43.559  56.206 -54.113  1.00  0.00     0.313 C 
BRANCH  22  23
HETATM   23  C   UNL     1     -42.583  55.209 -53.508  1.00  0.00     0.133 A 
HETATM   24  N   UNL     1     -42.221  54.178 -54.203  1.00  0.00    -0.233 NA
HETATM   25  C   UNL     1     -41.313  53.277 -53.608  1.00  0.00     0.076 A 
HETATM   26  C   UNL     1     -40.762  53.494 -52.337  1.00  0.00     0.061 A 
HETATM   27  C   UNL     1     -40.939  52.130 -54.309  1.00  0.00     0.056 A 
HETATM   28  C   UNL     1     -41.165  54.716 -51.625  1.00  0.00     0.259 A 
HETATM   29  C   UNL     1     -39.855  52.595 -51.768  1.00  0.00     0.021 A 
HETATM   30  O   UNL     1     -40.686  55.047 -50.550  1.00  0.00    -0.267 OA
HETATM   31  N   UNL     1     -42.103  55.489 -52.261  1.00  0.00    -0.309 N 
HETATM   32  H   UNL     1     -42.323  56.355 -51.782  1.00  0.00     0.170 HD
HETATM   33  C   UNL     1     -39.492  51.453 -52.480  1.00  0.00     0.025 A 
HETATM   34  C   UNL     1     -40.035  51.226 -53.746  1.00  0.00     0.036 A 
HETATM   35 CL   UNL     1     -39.583  49.820 -54.627  1.00  0.00    -0.084 Cl
ENDBRANCH  22  23
ENDBRANCH   1  22
TORSDOF 8
ENDMDL
MODEL 6
REMARK VINA RESULT:      -8.0      2.483      7.296
REMARK  8 active torsions:
REMARK  status: ('A' for Active; 'I' for Inactive)
REMARK    1  A    between atoms: O_2  and  C_3 
REMARK    2  A    between atoms: C_3  and  C_4 
REMARK    3  A    between atoms: C_4  and  C_5 
REMARK    4  A    between atoms: C_5  and  N_6 
REMARK    5  A    between atoms: N_6  and  C_8 
REMARK    6  A    between atoms: N_6  and  C_21 
REMARK    7  A    between atoms: C_8  and  C_9 
REMARK    8  A    between atoms: C_21  and  C_22 
ROOT
HETATM    1  N   UNL     1     -41.773  58.312 -52.902  1.00  0.00    -0.058 N 
HETATM    2  H   UNL     1     -41.093  57.983 -53.605  1.00  0.00     0.280 HD
ENDROOT
BRANCH   1   3
HETATM    3  C   UNL     1     -41.171  59.471 -52.137  1.00  0.00     0.238 C 
BRANCH   3   4
HETATM    4  C   UNL     1     -41.492  59.392 -50.647  1.00  0.00     0.054 C 
BRANCH   4   5
HETATM    5  C   UNL     1     -42.283  60.621 -50.208  1.00  0.00     0.168 C 
BRANCH   5   6
HETATM    6  O   UNL     1     -43.011  61.088 -51.340  1.00  0.00    -0.396 OA
HETATM    7  C   UNL     1     -44.416  61.093 -51.098  1.00  0.00     0.201 C 
ENDBRANCH   5   6
ENDBRANCH   4   5
ENDBRANCH   3   4
ENDBRANCH   1   3
BRANCH   1   8
HETATM    8  C   UNL     1     -42.109  57.085 -52.044  1.00  0.00     0.313 C 
BRANCH   8   9
HETATM    9  C   UNL     1     -41.592  55.764 -52.608  1.00  0.00     0.133 A 
HETATM   10  N   UNL     1     -41.162  54.842 -51.802  1.00  0.00    -0.233 NA
HETATM   11  C   UNL     1     -40.711  53.631 -52.370  1.00  0.00     0.076 A 
HETATM   12  C   UNL     1     -40.687  53.412 -53.753  1.00  0.00     0.061 A 
HETATM   13  C   UNL     1     -40.272  52.609 -51.526  1.00  0.00     0.056 A 
HETATM   14  C   UNL     1     -41.166  54.502 -54.618  1.00  0.00     0.259 A 
HETATM   15  C   UNL     1     -40.234  52.207 -54.297  1.00  0.00     0.021 A 
HETATM   16  O   UNL     1     -41.186  54.421 -55.837  1.00  0.00    -0.267 OA
HETATM   17  N   UNL     1     -41.596  55.632 -53.969  1.00  0.00    -0.309 N 
HETATM   18  H   UNL     1     -41.936  56.351 -54.597  1.00  0.00     0.170 HD
HETATM   19  C   UNL     1     -39.792  51.198 -53.443  1.00  0.00     0.025 A 
HETATM   20  C   UNL     1     -39.813  51.403 -52.062  1.00  0.00     0.036 A 
HETATM   21 CL   UNL     1     -39.265  50.161 -51.007  1.00  0.00    -0.084 Cl
ENDBRANCH   8   9
ENDBRANCH   1   8
BRANCH   1  22
HETATM   22  C   UNL     1     -42.959  58.803 -53.748  1.00  0.00     0.313 C 
BRANCH  22  23
HETATM   23  C   UNL     1     -42.738  58.582 -55.236  1.00  0.00     0.133 A 
HETATM   24  N   UNL     1     -43.263  57.545 -55.807  1.00  0.00    -0.233 NA
HETATM   25  C   UNL     1     -43.037  57.377 -57.189  1.00  0.00     0.076 A 
HETATM   26  C   UNL     1     -42.324  58.310 -57.953  1.00  0.00     0.061 A 
HETATM   27  C   UNL     1     -43.547  56.244 -57.825  1.00  0.00     0.056 A 
HETATM   28  C   UNL     1     -41.807  59.499 -57.259  1.00  0.00     0.259 A 
HETATM   29  C   UNL     1     -42.119  58.131 -59.324  1.00  0.00     0.021 A 
HETATM   30  O   UNL     1     -41.243  60.415 -57.841  1.00  0.00    -0.267 OA
HETATM   31  N   UNL     1     -42.022  59.534 -55.905  1.00  0.00    -0.309 N 
HETATM   32  H   UNL     1     -41.711  60.387 -55.456  1.00  0.00     0.170 HD
HETATM   33  C   UNL     1     -42.634  56.994 -59.946  1.00  0.00     0.025 A 
HETATM   34  C   UNL     1     -43.345  56.057 -59.194  1.00  0.00     0.036 A 
HETATM   35 CL   UNL     1     -43.985  54.657 -59.963  1.00  0.00    -0.084 Cl
ENDBRANCH  22  23
ENDBRANCH   1  22
TORSDOF 8
ENDMDL
MODEL 7
REMARK VINA RESULT:      -8.0      1.724      2.229
REMARK  8 active torsions:
REMARK  status: ('A' for Active; 'I' for Inactive)
REMARK    1  A    between atoms: O_2  and  C_3 
REMARK    2  A    between atoms: C_3  and  C_4 
REMARK    3  A    between atoms: C_4  and  C_5 
REMARK    4  A    between atoms: C_5  and  N_6 
REMARK    5  A    between atoms: N_6  and  C_8 
REMARK    6  A    between atoms: N_6  and  C_21 
REMARK    7  A    between atoms: C_8  and  C_9 
REMARK    8  A    between atoms: C_21  and  C_22 
ROOT
HETATM    1  N   UNL     1     -42.761  56.596 -56.162  1.00  0.00    -0.058 N 
HETATM    2  H   UNL     1     -41.768  56.428 -55.940  1.00  0.00     0.280 HD
ENDROOT
BRANCH   1   3
HETATM    3  C   UNL     1     -43.074  55.991 -57.513  1.00  0.00     0.238 C 
BRANCH   3   4
HETATM    4  C   UNL     1     -42.850  56.990 -58.645  1.00  0.00     0.054 C 
BRANCH   4   5
HETATM    5  C   UNL     1     -43.317  56.403 -59.974  1.00  0.00     0.168 C 
BRANCH   5   6
HETATM    6  O   UNL     1     -44.680  56.021 -59.815  1.00  0.00    -0.396 OA
HETATM    7  C   UNL     1     -44.997  54.864 -60.586  1.00  0.00     0.201 C 
ENDBRANCH   5   6
ENDBRANCH   4   5
ENDBRANCH   3   4
ENDBRANCH   1   3
BRANCH   1   8
HETATM    8  C   UNL     1     -42.953  58.116 -56.082  1.00  0.00     0.313 C 
BRANCH   8   9
HETATM    9  C   UNL     1     -42.701  58.710 -54.698  1.00  0.00     0.133 A 
HETATM   10  N   UNL     1     -43.693  59.175 -54.003  1.00  0.00    -0.233 NA
HETATM   11  C   UNL     1     -43.412  59.697 -52.723  1.00  0.00     0.076 A 
HETATM   12  C   UNL     1     -42.113  59.754 -52.203  1.00  0.00     0.061 A 
HETATM   13  C   UNL     1     -44.464  60.175 -51.940  1.00  0.00     0.056 A 
HETATM   14  C   UNL     1     -41.025  59.233 -53.045  1.00  0.00     0.259 A 
HETATM   15  C   UNL     1     -41.854  60.278 -50.933  1.00  0.00     0.021 A 
HETATM   16  O   UNL     1     -39.854  59.236 -52.694  1.00  0.00    -0.267 OA
HETATM   17  N   UNL     1     -41.403  58.734 -54.266  1.00  0.00    -0.309 N 
HETATM   18  H   UNL     1     -40.629  58.367 -54.808  1.00  0.00     0.170 HD
HETATM   19  C   UNL     1     -42.913  60.758 -50.165  1.00  0.00     0.025 A 
HETATM   20  C   UNL     1     -44.213  60.704 -50.672  1.00  0.00     0.036 A 
HETATM   21 CL   UNL     1     -45.520  61.299 -49.727  1.00  0.00    -0.084 Cl
ENDBRANCH   8   9
ENDBRANCH   1   8
BRANCH   1  22
HETATM   22  C   UNL     1     -43.512  55.832 -55.059  1.00  0.00     0.313 C 
BRANCH  22  23
HETATM   23  C   UNL     1     -42.579  54.996 -54.197  1.00  0.00     0.133 A 
HETATM   24  N   UNL     1     -42.078  53.904 -54.681  1.00  0.00    -0.233 NA
HETATM   25  C   UNL     1     -41.215  53.159 -53.851  1.00  0.00     0.076 A 
HETATM   26  C   UNL     1     -40.850  53.587 -52.568  1.00  0.00     0.061 A 
HETATM   27  C   UNL     1     -40.698  51.952 -54.324  1.00  0.00     0.056 A 
HETATM   28  C   UNL     1     -41.403  54.868 -52.100  1.00  0.00     0.259 A 
HETATM   29  C   UNL     1     -39.986  52.839 -51.764  1.00  0.00     0.021 A 
HETATM   30  O   UNL     1     -41.088  55.376 -51.033  1.00  0.00    -0.267 OA
HETATM   31  N   UNL     1     -42.283  55.480 -52.955  1.00  0.00    -0.309 N 
HETATM   32  H   UNL     1     -42.606  56.388 -52.640  1.00  0.00     0.170 HD
HETATM   33  C   UNL     1     -39.476  51.635 -52.249  1.00  0.00     0.025 A 
HETATM   34  C   UNL     1     -39.834  51.198 -53.525  1.00  0.00     0.036 A 
HETATM   35 CL   UNL     1     -39.202  49.715 -54.126  1.00  0.00    -0.084 Cl
ENDBRANCH  22  23
ENDBRANCH   1  22
TORSDOF 8
ENDMDL
MODEL 8
REMARK VINA RESULT:      -8.0      2.749      6.997
REMARK  8 active torsions:
REMARK  status: ('A' for Active; 'I' for Inactive)
REMARK    1  A    between atoms: O_2  and  C_3 
REMARK    2  A    between atoms: C_3  and  C_4 
REMARK    3  A    between atoms: C_4  and  C_5 
REMARK    4  A    between atoms: C_5  and  N_6 
REMARK    5  A    between atoms: N_6  and  C_8 
REMARK    6  A    between atoms: N_6  and  C_21 
REMARK    7  A    between atoms: C_8  and  C_9 
REMARK    8  A    between atoms: C_21  and  C_22 
ROOT
HETATM    1  N   UNL     1     -43.846  59.030 -53.435  1.00  0.00    -0.058 N 
HETATM    2  H   UNL     1     -42.888  58.803 -53.742  1.00  0.00     0.280 HD
ENDROOT
BRANCH   1   3
HETATM    3  C   UNL     1     -43.774  59.998 -52.273  1.00  0.00     0.238 C 
BRANCH   3   4
HETATM    4  C   UNL     1     -43.034  59.397 -51.082  1.00  0.00     0.054 C 
BRANCH   4   5
HETATM    5  C   UNL     1     -41.529  59.596 -51.234  1.00  0.00     0.168 C 
BRANCH   5   6
HETATM    6  O   UNL     1     -41.258  59.751 -52.624  1.00  0.00    -0.396 OA
HETATM    7  C   UNL     1     -40.329  58.776 -53.093  1.00  0.00     0.201 C 
ENDBRANCH   5   6
ENDBRANCH   4   5
ENDBRANCH   3   4
ENDBRANCH   1   3
BRANCH   1   8
HETATM    8  C   UNL     1     -44.508  57.686 -53.106  1.00  0.00     0.313 C 
BRANCH   8   9
HETATM    9  C   UNL     1     -43.668  56.465 -53.474  1.00  0.00     0.133 A 
HETATM   10  N   UNL     1     -42.893  55.922 -52.587  1.00  0.00    -0.233 NA
HETATM   11  C   UNL     1     -42.149  54.786 -52.970  1.00  0.00     0.076 A 
HETATM   12  C   UNL     1     -42.200  54.256 -54.265  1.00  0.00     0.061 A 
HETATM   13  C   UNL     1     -41.331  54.161 -52.027  1.00  0.00     0.056 A 
HETATM   14  C   UNL     1     -43.079  54.927 -55.235  1.00  0.00     0.259 A 
HETATM   15  C   UNL     1     -41.454  53.130 -54.627  1.00  0.00     0.021 A 
HETATM   16  O   UNL     1     -43.198  54.553 -56.393  1.00  0.00    -0.267 OA
HETATM   17  N   UNL     1     -43.770  56.014 -54.762  1.00  0.00    -0.309 N 
HETATM   18  H   UNL     1     -44.378  56.437 -55.453  1.00  0.00     0.170 HD
HETATM   19  C   UNL     1     -40.637  52.521 -53.676  1.00  0.00     0.025 A 
HETATM   20  C   UNL     1     -40.579  53.039 -52.382  1.00  0.00     0.036 A 
HETATM   21 CL   UNL     1     -39.568  52.291 -51.209  1.00  0.00    -0.084 Cl
ENDBRANCH   8   9
ENDBRANCH   1   8
BRANCH   1  22
HETATM   22  C   UNL     1     -44.464  59.727 -54.659  1.00  0.00     0.313 C 
BRANCH  22  23
HETATM   23  C   UNL     1     -43.814  59.289 -55.961  1.00  0.00     0.133 A 
HETATM   24  N   UNL     1     -44.387  58.375 -56.678  1.00  0.00    -0.233 NA
HETATM   25  C   UNL     1     -43.754  57.998 -57.881  1.00  0.00     0.076 A 
HETATM   26  C   UNL     1     -42.580  58.611 -58.338  1.00  0.00     0.061 A 
HETATM   27  C   UNL     1     -44.318  56.982 -58.653  1.00  0.00     0.056 A 
HETATM   28  C   UNL     1     -42.013  59.686 -57.509  1.00  0.00     0.259 A 
HETATM   29  C   UNL     1     -41.973  58.231 -59.538  1.00  0.00     0.021 A 
HETATM   30  O   UNL     1     -41.040  60.344 -57.850  1.00  0.00    -0.267 OA
HETATM   31  N   UNL     1     -42.665  59.930 -56.328  1.00  0.00    -0.309 N 
HETATM   32  H   UNL     1     -42.294  60.712 -55.801  1.00  0.00     0.170 HD
HETATM   33  C   UNL     1     -42.547  57.214 -60.298  1.00  0.00     0.025 A 
HETATM   34  C   UNL     1     -43.717  56.594 -59.853  1.00  0.00     0.036 A 
HETATM   35 CL   UNL     1     -44.429  55.343 -60.794  1.00  0.00    -0.084 Cl
ENDBRANCH  22  23
ENDBRANCH   1  22
TORSDOF 8
ENDMDL
MODEL 9
REMARK VINA RESULT:      -7.9      2.592      7.385
REMARK  8 active torsions:
REMARK  status: ('A' for Active; 'I' for Inactive)
REMARK    1  A    between atoms: O_2  and  C_3 
REMARK    2  A    between atoms: C_3  and  C_4 
REMARK    3  A    between atoms: C_4  and  C_5 
REMARK    4  A    between atoms: C_5  and  N_6 
REMARK    5  A    between atoms: N_6  and  C_8 
REMARK    6  A    between atoms: N_6  and  C_21 
REMARK    7  A    between atoms: C_8  and  C_9 
REMARK    8  A    between atoms: C_21  and  C_22 
ROOT
HETATM    1  N   UNL     1     -43.033  57.023 -53.908  1.00  0.00    -0.058 N 
HETATM    2  H   UNL     1     -43.131  57.918 -54.412  1.00  0.00     0.280 HD
ENDROOT
BRANCH   1   3
HETATM    3  C   UNL     1     -44.079  56.955 -52.816  1.00  0.00     0.238 C 
BRANCH   3   4
HETATM    4  C   UNL     1     -44.777  58.298 -52.618  1.00  0.00     0.054 C 
BRANCH   4   5
HETATM    5  C   UNL     1     -44.710  59.126 -53.898  1.00  0.00     0.168 C 
BRANCH   5   6
HETATM    6  O   UNL     1     -43.490  59.862 -53.867  1.00  0.00    -0.396 OA
HETATM    7  C   UNL     1     -43.606  61.041 -53.073  1.00  0.00     0.201 C 
ENDBRANCH   5   6
ENDBRANCH   4   5
ENDBRANCH   3   4
ENDBRANCH   1   3
BRANCH   1   8
HETATM    8  C   UNL     1     -41.584  56.983 -53.409  1.00  0.00     0.313 C 
BRANCH   8   9
HETATM    9  C   UNL     1     -41.150  55.631 -52.848  1.00  0.00     0.133 A 
HETATM   10  N   UNL     1     -40.874  54.654 -53.656  1.00  0.00    -0.233 NA
HETATM   11  C   UNL     1     -40.461  53.429 -53.090  1.00  0.00     0.076 A 
HETATM   12  C   UNL     1     -40.371  53.232 -51.707  1.00  0.00     0.061 A 
HETATM   13  C   UNL     1     -40.128  52.370 -53.936  1.00  0.00     0.056 A 
HETATM   14  C   UNL     1     -40.717  54.369 -50.839  1.00  0.00     0.259 A 
HETATM   15  C   UNL     1     -39.962  52.010 -51.165  1.00  0.00     0.021 A 
HETATM   16  O   UNL     1     -40.678  54.308 -49.619  1.00  0.00    -0.267 OA
HETATM   17  N   UNL     1     -41.093  55.519 -51.485  1.00  0.00    -0.309 N 
HETATM   18  H   UNL     1     -41.305  56.284 -50.855  1.00  0.00     0.170 HD
HETATM   19  C   UNL     1     -39.639  50.960 -52.021  1.00  0.00     0.025 A 
HETATM   20  C   UNL     1     -39.723  51.144 -53.402  1.00  0.00     0.036 A 
HETATM   21 CL   UNL     1     -39.328  49.848 -54.460  1.00  0.00    -0.084 Cl
ENDBRANCH   8   9
ENDBRANCH   1   8
BRANCH   1  22
HETATM   22  C   UNL     1     -43.333  55.968 -54.986  1.00  0.00     0.313 C 
BRANCH  22  23
HETATM   23  C   UNL     1     -43.135  56.507 -56.394  1.00  0.00     0.133 A 
HETATM   24  N   UNL     1     -42.658  57.701 -56.553  1.00  0.00    -0.233 NA
HETATM   25  C   UNL     1     -42.487  58.163 -57.874  1.00  0.00     0.076 A 
HETATM   26  C   UNL     1     -42.760  57.364 -58.992  1.00  0.00     0.061 A 
HETATM   27  C   UNL     1     -42.023  59.463 -58.081  1.00  0.00     0.056 A 
HETATM   28  C   UNL     1     -43.238  55.995 -58.744  1.00  0.00     0.259 A 
HETATM   29  C   UNL     1     -42.574  57.836 -60.294  1.00  0.00     0.021 A 
HETATM   30  O   UNL     1     -43.428  55.185 -59.641  1.00  0.00    -0.267 OA
HETATM   31  N   UNL     1     -43.435  55.667 -57.428  1.00  0.00    -0.309 N 
HETATM   32  H   UNL     1     -43.708  54.702 -57.275  1.00  0.00     0.170 HD
HETATM   33  C   UNL     1     -42.110  59.137 -60.486  1.00  0.00     0.025 A 
HETATM   34  C   UNL     1     -41.837  59.943 -59.380  1.00  0.00     0.036 A 
HETATM   35 CL   UNL     1     -41.259  61.546 -59.616  1.00  0.00    -0.084 Cl
ENDBRANCH  22  23
ENDBRANCH   1  22
TORSDOF 8
ENDMDL
MODEL 10
REMARK VINA RESULT:      -7.8      2.766      6.048
REMARK  8 active torsions:
REMARK  status: ('A' for Active; 'I' for Inactive)
REMARK    1  A    between atoms: O_2  and  C_3 
REMARK    2  A    between atoms: C_3  and  C_4 
REMARK    3  A    between atoms: C_4  and  C_5 
REMARK    4  A    between atoms: C_5  and  N_6 
REMARK    5  A    between atoms: N_6  and  C_8 
REMARK    6  A    between atoms: N_6  and  C_21 
REMARK    7  A    between atoms: C_8  and  C_9 
REMARK    8  A    between atoms: C_21  and  C_22 
ROOT
HETATM    1  N   UNL     1     -43.160  58.209 -52.725  1.00  0.00    -0.058 N 
HETATM    2  H   UNL     1     -42.766  57.409 -53.244  1.00  0.00     0.280 HD
ENDROOT
BRANCH   1   3
HETATM    3  C   UNL     1     -44.657  58.023 -52.595  1.00  0.00     0.238 C 
BRANCH   3   4
HETATM    4  C   UNL     1     -45.139  58.306 -51.175  1.00  0.00     0.054 C 
BRANCH   4   5
HETATM    5  C   UNL     1     -45.830  59.666 -51.108  1.00  0.00     0.168 C 
BRANCH   5   6
HETATM    6  O   UNL     1     -45.195  60.416 -50.077  1.00  0.00    -0.396 OA
HETATM    7  C   UNL     1     -45.959  61.564 -49.714  1.00  0.00     0.201 C 
ENDBRANCH   5   6
ENDBRANCH   4   5
ENDBRANCH   3   4
ENDBRANCH   1   3
BRANCH   1   8
HETATM    8  C   UNL     1     -42.737  59.460 -53.507  1.00  0.00     0.313 C 
BRANCH   8   9
HETATM    9  C   UNL     1     -42.554  59.232 -55.006  1.00  0.00     0.133 A 
HETATM   10  N   UNL     1     -42.969  58.128 -55.547  1.00  0.00    -0.233 NA
HETATM   11  C   UNL     1     -42.793  57.972 -56.938  1.00  0.00     0.076 A 
HETATM   12  C   UNL     1     -42.169  58.943 -57.731  1.00  0.00     0.061 A 
HETATM   13  C   UNL     1     -43.258  56.808 -57.554  1.00  0.00     0.056 A 
HETATM   14  C   UNL     1     -41.699  60.164 -57.058  1.00  0.00     0.259 A 
HETATM   15  C   UNL     1     -42.002  58.769 -59.108  1.00  0.00     0.021 A 
HETATM   16  O   UNL     1     -41.138  61.074 -57.651  1.00  0.00    -0.267 OA
HETATM   17  N   UNL     1     -41.929  60.227 -55.707  1.00  0.00    -0.309 N 
HETATM   18  H   UNL     1     -41.609  61.090 -55.284  1.00  0.00     0.170 HD
HETATM   19  C   UNL     1     -42.465  57.599 -59.708  1.00  0.00     0.025 A 
HETATM   20  C   UNL     1     -43.091  56.625 -58.929  1.00  0.00     0.036 A 
HETATM   21 CL   UNL     1     -43.659  55.180 -59.666  1.00  0.00    -0.084 Cl
ENDBRANCH   8   9
ENDBRANCH   1   8
BRANCH   1  22
HETATM   22  C   UNL     1     -42.497  58.105 -51.342  1.00  0.00     0.313 C 
BRANCH  22  23
HETATM   23  C   UNL     1     -41.927  56.721 -51.077  1.00  0.00     0.133 A 
HETATM   24  N   UNL     1     -41.582  55.976 -52.078  1.00  0.00    -0.233 NA
HETATM   25  C   UNL     1     -41.055  54.700 -51.791  1.00  0.00     0.076 A 
HETATM   26  C   UNL     1     -40.848  54.250 -50.480  1.00  0.00     0.061 A 
HETATM   27  C   UNL     1     -40.720  53.852 -52.847  1.00  0.00     0.056 A 
HETATM   28  C   UNL     1     -41.201  55.168 -49.386  1.00  0.00     0.259 A 
HETATM   29  C   UNL     1     -40.315  52.985 -50.215  1.00  0.00     0.021 A 
HETATM   30  O   UNL     1     -40.987  54.912 -48.210  1.00  0.00    -0.267 OA
HETATM   31  N   UNL     1     -41.767  56.356 -49.770  1.00  0.00    -0.309 N 
HETATM   32  H   UNL     1     -41.949  56.997 -49.007  1.00  0.00     0.170 HD
HETATM   33  C   UNL     1     -39.985  52.149 -51.280  1.00  0.00     0.025 A 
HETATM   34  C   UNL     1     -40.189  52.586 -52.590  1.00  0.00     0.036 A 
HETATM   35 CL   UNL     1     -39.776  51.556 -53.905  1.00  0.00    -0.084 Cl
ENDBRANCH  22  23
ENDBRANCH   1  22
TORSDOF 8
ENDMDL
