MODEL 1
REMARK VINA RESULT:      -8.3      0.000      0.000
REMARK  7 active torsions:
REMARK  status: ('A' for Active; 'I' for Inactive)
REMARK    1  A    between atoms: C_8  and  C_9 
REMARK    2  A    between atoms: C_9  and  C_10 
REMARK    3  A    between atoms: C_10  and  N_11 
REMARK       I    between atoms: N_11  and  C_12 
REMARK    4  A    between atoms: C_12  and  C_13 
REMARK    5  A    between atoms: C_13  and  C_14 
REMARK    6  A    between atoms: C_14  and  C_15 
REMARK    7  A    between atoms: C_15  and  N_16 
ROOT
HETATM    1  C   UNL     1     -44.831  58.038 -53.397  1.00  0.00     0.104 C 
ENDROOT
BRANCH   1   2
HETATM    2  C   UNL     1     -45.047  59.077 -54.476  1.00  0.00     0.217 C 
HETATM    3  N   UNL     1     -45.580  58.592 -55.646  1.00  0.00    -0.361 N 
HETATM    4  H   UNL     1     -45.484  57.602 -55.842  1.00  0.00     0.162 HD
HETATM    5  O   UNL     1     -44.814  60.267 -54.281  1.00  0.00    -0.274 OA
BRANCH   3   6
HETATM    6  C   UNL     1     -45.794  59.474 -56.782  1.00  0.00     0.127 C 
BRANCH   6   7
HETATM    7  C   UNL     1     -44.596  59.523 -57.733  1.00  0.00     0.060 C 
BRANCH   7   8
HETATM    8  C   UNL     1     -44.008  58.171 -58.001  1.00  0.00    -0.029 A 
HETATM    9  C   UNL     1     -44.572  57.125 -58.802  1.00  0.00    -0.002 A 
HETATM   10  C   UNL     1     -45.753  56.995 -59.561  1.00  0.00     0.014 A 
HETATM   11  C   UNL     1     -43.692  56.043 -58.753  1.00  0.00     0.042 A 
HETATM   12  C   UNL     1     -46.017  55.793 -60.227  1.00  0.00     0.001 A 
HETATM   13  C   UNL     1     -45.119  54.730 -60.156  1.00  0.00     0.002 A 
HETATM   14  C   UNL     1     -43.937  54.835 -59.418  1.00  0.00     0.030 A 
HETATM   15  N   UNL     1     -42.628  56.420 -57.969  1.00  0.00    -0.365 N 
HETATM   16  H   UNL     1     -41.831  55.833 -57.764  1.00  0.00     0.165 HD
HETATM   17  C   UNL     1     -42.807  57.696 -57.510  1.00  0.00     0.096 A 
ENDBRANCH   7   8
ENDBRANCH   6   7
ENDBRANCH   3   6
ENDBRANCH   1   2
BRANCH   1  18
HETATM   18  C   UNL     1     -44.176  56.758 -53.911  1.00  0.00     0.029 C 
BRANCH  18  19
HETATM   19  C   UNL     1     -42.661  56.950 -54.035  1.00  0.00     0.135 C 
BRANCH  19  20
HETATM   20  N   UNL     1     -41.904  55.896 -53.345  1.00  0.00    -0.290 N 
HETATM   21  C   UNL     1     -41.522  56.020 -52.010  1.00  0.00     0.181 A 
HETATM   22  S   UNL     1     -41.797  57.327 -50.994  1.00  0.00    -0.040 SA
HETATM   23  N   UNL     1     -40.854  54.961 -51.456  1.00  0.00    -0.332 N 
HETATM   24  C   UNL     1     -40.545  53.789 -52.139  1.00  0.00     0.050 A 
HETATM   25  H   UNL     1     -40.595  55.057 -50.480  1.00  0.00     0.168 HD
HETATM   26  C   UNL     1     -40.887  53.662 -53.478  1.00  0.00     0.060 A 
HETATM   27  C   UNL     1     -39.896  52.747 -51.476  1.00  0.00     0.032 A 
HETATM   28  C   UNL     1     -41.579  54.784 -54.138  1.00  0.00     0.262 A 
HETATM   29  C   UNL     1     -40.586  52.488 -54.177  1.00  0.00     0.038 A 
HETATM   30  O   UNL     1     -41.837  54.694 -55.337  1.00  0.00    -0.267 OA
HETATM   31  C   UNL     1     -39.943  51.447 -53.513  1.00  0.00     0.012 A 
HETATM   32  C   UNL     1     -39.596  51.570 -52.166  1.00  0.00     0.021 A 
HETATM   33 BR   UNL     1     -39.537  49.851 -54.441  1.00  0.00    -0.051 Br
ENDBRANCH  19  20
ENDBRANCH  18  19
ENDBRANCH   1  18
TORSDOF 7
ENDMDL
MODEL 2
REMARK VINA RESULT:      -8.0      1.581      1.743
REMARK  7 active torsions:
REMARK  status: ('A' for Active; 'I' for Inactive)
REMARK    1  A    between atoms: C_8  and  C_9 
REMARK    2  A    between atoms: C_9  and  C_10 
REMARK    3  A    between atoms: C_10  and  N_11 
REMARK       I    between atoms: N_11  and  C_12 
REMARK    4  A    between atoms: C_12  and  C_13 
REMARK    5  A    between atoms: C_13  and  C_14 
REMARK    6  A    between atoms: C_14  and  C_15 
REMARK    7  A    between atoms: C_15  and  N_16 
ROOT
HETATM    1  C   UNL     1     -43.485  58.641 -55.187  1.00  0.00     0.104 C 
ENDROOT
BRANCH   1   2
HETATM    2  C   UNL     1     -42.728  59.497 -56.180  1.00  0.00     0.217 C 
HETATM    3  N   UNL     1     -43.368  59.689 -57.381  1.00  0.00    -0.361 N 
HETATM    4  H   UNL     1     -44.083  59.026 -57.654  1.00  0.00     0.162 HD
HETATM    5  O   UNL     1     -41.654  60.019 -55.894  1.00  0.00    -0.274 OA
BRANCH   3   6
HETATM    6  C   UNL     1     -42.730  60.451 -58.443  1.00  0.00     0.127 C 
BRANCH   6   7
HETATM    7  C   UNL     1     -42.972  59.857 -59.832  1.00  0.00     0.060 C 
BRANCH   7   8
HETATM    8  C   UNL     1     -42.836  58.365 -59.861  1.00  0.00    -0.029 A 
HETATM    9  C   UNL     1     -43.891  57.402 -59.960  1.00  0.00    -0.002 A 
HETATM   10  C   UNL     1     -45.295  57.487 -60.068  1.00  0.00     0.014 A 
HETATM   11  C   UNL     1     -43.305  56.136 -59.930  1.00  0.00     0.042 A 
HETATM   12  C   UNL     1     -46.056  56.313 -60.128  1.00  0.00     0.001 A 
HETATM   13  C   UNL     1     -45.439  55.065 -60.093  1.00  0.00     0.002 A 
HETATM   14  C   UNL     1     -44.049  54.952 -59.995  1.00  0.00     0.030 A 
HETATM   15  N   UNL     1     -41.946  56.321 -59.833  1.00  0.00    -0.365 N 
HETATM   16  H   UNL     1     -41.267  55.573 -59.799  1.00  0.00     0.165 HD
HETATM   17  C   UNL     1     -41.652  57.656 -59.789  1.00  0.00     0.096 A 
ENDBRANCH   7   8
ENDBRANCH   6   7
ENDBRANCH   3   6
ENDBRANCH   1   2
BRANCH   1  18
HETATM   18  C   UNL     1     -43.491  57.158 -55.547  1.00  0.00     0.029 C 
BRANCH  18  19
HETATM   19  C   UNL     1     -44.036  56.331 -54.378  1.00  0.00     0.135 C 
BRANCH  19  20
HETATM   20  N   UNL     1     -42.983  55.574 -53.686  1.00  0.00    -0.290 N 
HETATM   21  C   UNL     1     -42.451  56.000 -52.470  1.00  0.00     0.181 A 
HETATM   22  S   UNL     1     -42.849  57.391 -51.621  1.00  0.00    -0.040 SA
HETATM   23  N   UNL     1     -41.502  55.197 -51.894  1.00  0.00    -0.332 N 
HETATM   24  C   UNL     1     -41.052  54.001 -52.445  1.00  0.00     0.050 A 
HETATM   25  H   UNL     1     -41.133  55.511 -51.003  1.00  0.00     0.168 HD
HETATM   26  C   UNL     1     -41.547  53.580 -53.671  1.00  0.00     0.060 A 
HETATM   27  C   UNL     1     -40.111  53.232 -51.761  1.00  0.00     0.032 A 
HETATM   28  C   UNL     1     -42.546  54.420 -54.355  1.00  0.00     0.262 A 
HETATM   29  C   UNL     1     -41.106  52.378 -54.236  1.00  0.00     0.038 A 
HETATM   30  O   UNL     1     -42.947  54.073 -55.465  1.00  0.00    -0.267 OA
HETATM   31  C   UNL     1     -40.170  51.608 -53.550  1.00  0.00     0.012 A 
HETATM   32  C   UNL     1     -39.669  52.028 -52.316  1.00  0.00     0.021 A 
HETATM   33 BR   UNL     1     -39.571  49.976 -54.295  1.00  0.00    -0.051 Br
ENDBRANCH  19  20
ENDBRANCH  18  19
ENDBRANCH   1  18
TORSDOF 7
ENDMDL
MODEL 3
REMARK VINA RESULT:      -8.0      1.569      2.121
REMARK  7 active torsions:
REMARK  status: ('A' for Active; 'I' for Inactive)
REMARK    1  A    between atoms: C_8  and  C_9 
REMARK    2  A    between atoms: C_9  and  C_10 
REMARK    3  A    between atoms: C_10  and  N_11 
REMARK       I    between atoms: N_11  and  C_12 
REMARK    4  A    between atoms: C_12  and  C_13 
REMARK    5  A    between atoms: C_13  and  C_14 
REMARK    6  A    between atoms: C_14  and  C_15 
REMARK    7  A    between atoms: C_15  and  N_16 
ROOT
HETATM    1  C   UNL     1     -44.718  57.819 -54.833  1.00  0.00     0.104 C 
ENDROOT
BRANCH   1   2
HETATM    2  C   UNL     1     -45.474  58.541 -55.927  1.00  0.00     0.217 C 
HETATM    3  N   UNL     1     -46.510  57.826 -56.481  1.00  0.00    -0.361 N 
HETATM    4  H   UNL     1     -46.498  56.817 -56.388  1.00  0.00     0.162 HD
HETATM    5  O   UNL     1     -45.207  59.697 -56.242  1.00  0.00    -0.274 OA
BRANCH   3   6
HETATM    6  C   UNL     1     -47.288  58.382 -57.576  1.00  0.00     0.127 C 
BRANCH   6   7
HETATM    7  C   UNL     1     -47.062  57.649 -58.900  1.00  0.00     0.060 C 
BRANCH   7   8
HETATM    8  C   UNL     1     -45.842  58.123 -59.629  1.00  0.00    -0.029 A 
HETATM    9  C   UNL     1     -44.540  57.525 -59.618  1.00  0.00    -0.002 A 
HETATM   10  C   UNL     1     -43.985  56.389 -58.994  1.00  0.00     0.014 A 
HETATM   11  C   UNL     1     -43.713  58.313 -60.419  1.00  0.00     0.042 A 
HETATM   12  C   UNL     1     -42.630  56.091 -59.182  1.00  0.00     0.001 A 
HETATM   13  C   UNL     1     -41.831  56.899 -59.987  1.00  0.00     0.002 A 
HETATM   14  C   UNL     1     -42.358  58.027 -60.623  1.00  0.00     0.030 A 
HETATM   15  N   UNL     1     -44.483  59.338 -60.913  1.00  0.00    -0.365 N 
HETATM   16  H   UNL     1     -44.145  60.062 -61.533  1.00  0.00     0.165 HD
HETATM   17  C   UNL     1     -45.764  59.237 -60.444  1.00  0.00     0.096 A 
ENDBRANCH   7   8
ENDBRANCH   6   7
ENDBRANCH   3   6
ENDBRANCH   1   2
BRANCH   1  18
HETATM   18  C   UNL     1     -43.758  56.756 -55.358  1.00  0.00     0.029 C 
BRANCH  18  19
HETATM   19  C   UNL     1     -42.319  57.094 -54.956  1.00  0.00     0.135 C 
BRANCH  19  20
HETATM   20  N   UNL     1     -41.741  56.094 -54.047  1.00  0.00    -0.290 N 
HETATM   21  C   UNL     1     -41.617  56.330 -52.678  1.00  0.00     0.181 A 
HETATM   22  S   UNL     1     -42.039  57.725 -51.848  1.00  0.00    -0.040 SA
HETATM   23  N   UNL     1     -41.101  55.313 -51.919  1.00  0.00    -0.332 N 
HETATM   24  C   UNL     1     -40.705  54.081 -52.429  1.00  0.00     0.050 A 
HETATM   25  H   UNL     1     -41.030  55.492 -50.923  1.00  0.00     0.168 HD
HETATM   26  C   UNL     1     -40.789  53.842 -53.793  1.00  0.00     0.060 A 
HETATM   27  C   UNL     1     -40.228  53.093 -51.568  1.00  0.00     0.032 A 
HETATM   28  C   UNL     1     -41.306  54.912 -54.666  1.00  0.00     0.262 A 
HETATM   29  C   UNL     1     -40.397  52.607 -54.321  1.00  0.00     0.038 A 
HETATM   30  O   UNL     1     -41.334  54.720 -55.880  1.00  0.00    -0.267 OA
HETATM   31  C   UNL     1     -39.926  51.619 -53.459  1.00  0.00     0.012 A 
HETATM   32  C   UNL     1     -39.839  51.854 -52.086  1.00  0.00     0.021 A 
HETATM   33 BR   UNL     1     -39.402  49.941 -54.155  1.00  0.00    -0.051 Br
ENDBRANCH  19  20
ENDBRANCH  18  19
ENDBRANCH   1  18
TORSDOF 7
ENDMDL
MODEL 4
REMARK VINA RESULT:      -7.9      1.666      2.140
REMARK  7 active torsions:
REMARK  status: ('A' for Active; 'I' for Inactive)
REMARK    1  A    between atoms: C_8  and  C_9 
REMARK    2  A    between atoms: C_9  and  C_10 
REMARK    3  A    between atoms: C_10  and  N_11 
REMARK       I    between atoms: N_11  and  C_12 
REMARK    4  A    between atoms: C_12  and  C_13 
REMARK    5  A    between atoms: C_13  and  C_14 
REMARK    6  A    between atoms: C_14  and  C_15 
REMARK    7  A    between atoms: C_15  and  N_16 
ROOT
HETATM    1  C   UNL     1     -41.288  59.387 -53.236  1.00  0.00     0.104 C 
ENDROOT
BRANCH   1   2
HETATM    2  C   UNL     1     -42.116  60.370 -54.034  1.00  0.00     0.217 C 
HETATM    3  N   UNL     1     -42.004  60.244 -55.399  1.00  0.00    -0.361 N 
HETATM    4  H   UNL     1     -41.184  59.779 -55.771  1.00  0.00     0.162 HD
HETATM    5  O   UNL     1     -42.869  61.172 -53.489  1.00  0.00    -0.274 OA
BRANCH   3   6
HETATM    6  C   UNL     1     -42.708  61.157 -56.285  1.00  0.00     0.127 C 
BRANCH   6   7
HETATM    7  C   UNL     1     -43.998  60.562 -56.853  1.00  0.00     0.060 C 
BRANCH   7   8
HETATM    8  C   UNL     1     -43.938  59.072 -57.000  1.00  0.00    -0.029 A 
HETATM    9  C   UNL     1     -43.314  58.330 -58.054  1.00  0.00    -0.002 A 
HETATM   10  C   UNL     1     -42.593  58.684 -59.213  1.00  0.00     0.014 A 
HETATM   11  C   UNL     1     -43.525  56.975 -57.792  1.00  0.00     0.042 A 
HETATM   12  C   UNL     1     -42.124  57.680 -60.068  1.00  0.00     0.001 A 
HETATM   13  C   UNL     1     -42.353  56.337 -59.778  1.00  0.00     0.002 A 
HETATM   14  C   UNL     1     -43.057  55.958 -58.632  1.00  0.00     0.030 A 
HETATM   15  N   UNL     1     -44.233  56.895 -56.616  1.00  0.00    -0.365 N 
HETATM   16  H   UNL     1     -44.521  56.030 -56.179  1.00  0.00     0.165 HD
HETATM   17  C   UNL     1     -44.490  58.148 -56.131  1.00  0.00     0.096 A 
ENDBRANCH   7   8
ENDBRANCH   6   7
ENDBRANCH   3   6
ENDBRANCH   1   2
BRANCH   1  18
HETATM   18  C   UNL     1     -41.105  58.042 -53.932  1.00  0.00     0.029 C 
BRANCH  18  19
HETATM   19  C   UNL     1     -42.129  57.030 -53.410  1.00  0.00     0.135 C 
BRANCH  19  20
HETATM   20  N   UNL     1     -41.495  55.846 -52.813  1.00  0.00    -0.290 N 
HETATM   21  C   UNL     1     -41.180  55.786 -51.456  1.00  0.00     0.181 A 
HETATM   22  S   UNL     1     -41.412  56.988 -50.308  1.00  0.00    -0.040 SA
HETATM   23  N   UNL     1     -40.627  54.620 -50.999  1.00  0.00    -0.332 N 
HETATM   24  C   UNL     1     -40.370  53.511 -51.799  1.00  0.00     0.050 A 
HETATM   25  H   UNL     1     -40.416  54.584 -50.007  1.00  0.00     0.168 HD
HETATM   26  C   UNL     1     -40.645  53.566 -53.158  1.00  0.00     0.060 A 
HETATM   27  C   UNL     1     -39.841  52.352 -51.232  1.00  0.00     0.032 A 
HETATM   28  C   UNL     1     -41.211  54.808 -53.714  1.00  0.00     0.262 A 
HETATM   29  C   UNL     1     -40.395  52.457 -53.975  1.00  0.00     0.038 A 
HETATM   30  O   UNL     1     -41.407  54.875 -54.926  1.00  0.00    -0.267 OA
HETATM   31  C   UNL     1     -39.871  51.299 -53.408  1.00  0.00     0.012 A 
HETATM   32  C   UNL     1     -39.593  51.239 -52.041  1.00  0.00     0.021 A 
HETATM   33 BR   UNL     1     -39.537  49.789 -54.497  1.00  0.00    -0.051 Br
ENDBRANCH  19  20
ENDBRANCH  18  19
ENDBRANCH   1  18
TORSDOF 7
ENDMDL
MODEL 5
REMARK VINA RESULT:      -7.8      2.008      3.152
REMARK  7 active torsions:
REMARK  status: ('A' for Active; 'I' for Inactive)
REMARK    1  A    between atoms: C_8  and  C_9 
REMARK    2  A    between atoms: C_9  and  C_10 
REMARK    3  A    between atoms: C_10  and  N_11 
REMARK       I    between atoms: N_11  and  C_12 
REMARK    4  A    between atoms: C_12  and  C_13 
REMARK    5  A    between atoms: C_13  and  C_14 
REMARK    6  A    between atoms: C_14  and  C_15 
REMARK    7  A    between atoms: C_15  and  N_16 
ROOT
HETATM    1  C   UNL     1     -44.239  58.090 -55.760  1.00  0.00     0.104 C 
ENDROOT
BRANCH   1   2
HETATM    2  C   UNL     1     -43.340  57.411 -56.771  1.00  0.00     0.217 C 
HETATM    3  N   UNL     1     -43.924  56.372 -57.455  1.00  0.00    -0.361 N 
HETATM    4  H   UNL     1     -44.734  55.923 -57.043  1.00  0.00     0.162 HD
HETATM    5  O   UNL     1     -42.199  57.809 -56.990  1.00  0.00    -0.274 OA
BRANCH   3   6
HETATM    6  C   UNL     1     -43.158  55.600 -58.420  1.00  0.00     0.127 C 
BRANCH   6   7
HETATM    7  C   UNL     1     -43.773  55.618 -59.821  1.00  0.00     0.060 C 
BRANCH   7   8
HETATM    8  C   UNL     1     -44.346  56.952 -60.191  1.00  0.00    -0.029 A 
HETATM    9  C   UNL     1     -43.624  58.160 -60.459  1.00  0.00    -0.002 A 
HETATM   10  C   UNL     1     -42.256  58.503 -60.484  1.00  0.00     0.014 A 
HETATM   11  C   UNL     1     -44.562  59.153 -60.740  1.00  0.00     0.042 A 
HETATM   12  C   UNL     1     -41.881  59.821 -60.773  1.00  0.00     0.001 A 
HETATM   13  C   UNL     1     -42.843  60.789 -61.047  1.00  0.00     0.002 A 
HETATM   14  C   UNL     1     -44.205  60.474 -61.038  1.00  0.00     0.030 A 
HETATM   15  N   UNL     1     -45.805  58.571 -60.664  1.00  0.00    -0.365 N 
HETATM   16  H   UNL     1     -46.676  59.056 -60.828  1.00  0.00     0.165 HD
HETATM   17  C   UNL     1     -45.689  57.249 -60.332  1.00  0.00     0.096 A 
ENDBRANCH   7   8
ENDBRANCH   6   7
ENDBRANCH   3   6
ENDBRANCH   1   2
BRANCH   1  18
HETATM   18  C   UNL     1     -43.823  57.840 -54.313  1.00  0.00     0.029 C 
BRANCH  18  19
HETATM   19  C   UNL     1     -44.256  56.439 -53.871  1.00  0.00     0.135 C 
BRANCH  19  20
HETATM   20  N   UNL     1     -43.145  55.660 -53.308  1.00  0.00    -0.290 N 
HETATM   21  C   UNL     1     -42.516  56.028 -52.119  1.00  0.00     0.181 A 
HETATM   22  S   UNL     1     -42.852  57.369 -51.169  1.00  0.00    -0.040 SA
HETATM   23  N   UNL     1     -41.518  55.207 -51.666  1.00  0.00    -0.332 N 
HETATM   24  C   UNL     1     -41.108  54.046 -52.314  1.00  0.00     0.050 A 
HETATM   25  H   UNL     1     -41.079  55.478 -50.793  1.00  0.00     0.168 HD
HETATM   26  C   UNL     1     -41.699  53.683 -53.515  1.00  0.00     0.060 A 
HETATM   27  C   UNL     1     -40.108  53.252 -51.751  1.00  0.00     0.032 A 
HETATM   28  C   UNL     1     -42.757  54.546 -54.070  1.00  0.00     0.262 A 
HETATM   29  C   UNL     1     -41.299  52.516 -54.176  1.00  0.00     0.038 A 
HETATM   30  O   UNL     1     -43.246  54.253 -55.160  1.00  0.00    -0.267 OA
HETATM   31  C   UNL     1     -40.304  51.722 -53.611  1.00  0.00     0.012 A 
HETATM   32  C   UNL     1     -39.706  52.083 -52.403  1.00  0.00     0.021 A 
HETATM   33 BR   UNL     1     -39.759  50.137 -54.487  1.00  0.00    -0.051 Br
ENDBRANCH  19  20
ENDBRANCH  18  19
ENDBRANCH   1  18
TORSDOF 7
ENDMDL
MODEL 6
REMARK VINA RESULT:      -7.5      2.871      7.923
REMARK  7 active torsions:
REMARK  status: ('A' for Active; 'I' for Inactive)
REMARK    1  A    between atoms: C_8  and  C_9 
REMARK    2  A    between atoms: C_9  and  C_10 
REMARK    3  A    between atoms: C_10  and  N_11 
REMARK       I    between atoms: N_11  and  C_12 
REMARK    4  A    between atoms: C_12  and  C_13 
REMARK    5  A    between atoms: C_13  and  C_14 
REMARK    6  A    between atoms: C_14  and  C_15 
REMARK    7  A    between atoms: C_15  and  N_16 
ROOT
HETATM    1  C   UNL     1     -41.479  56.849 -50.855  1.00  0.00     0.104 C 
ENDROOT
BRANCH   1   2
HETATM    2  C   UNL     1     -40.993  55.746 -49.939  1.00  0.00     0.217 C 
HETATM    3  N   UNL     1     -40.118  54.858 -50.520  1.00  0.00    -0.361 N 
HETATM    4  H   UNL     1     -40.114  54.782 -51.530  1.00  0.00     0.162 HD
HETATM    5  O   UNL     1     -41.318  55.699 -48.756  1.00  0.00    -0.274 OA
BRANCH   3   6
HETATM    6  C   UNL     1     -39.611  53.723 -49.767  1.00  0.00     0.127 C 
BRANCH   6   7
HETATM    7  C   UNL     1     -40.585  52.543 -49.739  1.00  0.00     0.060 C 
BRANCH   7   8
HETATM    8  C   UNL     1     -40.177  51.427 -50.651  1.00  0.00    -0.029 A 
HETATM    9  C   UNL     1     -40.087  51.466 -52.080  1.00  0.00    -0.002 A 
HETATM   10  C   UNL     1     -40.314  52.461 -53.053  1.00  0.00     0.014 A 
HETATM   11  C   UNL     1     -39.690  50.199 -52.508  1.00  0.00     0.042 A 
HETATM   12  C   UNL     1     -40.148  52.152 -54.409  1.00  0.00     0.001 A 
HETATM   13  C   UNL     1     -39.752  50.877 -54.803  1.00  0.00     0.002 A 
HETATM   14  C   UNL     1     -39.513  49.874 -53.859  1.00  0.00     0.030 A 
HETATM   15  N   UNL     1     -39.526  49.424 -51.385  1.00  0.00    -0.365 N 
HETATM   16  H   UNL     1     -39.233  48.456 -51.394  1.00  0.00     0.165 HD
HETATM   17  C   UNL     1     -39.818  50.149 -50.263  1.00  0.00     0.096 A 
ENDBRANCH   7   8
ENDBRANCH   6   7
ENDBRANCH   3   6
ENDBRANCH   1   2
BRANCH   1  18
HETATM   18  C   UNL     1     -41.468  56.460 -52.331  1.00  0.00     0.029 C 
BRANCH  18  19
HETATM   19  C   UNL     1     -42.803  55.818 -52.721  1.00  0.00     0.135 C 
BRANCH  19  20
HETATM   20  N   UNL     1     -43.513  56.583 -53.755  1.00  0.00    -0.290 N 
HETATM   21  C   UNL     1     -44.432  57.581 -53.430  1.00  0.00     0.181 A 
HETATM   22  S   UNL     1     -44.911  58.056 -51.894  1.00  0.00    -0.040 SA
HETATM   23  N   UNL     1     -45.005  58.258 -54.473  1.00  0.00    -0.332 N 
HETATM   24  C   UNL     1     -44.724  58.011 -55.814  1.00  0.00     0.050 A 
HETATM   25  H   UNL     1     -45.661  58.991 -54.223  1.00  0.00     0.168 HD
HETATM   26  C   UNL     1     -43.839  56.999 -56.156  1.00  0.00     0.060 A 
HETATM   27  C   UNL     1     -45.331  58.783 -56.805  1.00  0.00     0.032 A 
HETATM   28  C   UNL     1     -43.215  56.213 -55.076  1.00  0.00     0.262 A 
HETATM   29  C   UNL     1     -43.544  56.741 -57.499  1.00  0.00     0.038 A 
HETATM   30  O   UNL     1     -42.470  55.283 -55.379  1.00  0.00    -0.267 OA
HETATM   31  C   UNL     1     -44.146  57.515 -58.488  1.00  0.00     0.012 A 
HETATM   32  C   UNL     1     -45.038  58.535 -58.149  1.00  0.00     0.021 A 
HETATM   33 BR   UNL     1     -43.751  57.186 -60.307  1.00  0.00    -0.051 Br
ENDBRANCH  19  20
ENDBRANCH  18  19
ENDBRANCH   1  18
TORSDOF 7
ENDMDL
MODEL 7
REMARK VINA RESULT:      -7.5      3.254      7.039
REMARK  7 active torsions:
REMARK  status: ('A' for Active; 'I' for Inactive)
REMARK    1  A    between atoms: C_8  and  C_9 
REMARK    2  A    between atoms: C_9  and  C_10 
REMARK    3  A    between atoms: C_10  and  N_11 
REMARK       I    between atoms: N_11  and  C_12 
REMARK    4  A    between atoms: C_12  and  C_13 
REMARK    5  A    between atoms: C_13  and  C_14 
REMARK    6  A    between atoms: C_14  and  C_15 
REMARK    7  A    between atoms: C_15  and  N_16 
ROOT
HETATM    1  C   UNL     1     -41.193  57.314 -50.002  1.00  0.00     0.104 C 
ENDROOT
BRANCH   1   2
HETATM    2  C   UNL     1     -40.892  55.880 -49.622  1.00  0.00     0.217 C 
HETATM    3  N   UNL     1     -40.204  55.164 -50.573  1.00  0.00    -0.361 N 
HETATM    4  H   UNL     1     -40.236  55.488 -51.533  1.00  0.00     0.162 HD
HETATM    5  O   UNL     1     -41.195  55.427 -48.522  1.00  0.00    -0.274 OA
BRANCH   3   6
HETATM    6  C   UNL     1     -39.893  53.760 -50.358  1.00  0.00     0.127 C 
BRANCH   6   7
HETATM    7  C   UNL     1     -40.969  52.820 -50.904  1.00  0.00     0.060 C 
BRANCH   7   8
HETATM    8  C   UNL     1     -41.922  53.503 -51.837  1.00  0.00    -0.029 A 
HETATM    9  C   UNL     1     -41.676  53.895 -53.192  1.00  0.00    -0.002 A 
HETATM   10  C   UNL     1     -40.571  53.787 -54.062  1.00  0.00     0.014 A 
HETATM   11  C   UNL     1     -42.834  54.513 -53.665  1.00  0.00     0.042 A 
HETATM   12  C   UNL     1     -40.659  54.308 -55.358  1.00  0.00     0.001 A 
HETATM   13  C   UNL     1     -41.830  54.922 -55.798  1.00  0.00     0.002 A 
HETATM   14  C   UNL     1     -42.942  55.034 -54.960  1.00  0.00     0.030 A 
HETATM   15  N   UNL     1     -43.755  54.483 -52.645  1.00  0.00    -0.365 N 
HETATM   16  H   UNL     1     -44.692  54.856 -52.708  1.00  0.00     0.165 HD
HETATM   17  C   UNL     1     -43.219  53.881 -51.540  1.00  0.00     0.096 A 
ENDBRANCH   7   8
ENDBRANCH   6   7
ENDBRANCH   3   6
ENDBRANCH   1   2
BRANCH   1  18
HETATM   18  C   UNL     1     -41.115  57.573 -51.504  1.00  0.00     0.029 C 
BRANCH  18  19
HETATM   19  C   UNL     1     -41.916  58.827 -51.868  1.00  0.00     0.135 C 
BRANCH  19  20
HETATM   20  N   UNL     1     -42.826  58.603 -53.000  1.00  0.00    -0.290 N 
HETATM   21  C   UNL     1     -44.130  58.145 -52.816  1.00  0.00     0.181 A 
HETATM   22  S   UNL     1     -44.868  57.747 -51.362  1.00  0.00    -0.040 SA
HETATM   23  N   UNL     1     -44.903  58.009 -53.938  1.00  0.00    -0.332 N 
HETATM   24  C   UNL     1     -44.468  58.300 -55.227  1.00  0.00     0.050 A 
HETATM   25  H   UNL     1     -45.855  57.689 -53.788  1.00  0.00     0.168 HD
HETATM   26  C   UNL     1     -43.163  58.724 -55.432  1.00  0.00     0.060 A 
HETATM   27  C   UNL     1     -45.345  58.167 -56.303  1.00  0.00     0.032 A 
HETATM   28  C   UNL     1     -42.272  58.857 -54.265  1.00  0.00     0.262 A 
HETATM   29  C   UNL     1     -42.711  59.023 -56.722  1.00  0.00     0.038 A 
HETATM   30  O   UNL     1     -41.101  59.183 -54.452  1.00  0.00    -0.267 OA
HETATM   31  C   UNL     1     -43.589  58.895 -57.796  1.00  0.00     0.012 A 
HETATM   32  C   UNL     1     -44.903  58.470 -57.594  1.00  0.00     0.021 A 
HETATM   33 BR   UNL     1     -42.997  59.306 -59.545  1.00  0.00    -0.051 Br
ENDBRANCH  19  20
ENDBRANCH  18  19
ENDBRANCH   1  18
TORSDOF 7
ENDMDL
MODEL 8
REMARK VINA RESULT:      -7.5      3.935      8.201
REMARK  7 active torsions:
REMARK  status: ('A' for Active; 'I' for Inactive)
REMARK    1  A    between atoms: C_8  and  C_9 
REMARK    2  A    between atoms: C_9  and  C_10 
REMARK    3  A    between atoms: C_10  and  N_11 
REMARK       I    between atoms: N_11  and  C_12 
REMARK    4  A    between atoms: C_12  and  C_13 
REMARK    5  A    between atoms: C_13  and  C_14 
REMARK    6  A    between atoms: C_14  and  C_15 
REMARK    7  A    between atoms: C_15  and  N_16 
ROOT
HETATM    1  C   UNL     1     -41.848  59.324 -52.527  1.00  0.00     0.104 C 
ENDROOT
BRANCH   1   2
HETATM    2  C   UNL     1     -41.028  58.471 -51.583  1.00  0.00     0.217 C 
HETATM    3  N   UNL     1     -41.556  57.228 -51.325  1.00  0.00    -0.361 N 
HETATM    4  H   UNL     1     -42.547  57.086 -51.481  1.00  0.00     0.162 HD
HETATM    5  O   UNL     1     -39.949  58.853 -51.140  1.00  0.00    -0.274 OA
BRANCH   3   6
HETATM    6  C   UNL     1     -40.895  56.324 -50.397  1.00  0.00     0.127 C 
BRANCH   6   7
HETATM    7  C   UNL     1     -41.695  55.045 -50.138  1.00  0.00     0.060 C 
BRANCH   7   8
HETATM    8  C   UNL     1     -40.991  53.810 -50.610  1.00  0.00    -0.029 A 
HETATM    9  C   UNL     1     -40.806  53.384 -51.965  1.00  0.00    -0.002 A 
HETATM   10  C   UNL     1     -41.168  53.913 -53.222  1.00  0.00     0.014 A 
HETATM   11  C   UNL     1     -40.115  52.172 -51.931  1.00  0.00     0.042 A 
HETATM   12  C   UNL     1     -40.840  53.210 -54.387  1.00  0.00     0.001 A 
HETATM   13  C   UNL     1     -40.152  52.002 -54.317  1.00  0.00     0.002 A 
HETATM   14  C   UNL     1     -39.773  51.459 -53.086  1.00  0.00     0.030 A 
HETATM   15  N   UNL     1     -39.873  51.880 -50.609  1.00  0.00    -0.365 N 
HETATM   16  H   UNL     1     -39.379  51.060 -50.285  1.00  0.00     0.165 HD
HETATM   17  C   UNL     1     -40.396  52.856 -49.806  1.00  0.00     0.096 A 
ENDBRANCH   7   8
ENDBRANCH   6   7
ENDBRANCH   3   6
ENDBRANCH   1   2
BRANCH   1  18
HETATM   18  C   UNL     1     -41.507  59.103 -53.997  1.00  0.00     0.029 C 
BRANCH  18  19
HETATM   19  C   UNL     1     -42.785  59.094 -54.843  1.00  0.00     0.135 C 
BRANCH  19  20
HETATM   20  N   UNL     1     -42.513  58.851 -56.267  1.00  0.00    -0.290 N 
HETATM   21  C   UNL     1     -42.440  57.561 -56.792  1.00  0.00     0.181 A 
HETATM   22  S   UNL     1     -42.600  56.116 -55.955  1.00  0.00    -0.040 SA
HETATM   23  N   UNL     1     -42.222  57.453 -58.139  1.00  0.00    -0.332 N 
HETATM   24  C   UNL     1     -42.074  58.539 -58.997  1.00  0.00     0.050 A 
HETATM   25  H   UNL     1     -42.185  56.509 -58.511  1.00  0.00     0.168 HD
HETATM   26  C   UNL     1     -42.110  59.828 -58.486  1.00  0.00     0.060 A 
HETATM   27  C   UNL     1     -41.895  58.326 -60.364  1.00  0.00     0.032 A 
HETATM   28  C   UNL     1     -42.309  60.007 -57.036  1.00  0.00     0.262 A 
HETATM   29  C   UNL     1     -41.966  60.930 -59.336  1.00  0.00     0.038 A 
HETATM   30  O   UNL     1     -42.290  61.147 -56.575  1.00  0.00    -0.267 OA
HETATM   31  C   UNL     1     -41.793  60.717 -60.702  1.00  0.00     0.012 A 
HETATM   32  C   UNL     1     -41.756  59.421 -61.220  1.00  0.00     0.021 A 
HETATM   33 BR   UNL     1     -41.607  62.196 -61.865  1.00  0.00    -0.051 Br
ENDBRANCH  19  20
ENDBRANCH  18  19
ENDBRANCH   1  18
TORSDOF 7
ENDMDL
MODEL 9
REMARK VINA RESULT:      -7.2      2.878      6.906
REMARK  7 active torsions:
REMARK  status: ('A' for Active; 'I' for Inactive)
REMARK    1  A    between atoms: C_8  and  C_9 
REMARK    2  A    between atoms: C_9  and  C_10 
REMARK    3  A    between atoms: C_10  and  N_11 
REMARK       I    between atoms: N_11  and  C_12 
REMARK    4  A    between atoms: C_12  and  C_13 
REMARK    5  A    between atoms: C_13  and  C_14 
REMARK    6  A    between atoms: C_14  and  C_15 
REMARK    7  A    between atoms: C_15  and  N_16 
ROOT
HETATM    1  C   UNL     1     -43.914  57.603 -58.476  1.00  0.00     0.104 C 
ENDROOT
BRANCH   1   2
HETATM    2  C   UNL     1     -43.306  56.347 -57.888  1.00  0.00     0.217 C 
HETATM    3  N   UNL     1     -43.469  56.209 -56.530  1.00  0.00    -0.361 N 
HETATM    4  H   UNL     1     -43.659  57.042 -55.984  1.00  0.00     0.162 HD
HETATM    5  O   UNL     1     -42.766  55.500 -58.594  1.00  0.00    -0.274 OA
BRANCH   3   6
HETATM    6  C   UNL     1     -42.892  55.074 -55.829  1.00  0.00     0.127 C 
BRANCH   6   7
HETATM    7  C   UNL     1     -43.567  54.797 -54.484  1.00  0.00     0.060 C 
BRANCH   7   8
HETATM    8  C   UNL     1     -42.591  54.454 -53.400  1.00  0.00    -0.029 A 
HETATM    9  C   UNL     1     -41.603  53.417 -53.421  1.00  0.00    -0.002 A 
HETATM   10  C   UNL     1     -41.216  52.446 -54.367  1.00  0.00     0.014 A 
HETATM   11  C   UNL     1     -40.938  53.451 -52.195  1.00  0.00     0.042 A 
HETATM   12  C   UNL     1     -40.194  51.543 -54.051  1.00  0.00     0.001 A 
HETATM   13  C   UNL     1     -39.551  51.603 -52.817  1.00  0.00     0.002 A 
HETATM   14  C   UNL     1     -39.909  52.561 -51.864  1.00  0.00     0.030 A 
HETATM   15  N   UNL     1     -41.485  54.479 -51.464  1.00  0.00    -0.365 N 
HETATM   16  H   UNL     1     -41.190  54.740 -50.533  1.00  0.00     0.165 HD
HETATM   17  C   UNL     1     -42.481  55.088 -52.176  1.00  0.00     0.096 A 
ENDBRANCH   7   8
ENDBRANCH   6   7
ENDBRANCH   3   6
ENDBRANCH   1   2
BRANCH   1  18
HETATM   18  C   UNL     1     -42.928  58.763 -58.579  1.00  0.00     0.029 C 
BRANCH  18  19
HETATM   19  C   UNL     1     -43.483  59.996 -57.860  1.00  0.00     0.135 C 
BRANCH  19  20
HETATM   20  N   UNL     1     -43.867  59.710 -56.470  1.00  0.00    -0.290 N 
HETATM   21  C   UNL     1     -45.202  59.567 -56.091  1.00  0.00     0.181 A 
HETATM   22  S   UNL     1     -46.555  59.721 -57.070  1.00  0.00    -0.040 SA
HETATM   23  N   UNL     1     -45.443  59.262 -54.778  1.00  0.00    -0.332 N 
HETATM   24  C   UNL     1     -44.448  59.087 -53.821  1.00  0.00     0.050 A 
HETATM   25  H   UNL     1     -46.417  59.147 -54.518  1.00  0.00     0.168 HD
HETATM   26  C   UNL     1     -43.117  59.259 -54.173  1.00  0.00     0.060 A 
HETATM   27  C   UNL     1     -44.793  58.737 -52.516  1.00  0.00     0.032 A 
HETATM   28  C   UNL     1     -42.797  59.621 -55.566  1.00  0.00     0.262 A 
HETATM   29  C   UNL     1     -42.106  59.083 -53.223  1.00  0.00     0.038 A 
HETATM   30  O   UNL     1     -41.622  59.823 -55.867  1.00  0.00    -0.267 OA
HETATM   31  C   UNL     1     -42.451  58.728 -51.921  1.00  0.00     0.012 A 
HETATM   32  C   UNL     1     -43.788  58.554 -51.562  1.00  0.00     0.021 A 
HETATM   33 BR   UNL     1     -41.095  58.477 -50.627  1.00  0.00    -0.051 Br
ENDBRANCH  19  20
ENDBRANCH  18  19
ENDBRANCH   1  18
TORSDOF 7
ENDMDL
MODEL 10
REMARK VINA RESULT:      -7.2     16.304     18.654
REMARK  7 active torsions:
REMARK  status: ('A' for Active; 'I' for Inactive)
REMARK    1  A    between atoms: C_8  and  C_9 
REMARK    2  A    between atoms: C_9  and  C_10 
REMARK    3  A    between atoms: C_10  and  N_11 
REMARK       I    between atoms: N_11  and  C_12 
REMARK    4  A    between atoms: C_12  and  C_13 
REMARK    5  A    between atoms: C_13  and  C_14 
REMARK    6  A    between atoms: C_14  and  C_15 
REMARK    7  A    between atoms: C_15  and  N_16 
ROOT
HETATM    1  C   UNL     1     -31.986  39.137 -53.662  1.00  0.00     0.104 C 
ENDROOT
BRANCH   1   2
HETATM    2  C   UNL     1     -32.463  40.116 -52.610  1.00  0.00     0.217 C 
HETATM    3  N   UNL     1     -33.820  40.109 -52.389  1.00  0.00    -0.361 N 
HETATM    4  H   UNL     1     -34.421  39.739 -53.116  1.00  0.00     0.162 HD
HETATM    5  O   UNL     1     -31.678  40.812 -51.973  1.00  0.00    -0.274 OA
BRANCH   3   6
HETATM    6  C   UNL     1     -34.418  41.034 -51.440  1.00  0.00     0.127 C 
BRANCH   6   7
HETATM    7  C   UNL     1     -35.015  42.273 -52.111  1.00  0.00     0.060 C 
BRANCH   7   8
HETATM    8  C   UNL     1     -36.095  41.942 -53.094  1.00  0.00    -0.029 A 
HETATM    9  C   UNL     1     -36.009  41.988 -54.523  1.00  0.00    -0.002 A 
HETATM   10  C   UNL     1     -34.985  42.316 -55.437  1.00  0.00     0.014 A 
HETATM   11  C   UNL     1     -37.256  41.620 -55.029  1.00  0.00     0.042 A 
HETATM   12  C   UNL     1     -35.248  42.277 -56.811  1.00  0.00     0.001 A 
HETATM   13  C   UNL     1     -36.505  41.906 -57.283  1.00  0.00     0.002 A 
HETATM   14  C   UNL     1     -37.534  41.568 -56.400  1.00  0.00     0.030 A 
HETATM   15  N   UNL     1     -38.064  41.342 -53.953  1.00  0.00    -0.365 N 
HETATM   16  H   UNL     1     -39.027  41.042 -54.022  1.00  0.00     0.165 HD
HETATM   17  C   UNL     1     -37.379  41.534 -52.784  1.00  0.00     0.096 A 
ENDBRANCH   7   8
ENDBRANCH   6   7
ENDBRANCH   3   6
ENDBRANCH   1   2
BRANCH   1  18
HETATM   18  C   UNL     1     -32.628  39.355 -55.029  1.00  0.00     0.029 C 
BRANCH  18  19
HETATM   19  C   UNL     1     -33.048  38.014 -55.638  1.00  0.00     0.135 C 
BRANCH  19  20
HETATM   20  N   UNL     1     -34.387  38.067 -56.243  1.00  0.00    -0.290 N 
HETATM   21  C   UNL     1     -35.546  37.980 -55.472  1.00  0.00     0.181 A 
HETATM   22  S   UNL     1     -35.644  37.772 -53.810  1.00  0.00    -0.040 SA
HETATM   23  N   UNL     1     -36.739  38.081 -56.135  1.00  0.00    -0.332 N 
HETATM   24  C   UNL     1     -36.856  38.265 -57.509  1.00  0.00     0.050 A 
HETATM   25  H   UNL     1     -37.574  38.030 -55.561  1.00  0.00     0.168 HD
HETATM   26  C   UNL     1     -35.714  38.320 -58.296  1.00  0.00     0.060 A 
HETATM   27  C   UNL     1     -38.119  38.397 -58.088  1.00  0.00     0.032 A 
HETATM   28  C   UNL     1     -34.401  38.184 -57.641  1.00  0.00     0.262 A 
HETATM   29  C   UNL     1     -35.816  38.508 -59.679  1.00  0.00     0.038 A 
HETATM   30  O   UNL     1     -33.390  38.181 -58.343  1.00  0.00    -0.267 OA
HETATM   31  C   UNL     1     -37.076  38.644 -60.255  1.00  0.00     0.012 A 
HETATM   32  C   UNL     1     -38.228  38.590 -59.468  1.00  0.00     0.021 A 
HETATM   33 BR   UNL     1     -37.231  38.909 -62.121  1.00  0.00    -0.051 Br
ENDBRANCH  19  20
ENDBRANCH  18  19
ENDBRANCH   1  18
TORSDOF 7
ENDMDL
