MODEL 1
REMARK VINA RESULT:      -9.2      0.000      0.000
REMARK  6 active torsions:
REMARK  status: ('A' for Active; 'I' for Inactive)
REMARK    1  A    between atoms: C_8  and  C_9 
REMARK    2  A    between atoms: C_9  and  C_10 
REMARK    3  A    between atoms: C_10  and  N_11 
REMARK       I    between atoms: N_11  and  C_12 
REMARK    4  A    between atoms: C_12  and  C_13 
REMARK    5  A    between atoms: C_18  and  C_19 
REMARK    6  A    between atoms: C_29  and  C_30 
ROOT
HETATM    1  C   UNL     1     -43.040  58.958 -56.363  1.00  0.00     0.148 A 
HETATM    2  N   UNL     1     -42.608  59.148 -55.096  1.00  0.00    -0.165 NA
HETATM    3  N   UNL     1     -42.841  57.963 -54.501  1.00  0.00    -0.240 N 
HETATM    4  C   UNL     1     -43.434  57.042 -55.317  1.00  0.00     0.123 A 
HETATM    5  N   UNL     1     -43.781  55.815 -54.877  1.00  0.00    -0.366 N 
HETATM    6  C   UNL     1     -43.474  55.351 -53.532  1.00  0.00     0.118 C 
HETATM    7  C   UNL     1     -43.335  56.534 -52.556  1.00  0.00     0.066 C 
HETATM    8  C   UNL     1     -42.547  57.742 -53.099  1.00  0.00     0.221 C 
HETATM    9  C   UNL     1     -43.564  57.648 -56.537  1.00  0.00     0.088 A 
HETATM   10  H   UNL     1     -44.106  55.098 -55.524  1.00  0.00     0.161 HD
ENDROOT
BRANCH   1  11
HETATM   11  C   UNL     1     -42.962  60.002 -57.397  1.00  0.00     0.272 C 
HETATM   12  N   UNL     1     -41.871  59.886 -58.230  1.00  0.00    -0.355 N 
HETATM   13  H   UNL     1     -41.370  59.001 -58.162  1.00  0.00     0.162 HD
HETATM   14  O   UNL     1     -43.811  60.882 -57.512  1.00  0.00    -0.266 OA
BRANCH  12  15
HETATM   15  C   UNL     1     -41.751  60.704 -59.418  1.00  0.00     0.127 C 
BRANCH  15  16
HETATM   16  C   UNL     1     -42.076  59.952 -60.709  1.00  0.00     0.060 C 
BRANCH  16  17
HETATM   17  C   UNL     1     -43.356  59.177 -60.632  1.00  0.00    -0.029 A 
HETATM   18  C   UNL     1     -43.513  57.797 -60.286  1.00  0.00    -0.002 A 
HETATM   19  C   UNL     1     -42.621  56.766 -59.925  1.00  0.00     0.014 A 
HETATM   20  C   UNL     1     -44.876  57.503 -60.351  1.00  0.00     0.042 A 
HETATM   21  C   UNL     1     -43.121  55.489 -59.645  1.00  0.00     0.001 A 
HETATM   22  C   UNL     1     -44.487  55.229 -59.719  1.00  0.00     0.002 A 
HETATM   23  C   UNL     1     -45.392  56.231 -60.074  1.00  0.00     0.030 A 
HETATM   24  N   UNL     1     -45.523  58.659 -60.718  1.00  0.00    -0.365 N 
HETATM   25  H   UNL     1     -46.522  58.740 -60.839  1.00  0.00     0.165 HD
HETATM   26  C   UNL     1     -44.620  59.672 -60.893  1.00  0.00     0.096 A 
ENDBRANCH  16  17
ENDBRANCH  15  16
ENDBRANCH  12  15
ENDBRANCH   1  11
BRANCH   8  27
HETATM   27  C   UNL     1     -41.055  57.647 -52.874  1.00  0.00     0.409 C 
HETATM   28  F   UNL     1     -40.755  56.989 -51.731  1.00  0.00    -0.169 F 
HETATM   29  F   UNL     1     -40.480  56.933 -53.879  1.00  0.00    -0.169 F 
HETATM   30  F   UNL     1     -40.433  58.839 -52.832  1.00  0.00    -0.169 F 
ENDBRANCH   8  27
BRANCH   6  31
HETATM   31  C   UNL     1     -42.332  54.348 -53.507  1.00  0.00    -0.033 A 
HETATM   32  C   UNL     1     -41.869  53.881 -52.261  1.00  0.00     0.049 A 
HETATM   33  C   UNL     1     -40.861  52.938 -52.239  1.00  0.00     0.105 A 
HETATM   34  C   UNL     1     -40.296  52.454 -53.393  1.00  0.00     0.105 A 
HETATM   35  O   UNL     1     -40.323  52.377 -51.124  1.00  0.00    -0.323 OA
HETATM   36  O   UNL     1     -39.327  51.532 -53.152  1.00  0.00    -0.323 OA
HETATM   37  C   UNL     1     -40.709  52.886 -54.632  1.00  0.00     0.040 A 
HETATM   38  C   UNL     1     -39.363  51.474 -51.712  1.00  0.00     0.352 A 
HETATM   39  C   UNL     1     -41.739  53.832 -54.685  1.00  0.00     0.012 A 
ENDBRANCH   6  31
TORSDOF 6
ENDMDL
MODEL 2
REMARK VINA RESULT:      -9.1      0.980      1.436
REMARK  6 active torsions:
REMARK  status: ('A' for Active; 'I' for Inactive)
REMARK    1  A    between atoms: C_8  and  C_9 
REMARK    2  A    between atoms: C_9  and  C_10 
REMARK    3  A    between atoms: C_10  and  N_11 
REMARK       I    between atoms: N_11  and  C_12 
REMARK    4  A    between atoms: C_12  and  C_13 
REMARK    5  A    between atoms: C_18  and  C_19 
REMARK    6  A    between atoms: C_29  and  C_30 
ROOT
HETATM    1  C   UNL     1     -43.363  58.483 -55.536  1.00  0.00     0.148 A 
HETATM    2  N   UNL     1     -42.810  58.855 -54.360  1.00  0.00    -0.165 NA
HETATM    3  N   UNL     1     -42.980  57.774 -53.575  1.00  0.00    -0.240 N 
HETATM    4  C   UNL     1     -43.646  56.748 -54.183  1.00  0.00     0.123 A 
HETATM    5  N   UNL     1     -43.945  55.604 -53.533  1.00  0.00    -0.366 N 
HETATM    6  C   UNL     1     -43.505  55.342 -52.170  1.00  0.00     0.118 C 
HETATM    7  C   UNL     1     -43.275  56.655 -51.400  1.00  0.00     0.066 C 
HETATM    8  C   UNL     1     -42.548  57.761 -52.191  1.00  0.00     0.221 C 
HETATM    9  C   UNL     1     -43.898  57.168 -55.461  1.00  0.00     0.088 A 
HETATM   10  H   UNL     1     -44.329  54.804 -54.031  1.00  0.00     0.161 HD
ENDROOT
BRANCH   1  11
HETATM   11  C   UNL     1     -43.391  59.361 -56.716  1.00  0.00     0.272 C 
HETATM   12  N   UNL     1     -42.200  59.408 -57.408  1.00  0.00    -0.355 N 
HETATM   13  H   UNL     1     -41.521  58.696 -57.144  1.00  0.00     0.162 HD
HETATM   14  O   UNL     1     -44.397  59.975 -57.059  1.00  0.00    -0.266 OA
BRANCH  12  15
HETATM   15  C   UNL     1     -42.114  60.060 -58.697  1.00  0.00     0.127 C 
BRANCH  15  16
HETATM   16  C   UNL     1     -42.106  59.081 -59.872  1.00  0.00     0.060 C 
BRANCH  16  17
HETATM   17  C   UNL     1     -43.450  58.477 -60.143  1.00  0.00    -0.029 A 
HETATM   18  C   UNL     1     -43.825  57.102 -60.008  1.00  0.00    -0.002 A 
HETATM   19  C   UNL     1     -43.145  55.933 -59.610  1.00  0.00     0.014 A 
HETATM   20  C   UNL     1     -45.168  56.997 -60.373  1.00  0.00     0.042 A 
HETATM   21  C   UNL     1     -43.828  54.710 -59.592  1.00  0.00     0.001 A 
HETATM   22  C   UNL     1     -45.168  54.640 -59.963  1.00  0.00     0.002 A 
HETATM   23  C   UNL     1     -45.866  55.783 -60.361  1.00  0.00     0.030 A 
HETATM   24  N   UNL     1     -45.595  58.259 -60.713  1.00  0.00    -0.365 N 
HETATM   25  H   UNL     1     -46.532  58.482 -61.016  1.00  0.00     0.165 HD
HETATM   26  C   UNL     1     -44.571  59.157 -60.583  1.00  0.00     0.096 A 
ENDBRANCH  16  17
ENDBRANCH  15  16
ENDBRANCH  12  15
ENDBRANCH   1  11
BRANCH   8  27
HETATM   27  C   UNL     1     -41.041  57.683 -52.102  1.00  0.00     0.409 C 
HETATM   28  F   UNL     1     -40.630  57.127 -50.939  1.00  0.00    -0.169 F 
HETATM   29  F   UNL     1     -40.559  56.883 -53.090  1.00  0.00    -0.169 F 
HETATM   30  F   UNL     1     -40.426  58.873 -52.222  1.00  0.00    -0.169 F 
ENDBRANCH   8  27
BRANCH   6  31
HETATM   31  C   UNL     1     -42.363  54.341 -52.107  1.00  0.00    -0.033 A 
HETATM   32  C   UNL     1     -42.000  53.655 -53.283  1.00  0.00     0.049 A 
HETATM   33  C   UNL     1     -40.935  52.778 -53.236  1.00  0.00     0.105 A 
HETATM   34  C   UNL     1     -40.233  52.550 -52.078  1.00  0.00     0.105 A 
HETATM   35  O   UNL     1     -40.451  52.061 -54.285  1.00  0.00    -0.323 OA
HETATM   36  O   UNL     1     -39.222  51.658 -52.248  1.00  0.00    -0.323 OA
HETATM   37  C   UNL     1     -40.556  53.189 -50.904  1.00  0.00     0.040 A 
HETATM   38  C   UNL     1     -39.355  51.366 -53.654  1.00  0.00     0.352 A 
HETATM   39  C   UNL     1     -41.623  54.095 -50.925  1.00  0.00     0.012 A 
ENDBRANCH   6  31
TORSDOF 6
ENDMDL
MODEL 3
REMARK VINA RESULT:      -8.9      3.027      9.083
REMARK  6 active torsions:
REMARK  status: ('A' for Active; 'I' for Inactive)
REMARK    1  A    between atoms: C_8  and  C_9 
REMARK    2  A    between atoms: C_9  and  C_10 
REMARK    3  A    between atoms: C_10  and  N_11 
REMARK       I    between atoms: N_11  and  C_12 
REMARK    4  A    between atoms: C_12  and  C_13 
REMARK    5  A    between atoms: C_18  and  C_19 
REMARK    6  A    between atoms: C_29  and  C_30 
ROOT
HETATM    1  C   UNL     1     -43.834  57.236 -56.160  1.00  0.00     0.148 A 
HETATM    2  N   UNL     1     -43.504  56.689 -57.352  1.00  0.00    -0.165 NA
HETATM    3  N   UNL     1     -43.716  57.689 -58.228  1.00  0.00    -0.240 N 
HETATM    4  C   UNL     1     -44.199  58.832 -57.656  1.00  0.00     0.123 A 
HETATM    5  N   UNL     1     -44.512  59.921 -58.389  1.00  0.00    -0.366 N 
HETATM    6  C   UNL     1     -44.276  59.993 -59.823  1.00  0.00     0.118 C 
HETATM    7  C   UNL     1     -44.270  58.588 -60.454  1.00  0.00     0.066 C 
HETATM    8  C   UNL     1     -43.510  57.513 -59.652  1.00  0.00     0.221 C 
HETATM    9  C   UNL     1     -44.274  58.578 -56.314  1.00  0.00     0.088 A 
HETATM   10  H   UNL     1     -44.751  60.803 -57.939  1.00  0.00     0.161 HD
ENDROOT
BRANCH   1  11
HETATM   11  C   UNL     1     -43.738  56.497 -54.891  1.00  0.00     0.272 C 
HETATM   12  N   UNL     1     -42.923  55.388 -54.948  1.00  0.00    -0.355 N 
HETATM   13  H   UNL     1     -42.341  55.324 -55.782  1.00  0.00     0.162 HD
HETATM   14  O   UNL     1     -44.319  56.858 -53.871  1.00  0.00    -0.266 OA
BRANCH  12  15
HETATM   15  C   UNL     1     -42.560  54.669 -53.746  1.00  0.00     0.127 C 
BRANCH  15  16
HETATM   16  C   UNL     1     -41.073  54.769 -53.405  1.00  0.00     0.060 C 
BRANCH  16  17
HETATM   17  C   UNL     1     -40.584  53.626 -52.568  1.00  0.00    -0.029 A 
HETATM   18  C   UNL     1     -40.284  52.297 -53.008  1.00  0.00    -0.002 A 
HETATM   19  C   UNL     1     -40.328  51.641 -54.255  1.00  0.00     0.014 A 
HETATM   20  C   UNL     1     -39.870  51.571 -51.890  1.00  0.00     0.042 A 
HETATM   21  C   UNL     1     -39.959  50.293 -54.338  1.00  0.00     0.001 A 
HETATM   22  C   UNL     1     -39.551  49.597 -53.203  1.00  0.00     0.002 A 
HETATM   23  C   UNL     1     -39.497  50.223 -51.955  1.00  0.00     0.030 A 
HETATM   24  N   UNL     1     -39.912  52.425 -50.814  1.00  0.00    -0.365 N 
HETATM   25  H   UNL     1     -39.660  52.168 -49.870  1.00  0.00     0.165 HD
HETATM   26  C   UNL     1     -40.344  53.662 -51.207  1.00  0.00     0.096 A 
ENDBRANCH  16  17
ENDBRANCH  15  16
ENDBRANCH  12  15
ENDBRANCH   1  11
BRANCH   8  27
HETATM   27  C   UNL     1     -42.035  57.441 -59.974  1.00  0.00     0.409 C 
HETATM   28  F   UNL     1     -41.271  57.917 -58.965  1.00  0.00    -0.169 F 
HETATM   29  F   UNL     1     -41.661  56.145 -60.147  1.00  0.00    -0.169 F 
HETATM   30  F   UNL     1     -41.689  58.103 -61.092  1.00  0.00    -0.169 F 
ENDBRANCH   8  27
BRANCH   6  31
HETATM   31  C   UNL     1     -43.088  60.872 -60.177  1.00  0.00    -0.033 A 
HETATM   32  C   UNL     1     -42.205  61.261 -59.150  1.00  0.00     0.049 A 
HETATM   33  C   UNL     1     -41.102  62.023 -59.479  1.00  0.00     0.105 A 
HETATM   34  C   UNL     1     -40.852  62.419 -60.769  1.00  0.00     0.105 A 
HETATM   35  O   UNL     1     -40.151  62.458 -58.610  1.00  0.00    -0.323 OA
HETATM   36  O   UNL     1     -39.715  63.156 -60.877  1.00  0.00    -0.323 OA
HETATM   37  C   UNL     1     -41.689  62.071 -61.803  1.00  0.00     0.040 A 
HETATM   38  C   UNL     1     -39.267  63.161 -59.507  1.00  0.00     0.352 A 
HETATM   39  C   UNL     1     -42.808  61.286 -61.502  1.00  0.00     0.012 A 
ENDBRANCH   6  31
TORSDOF 6
ENDMDL
MODEL 4
REMARK VINA RESULT:      -8.7      5.806      9.147
REMARK  6 active torsions:
REMARK  status: ('A' for Active; 'I' for Inactive)
REMARK    1  A    between atoms: C_8  and  C_9 
REMARK    2  A    between atoms: C_9  and  C_10 
REMARK    3  A    between atoms: C_10  and  N_11 
REMARK       I    between atoms: N_11  and  C_12 
REMARK    4  A    between atoms: C_12  and  C_13 
REMARK    5  A    between atoms: C_18  and  C_19 
REMARK    6  A    between atoms: C_29  and  C_30 
ROOT
HETATM    1  C   UNL     1     -44.166  58.096 -51.564  1.00  0.00     0.148 A 
HETATM    2  N   UNL     1     -44.485  57.483 -52.726  1.00  0.00    -0.165 NA
HETATM    3  N   UNL     1     -43.327  56.916 -53.113  1.00  0.00    -0.240 N 
HETATM    4  C   UNL     1     -42.279  57.169 -52.273  1.00  0.00     0.123 A 
HETATM    5  N   UNL     1     -41.033  56.718 -52.528  1.00  0.00    -0.366 N 
HETATM    6  C   UNL     1     -40.730  55.858 -53.662  1.00  0.00     0.118 C 
HETATM    7  C   UNL     1     -41.747  56.062 -54.800  1.00  0.00     0.066 C 
HETATM    8  C   UNL     1     -43.218  56.172 -54.352  1.00  0.00     0.221 C 
HETATM    9  C   UNL     1     -42.790  57.920 -51.250  1.00  0.00     0.088 A 
HETATM   10  H   UNL     1     -40.293  56.807 -51.835  1.00  0.00     0.161 HD
ENDROOT
BRANCH   1  11
HETATM   11  C   UNL     1     -45.147  58.843 -50.762  1.00  0.00     0.272 C 
HETATM   12  N   UNL     1     -44.656  60.010 -50.220  1.00  0.00    -0.355 N 
HETATM   13  H   UNL     1     -43.757  60.312 -50.592  1.00  0.00     0.162 HD
HETATM   14  O   UNL     1     -46.305  58.463 -50.613  1.00  0.00    -0.266 OA
BRANCH  12  15
HETATM   15  C   UNL     1     -45.537  60.960 -49.576  1.00  0.00     0.127 C 
BRANCH  15  16
HETATM   16  C   UNL     1     -45.497  60.888 -48.049  1.00  0.00     0.060 C 
BRANCH  16  17
HETATM   17  C   UNL     1     -46.242  62.007 -47.388  1.00  0.00    -0.029 A 
HETATM   18  C   UNL     1     -45.902  62.671 -46.166  1.00  0.00    -0.002 A 
HETATM   19  C   UNL     1     -44.852  62.538 -45.234  1.00  0.00     0.014 A 
HETATM   20  C   UNL     1     -46.879  63.640 -45.931  1.00  0.00     0.042 A 
HETATM   21  C   UNL     1     -44.818  63.371 -44.110  1.00  0.00     0.001 A 
HETATM   22  C   UNL     1     -45.809  64.327 -43.905  1.00  0.00     0.002 A 
HETATM   23  C   UNL     1     -46.860  64.481 -44.812  1.00  0.00     0.030 A 
HETATM   24  N   UNL     1     -47.776  63.571 -46.970  1.00  0.00    -0.365 N 
HETATM   25  H   UNL     1     -48.590  64.162 -47.062  1.00  0.00     0.165 HD
HETATM   26  C   UNL     1     -47.407  62.591 -47.850  1.00  0.00     0.096 A 
ENDBRANCH  16  17
ENDBRANCH  15  16
ENDBRANCH  12  15
ENDBRANCH   1  11
BRANCH   8  27
HETATM   27  C   UNL     1     -43.921  54.838 -54.239  1.00  0.00     0.409 C 
HETATM   28  F   UNL     1     -43.732  54.266 -53.027  1.00  0.00    -0.169 F 
HETATM   29  F   UNL     1     -45.264  55.010 -54.365  1.00  0.00    -0.169 F 
HETATM   30  F   UNL     1     -43.549  53.945 -55.172  1.00  0.00    -0.169 F 
ENDBRANCH   8  27
BRANCH   6  31
HETATM   31  C   UNL     1     -40.491  54.414 -53.252  1.00  0.00    -0.033 A 
HETATM   32  C   UNL     1     -40.362  53.438 -54.260  1.00  0.00     0.049 A 
HETATM   33  C   UNL     1     -40.102  52.134 -53.889  1.00  0.00     0.105 A 
HETATM   34  C   UNL     1     -39.978  51.764 -52.572  1.00  0.00     0.105 A 
HETATM   35  O   UNL     1     -39.930  51.086 -54.739  1.00  0.00    -0.323 OA
HETATM   36  O   UNL     1     -39.718  50.439 -52.425  1.00  0.00    -0.323 OA
HETATM   37  C   UNL     1     -40.105  52.680 -51.554  1.00  0.00     0.040 A 
HETATM   38  C   UNL     1     -39.670  50.019 -53.804  1.00  0.00     0.352 A 
HETATM   39  C   UNL     1     -40.355  54.013 -51.901  1.00  0.00     0.012 A 
ENDBRANCH   6  31
TORSDOF 6
ENDMDL
MODEL 5
REMARK VINA RESULT:      -8.6      3.348      9.468
REMARK  6 active torsions:
REMARK  status: ('A' for Active; 'I' for Inactive)
REMARK    1  A    between atoms: C_8  and  C_9 
REMARK    2  A    between atoms: C_9  and  C_10 
REMARK    3  A    between atoms: C_10  and  N_11 
REMARK       I    between atoms: N_11  and  C_12 
REMARK    4  A    between atoms: C_12  and  C_13 
REMARK    5  A    between atoms: C_18  and  C_19 
REMARK    6  A    between atoms: C_29  and  C_30 
ROOT
HETATM    1  C   UNL     1     -43.487  57.003 -56.151  1.00  0.00     0.148 A 
HETATM    2  N   UNL     1     -43.337  56.693 -57.459  1.00  0.00    -0.165 NA
HETATM    3  N   UNL     1     -43.427  57.885 -58.079  1.00  0.00    -0.240 N 
HETATM    4  C   UNL     1     -43.663  58.932 -57.234  1.00  0.00     0.123 A 
HETATM    5  N   UNL     1     -43.827  60.192 -57.685  1.00  0.00    -0.366 N 
HETATM    6  C   UNL     1     -43.678  60.546 -59.089  1.00  0.00     0.118 C 
HETATM    7  C   UNL     1     -43.960  59.335 -59.998  1.00  0.00     0.066 C 
HETATM    8  C   UNL     1     -43.350  58.002 -59.522  1.00  0.00     0.221 C 
HETATM    9  C   UNL     1     -43.693  58.398 -55.974  1.00  0.00     0.088 A 
HETATM   10  H   UNL     1     -43.877  60.978 -57.038  1.00  0.00     0.161 HD
ENDROOT
BRANCH   1  11
HETATM   11  C   UNL     1     -43.439  55.993 -55.082  1.00  0.00     0.272 C 
HETATM   12  N   UNL     1     -42.614  54.925 -55.357  1.00  0.00    -0.355 N 
HETATM   13  H   UNL     1     -41.996  55.053 -56.157  1.00  0.00     0.162 HD
HETATM   14  O   UNL     1     -44.065  56.112 -54.033  1.00  0.00    -0.266 OA
BRANCH  12  15
HETATM   15  C   UNL     1     -42.296  53.949 -54.337  1.00  0.00     0.127 C 
BRANCH  15  16
HETATM   16  C   UNL     1     -40.803  53.870 -54.016  1.00  0.00     0.060 C 
BRANCH  16  17
HETATM   17  C   UNL     1     -40.524  53.329 -52.647  1.00  0.00    -0.029 A 
HETATM   18  C   UNL     1     -40.745  53.986 -51.394  1.00  0.00    -0.002 A 
HETATM   19  C   UNL     1     -41.256  55.247 -51.022  1.00  0.00     0.014 A 
HETATM   20  C   UNL     1     -40.335  53.113 -50.386  1.00  0.00     0.042 A 
HETATM   21  C   UNL     1     -41.336  55.585 -49.666  1.00  0.00     0.001 A 
HETATM   22  C   UNL     1     -40.918  54.690 -48.685  1.00  0.00     0.002 A 
HETATM   23  C   UNL     1     -40.408  53.435 -49.025  1.00  0.00     0.030 A 
HETATM   24  N   UNL     1     -39.885  51.968 -51.000  1.00  0.00    -0.365 N 
HETATM   25  H   UNL     1     -39.529  51.159 -50.511  1.00  0.00     0.165 HD
HETATM   26  C   UNL     1     -39.990  52.086 -52.359  1.00  0.00     0.096 A 
ENDBRANCH  16  17
ENDBRANCH  15  16
ENDBRANCH  12  15
ENDBRANCH   1  11
BRANCH   8  27
HETATM   27  C   UNL     1     -41.935  57.773 -60.002  1.00  0.00     0.409 C 
HETATM   28  F   UNL     1     -41.647  58.508 -61.101  1.00  0.00    -0.169 F 
HETATM   29  F   UNL     1     -41.052  58.168 -59.046  1.00  0.00    -0.169 F 
HETATM   30  F   UNL     1     -41.657  56.489 -60.288  1.00  0.00    -0.169 F 
ENDBRANCH   8  27
BRANCH   6  31
HETATM   31  C   UNL     1     -42.379  61.284 -59.371  1.00  0.00    -0.033 A 
HETATM   32  C   UNL     1     -42.065  61.616 -60.703  1.00  0.00     0.049 A 
HETATM   33  C   UNL     1     -40.907  62.324 -60.955  1.00  0.00     0.105 A 
HETATM   34  C   UNL     1     -40.054  62.700 -59.947  1.00  0.00     0.105 A 
HETATM   35  O   UNL     1     -40.479  62.736 -62.177  1.00  0.00    -0.323 OA
HETATM   36  O   UNL     1     -38.978  63.391 -60.406  1.00  0.00    -0.323 OA
HETATM   37  C   UNL     1     -40.314  62.391 -58.632  1.00  0.00     0.040 A 
HETATM   38  C   UNL     1     -39.264  63.426 -61.819  1.00  0.00     0.352 A 
HETATM   39  C   UNL     1     -41.488  61.685 -58.346  1.00  0.00     0.012 A 
ENDBRANCH   6  31
TORSDOF 6
ENDMDL
MODEL 6
REMARK VINA RESULT:      -8.3      3.085      8.308
REMARK  6 active torsions:
REMARK  status: ('A' for Active; 'I' for Inactive)
REMARK    1  A    between atoms: C_8  and  C_9 
REMARK    2  A    between atoms: C_9  and  C_10 
REMARK    3  A    between atoms: C_10  and  N_11 
REMARK       I    between atoms: N_11  and  C_12 
REMARK    4  A    between atoms: C_12  and  C_13 
REMARK    5  A    between atoms: C_18  and  C_19 
REMARK    6  A    between atoms: C_29  and  C_30 
ROOT
HETATM    1  C   UNL     1     -41.910  58.474 -52.013  1.00  0.00     0.148 A 
HETATM    2  N   UNL     1     -43.162  58.148 -52.406  1.00  0.00    -0.165 NA
HETATM    3  N   UNL     1     -43.413  59.011 -53.409  1.00  0.00    -0.240 N 
HETATM    4  C   UNL     1     -42.396  59.893 -53.648  1.00  0.00     0.123 A 
HETATM    5  N   UNL     1     -42.491  60.857 -54.586  1.00  0.00    -0.366 N 
HETATM    6  C   UNL     1     -43.641  60.976 -55.471  1.00  0.00     0.118 C 
HETATM    7  C   UNL     1     -44.901  60.370 -54.826  1.00  0.00     0.066 C 
HETATM    8  C   UNL     1     -44.685  59.026 -54.103  1.00  0.00     0.221 C 
HETATM    9  C   UNL     1     -41.399  59.563 -52.770  1.00  0.00     0.088 A 
HETATM   10  H   UNL     1     -41.684  61.424 -54.838  1.00  0.00     0.161 HD
ENDROOT
BRANCH   1  11
HETATM   11  C   UNL     1     -41.206  57.767 -50.932  1.00  0.00     0.272 C 
HETATM   12  N   UNL     1     -41.937  56.751 -50.357  1.00  0.00    -0.355 N 
HETATM   13  H   UNL     1     -42.778  56.485 -50.866  1.00  0.00     0.162 HD
HETATM   14  O   UNL     1     -40.059  58.050 -50.595  1.00  0.00    -0.266 OA
BRANCH  12  15
HETATM   15  C   UNL     1     -41.325  55.829 -49.424  1.00  0.00     0.127 C 
BRANCH  15  16
HETATM   16  C   UNL     1     -41.787  54.383 -49.607  1.00  0.00     0.060 C 
BRANCH  16  17
HETATM   17  C   UNL     1     -41.162  53.712 -50.792  1.00  0.00    -0.029 A 
HETATM   18  C   UNL     1     -41.577  53.807 -52.159  1.00  0.00    -0.002 A 
HETATM   19  C   UNL     1     -42.610  54.494 -52.828  1.00  0.00     0.014 A 
HETATM   20  C   UNL     1     -40.712  53.013 -52.913  1.00  0.00     0.042 A 
HETATM   21  C   UNL     1     -42.741  54.363 -54.215  1.00  0.00     0.001 A 
HETATM   22  C   UNL     1     -41.861  53.562 -54.938  1.00  0.00     0.002 A 
HETATM   23  C   UNL     1     -40.828  52.870 -54.302  1.00  0.00     0.030 A 
HETATM   24  N   UNL     1     -39.805  52.460 -52.041  1.00  0.00    -0.365 N 
HETATM   25  H   UNL     1     -39.055  51.839 -52.313  1.00  0.00     0.165 HD
HETATM   26  C   UNL     1     -40.067  52.869 -50.762  1.00  0.00     0.096 A 
ENDBRANCH  16  17
ENDBRANCH  15  16
ENDBRANCH  12  15
ENDBRANCH   1  11
BRANCH   8  27
HETATM   27  C   UNL     1     -44.816  57.820 -55.005  1.00  0.00     0.409 C 
HETATM   28  F   UNL     1     -45.575  58.081 -56.094  1.00  0.00    -0.169 F 
HETATM   29  F   UNL     1     -43.593  57.462 -55.480  1.00  0.00    -0.169 F 
HETATM   30  F   UNL     1     -45.335  56.738 -54.399  1.00  0.00    -0.169 F 
ENDBRANCH   8  27
BRANCH   6  31
HETATM   31  C   UNL     1     -43.341  60.506 -56.885  1.00  0.00    -0.033 A 
HETATM   32  C   UNL     1     -44.266  60.800 -57.906  1.00  0.00     0.049 A 
HETATM   33  C   UNL     1     -43.973  60.410 -59.197  1.00  0.00     0.105 A 
HETATM   34  C   UNL     1     -42.817  59.739 -59.508  1.00  0.00     0.105 A 
HETATM   35  O   UNL     1     -44.750  60.638 -60.290  1.00  0.00    -0.323 OA
HETATM   36  O   UNL     1     -42.720  59.454 -60.833  1.00  0.00    -0.323 OA
HETATM   37  C   UNL     1     -41.888  59.422 -58.544  1.00  0.00     0.040 A 
HETATM   38  C   UNL     1     -43.940  60.043 -61.325  1.00  0.00     0.352 A 
HETATM   39  C   UNL     1     -42.152  59.817 -57.227  1.00  0.00     0.012 A 
ENDBRANCH   6  31
TORSDOF 6
ENDMDL
MODEL 7
REMARK VINA RESULT:      -8.3      6.494     10.067
REMARK  6 active torsions:
REMARK  status: ('A' for Active; 'I' for Inactive)
REMARK    1  A    between atoms: C_8  and  C_9 
REMARK    2  A    between atoms: C_9  and  C_10 
REMARK    3  A    between atoms: C_10  and  N_11 
REMARK       I    between atoms: N_11  and  C_12 
REMARK    4  A    between atoms: C_12  and  C_13 
REMARK    5  A    between atoms: C_18  and  C_19 
REMARK    6  A    between atoms: C_29  and  C_30 
ROOT
HETATM    1  C   UNL     1     -43.499  61.602 -50.440  1.00  0.00     0.148 A 
HETATM    2  N   UNL     1     -44.232  60.876 -51.314  1.00  0.00    -0.165 NA
HETATM    3  N   UNL     1     -43.345  59.994 -51.812  1.00  0.00    -0.240 N 
HETATM    4  C   UNL     1     -42.078  60.147 -51.326  1.00  0.00     0.123 A 
HETATM    5  N   UNL     1     -41.052  59.380 -51.748  1.00  0.00    -0.366 N 
HETATM    6  C   UNL     1     -41.232  58.278 -52.682  1.00  0.00     0.118 C 
HETATM    7  C   UNL     1     -42.473  58.499 -53.566  1.00  0.00     0.066 C 
HETATM    8  C   UNL     1     -43.719  59.029 -52.828  1.00  0.00     0.221 C 
HETATM    9  C   UNL     1     -42.144  61.172 -50.422  1.00  0.00     0.088 A 
HETATM   10  H   UNL     1     -40.144  59.421 -51.289  1.00  0.00     0.161 HD
ENDROOT
BRANCH   1  11
HETATM   11  C   UNL     1     -44.071  62.692 -49.634  1.00  0.00     0.272 C 
HETATM   12  N   UNL     1     -45.228  62.350 -48.969  1.00  0.00    -0.355 N 
HETATM   13  H   UNL     1     -45.437  61.353 -48.954  1.00  0.00     0.162 HD
HETATM   14  O   UNL     1     -43.544  63.798 -49.549  1.00  0.00    -0.266 OA
BRANCH  12  15
HETATM   15  C   UNL     1     -45.807  63.233 -47.979  1.00  0.00     0.127 C 
BRANCH  15  16
HETATM   16  C   UNL     1     -46.481  62.492 -46.824  1.00  0.00     0.060 C 
BRANCH  16  17
HETATM   17  C   UNL     1     -45.511  62.006 -45.792  1.00  0.00    -0.029 A 
HETATM   18  C   UNL     1     -44.841  62.787 -44.797  1.00  0.00    -0.002 A 
HETATM   19  C   UNL     1     -44.847  64.154 -44.452  1.00  0.00     0.014 A 
HETATM   20  C   UNL     1     -44.030  61.921 -44.062  1.00  0.00     0.042 A 
HETATM   21  C   UNL     1     -44.047  64.602 -43.394  1.00  0.00     0.001 A 
HETATM   22  C   UNL     1     -43.249  63.711 -42.681  1.00  0.00     0.002 A 
HETATM   23  C   UNL     1     -43.224  62.352 -43.001  1.00  0.00     0.030 A 
HETATM   24  N   UNL     1     -44.203  60.662 -44.586  1.00  0.00    -0.365 N 
HETATM   25  H   UNL     1     -43.738  59.832 -44.245  1.00  0.00     0.165 HD
HETATM   26  C   UNL     1     -45.087  60.700 -45.629  1.00  0.00     0.096 A 
ENDBRANCH  16  17
ENDBRANCH  15  16
ENDBRANCH  12  15
ENDBRANCH   1  11
BRANCH   8  27
HETATM   27  C   UNL     1     -44.586  57.940 -52.238  1.00  0.00     0.409 C 
HETATM   28  F   UNL     1     -44.222  57.631 -50.972  1.00  0.00    -0.169 F 
HETATM   29  F   UNL     1     -45.875  58.364 -52.163  1.00  0.00    -0.169 F 
HETATM   30  F   UNL     1     -44.587  56.799 -52.949  1.00  0.00    -0.169 F 
ENDBRANCH   8  27
BRANCH   6  31
HETATM   31  C   UNL     1     -41.147  56.919 -52.006  1.00  0.00    -0.033 A 
HETATM   32  C   UNL     1     -41.040  56.868 -50.602  1.00  0.00     0.049 A 
HETATM   33  C   UNL     1     -41.006  55.634 -49.985  1.00  0.00     0.105 A 
HETATM   34  C   UNL     1     -41.062  54.463 -50.700  1.00  0.00     0.105 A 
HETATM   35  O   UNL     1     -40.926  55.419 -48.645  1.00  0.00    -0.323 OA
HETATM   36  O   UNL     1     -41.021  53.363 -49.904  1.00  0.00    -0.323 OA
HETATM   37  C   UNL     1     -41.159  54.463 -52.073  1.00  0.00     0.040 A 
HETATM   38  C   UNL     1     -40.953  53.977 -48.601  1.00  0.00     0.352 A 
HETATM   39  C   UNL     1     -41.209  55.701 -52.724  1.00  0.00     0.012 A 
ENDBRANCH   6  31
TORSDOF 6
ENDMDL
MODEL 8
REMARK VINA RESULT:      -8.2      3.432      9.399
REMARK  6 active torsions:
REMARK  status: ('A' for Active; 'I' for Inactive)
REMARK    1  A    between atoms: C_8  and  C_9 
REMARK    2  A    between atoms: C_9  and  C_10 
REMARK    3  A    between atoms: C_10  and  N_11 
REMARK       I    between atoms: N_11  and  C_12 
REMARK    4  A    between atoms: C_12  and  C_13 
REMARK    5  A    between atoms: C_18  and  C_19 
REMARK    6  A    between atoms: C_29  and  C_30 
ROOT
HETATM    1  C   UNL     1     -44.409  58.653 -56.895  1.00  0.00     0.148 A 
HETATM    2  N   UNL     1     -44.018  58.005 -58.016  1.00  0.00    -0.165 NA
HETATM    3  N   UNL     1     -43.853  58.996 -58.912  1.00  0.00    -0.240 N 
HETATM    4  C   UNL     1     -44.155  60.237 -58.427  1.00  0.00     0.123 A 
HETATM    5  N   UNL     1     -44.090  61.342 -59.199  1.00  0.00    -0.366 N 
HETATM    6  C   UNL     1     -43.612  61.309 -60.573  1.00  0.00     0.118 C 
HETATM    7  C   UNL     1     -43.817  59.917 -61.198  1.00  0.00     0.066 C 
HETATM    8  C   UNL     1     -43.460  58.729 -60.282  1.00  0.00     0.221 C 
HETATM    9  C   UNL     1     -44.506  60.054 -57.118  1.00  0.00     0.088 A 
HETATM   10  H   UNL     1     -44.196  62.270 -58.794  1.00  0.00     0.161 HD
ENDROOT
BRANCH   1  11
HETATM   11  C   UNL     1     -44.692  57.957 -55.631  1.00  0.00     0.272 C 
HETATM   12  N   UNL     1     -44.025  56.759 -55.489  1.00  0.00    -0.355 N 
HETATM   13  H   UNL     1     -43.282  56.598 -56.167  1.00  0.00     0.162 HD
HETATM   14  O   UNL     1     -45.440  58.421 -54.774  1.00  0.00    -0.266 OA
BRANCH  12  15
HETATM   15  C   UNL     1     -44.032  56.049 -54.228  1.00  0.00     0.127 C 
BRANCH  15  16
HETATM   16  C   UNL     1     -43.481  54.626 -54.329  1.00  0.00     0.060 C 
BRANCH  16  17
HETATM   17  C   UNL     1     -42.588  54.259 -53.184  1.00  0.00    -0.029 A 
HETATM   18  C   UNL     1     -41.511  53.315 -53.194  1.00  0.00    -0.002 A 
HETATM   19  C   UNL     1     -40.948  52.477 -54.177  1.00  0.00     0.014 A 
HETATM   20  C   UNL     1     -40.966  53.291 -51.909  1.00  0.00     0.042 A 
HETATM   21  C   UNL     1     -39.869  51.650 -53.842  1.00  0.00     0.001 A 
HETATM   22  C   UNL     1     -39.349  51.649 -52.550  1.00  0.00     0.002 A 
HETATM   23  C   UNL     1     -39.888  52.470 -51.557  1.00  0.00     0.030 A 
HETATM   24  N   UNL     1     -41.681  54.186 -51.148  1.00  0.00    -0.365 N 
HETATM   25  H   UNL     1     -41.502  54.377 -50.173  1.00  0.00     0.165 HD
HETATM   26  C   UNL     1     -42.661  54.771 -51.902  1.00  0.00     0.096 A 
ENDBRANCH  16  17
ENDBRANCH  15  16
ENDBRANCH  12  15
ENDBRANCH   1  11
BRANCH   8  27
HETATM   27  C   UNL     1     -42.007  58.321 -60.352  1.00  0.00     0.409 C 
HETATM   28  F   UNL     1     -41.370  58.887 -61.403  1.00  0.00    -0.169 F 
HETATM   29  F   UNL     1     -41.351  58.751 -59.241  1.00  0.00    -0.169 F 
HETATM   30  F   UNL     1     -41.817  56.992 -60.431  1.00  0.00    -0.169 F 
ENDBRANCH   8  27
BRANCH   6  31
HETATM   31  C   UNL     1     -42.215  61.890 -60.719  1.00  0.00    -0.033 A 
HETATM   32  C   UNL     1     -41.722  62.150 -62.013  1.00  0.00     0.049 A 
HETATM   33  C   UNL     1     -40.471  62.718 -62.144  1.00  0.00     0.105 A 
HETATM   34  C   UNL     1     -39.695  63.022 -61.053  1.00  0.00     0.105 A 
HETATM   35  O   UNL     1     -39.868  63.047 -63.317  1.00  0.00    -0.323 OA
HETATM   36  O   UNL     1     -38.504  63.577 -61.400  1.00  0.00    -0.323 OA
HETATM   37  C   UNL     1     -40.129  62.779 -59.771  1.00  0.00     0.040 A 
HETATM   38  C   UNL     1     -38.628  63.607 -62.836  1.00  0.00     0.352 A 
HETATM   39  C   UNL     1     -41.400  62.216 -59.607  1.00  0.00     0.012 A 
ENDBRANCH   6  31
TORSDOF 6
ENDMDL
MODEL 9
REMARK VINA RESULT:      -8.2      3.044      8.892
REMARK  6 active torsions:
REMARK  status: ('A' for Active; 'I' for Inactive)
REMARK    1  A    between atoms: C_8  and  C_9 
REMARK    2  A    between atoms: C_9  and  C_10 
REMARK    3  A    between atoms: C_10  and  N_11 
REMARK       I    between atoms: N_11  and  C_12 
REMARK    4  A    between atoms: C_12  and  C_13 
REMARK    5  A    between atoms: C_18  and  C_19 
REMARK    6  A    between atoms: C_29  and  C_30 
ROOT
HETATM    1  C   UNL     1     -44.419  57.749 -54.429  1.00  0.00     0.148 A 
HETATM    2  N   UNL     1     -44.202  56.971 -55.513  1.00  0.00    -0.165 NA
HETATM    3  N   UNL     1     -44.344  57.822 -56.547  1.00  0.00    -0.240 N 
HETATM    4  C   UNL     1     -44.676  59.094 -56.174  1.00  0.00     0.123 A 
HETATM    5  N   UNL     1     -44.902  60.068 -57.079  1.00  0.00    -0.366 N 
HETATM    6  C   UNL     1     -44.724  59.864 -58.509  1.00  0.00     0.118 C 
HETATM    7  C   UNL     1     -44.897  58.380 -58.882  1.00  0.00     0.066 C 
HETATM    8  C   UNL     1     -44.222  57.380 -57.922  1.00  0.00     0.221 C 
HETATM    9  C   UNL     1     -44.719  59.086 -54.806  1.00  0.00     0.088 A 
HETATM   10  H   UNL     1     -45.025  61.036 -56.787  1.00  0.00     0.161 HD
ENDROOT
BRANCH   1  11
HETATM   11  C   UNL     1     -44.347  57.235 -53.052  1.00  0.00     0.272 C 
HETATM   12  N   UNL     1     -43.802  55.973 -52.953  1.00  0.00    -0.355 N 
HETATM   13  H   UNL     1     -43.342  55.636 -53.797  1.00  0.00     0.162 HD
HETATM   14  O   UNL     1     -44.721  57.889 -52.083  1.00  0.00    -0.266 OA
BRANCH  12  15
HETATM   15  C   UNL     1     -43.474  55.404 -51.663  1.00  0.00     0.127 C 
BRANCH  15  16
HETATM   16  C   UNL     1     -42.009  55.597 -51.270  1.00  0.00     0.060 C 
BRANCH  16  17
HETATM   17  C   UNL     1     -41.259  54.307 -51.144  1.00  0.00    -0.029 A 
HETATM   18  C   UNL     1     -40.756  53.490 -52.207  1.00  0.00    -0.002 A 
HETATM   19  C   UNL     1     -40.773  53.587 -53.613  1.00  0.00     0.014 A 
HETATM   20  C   UNL     1     -40.134  52.384 -51.625  1.00  0.00     0.042 A 
HETATM   21  C   UNL     1     -40.173  52.582 -54.381  1.00  0.00     0.001 A 
HETATM   22  C   UNL     1     -39.560  51.491 -53.769  1.00  0.00     0.002 A 
HETATM   23  C   UNL     1     -39.528  51.370 -52.378  1.00  0.00     0.030 A 
HETATM   24  N   UNL     1     -40.250  52.524 -50.263  1.00  0.00    -0.365 N 
HETATM   25  H   UNL     1     -39.885  51.867 -49.588  1.00  0.00     0.165 HD
HETATM   26  C   UNL     1     -40.927  53.673 -49.960  1.00  0.00     0.096 A 
ENDBRANCH  16  17
ENDBRANCH  15  16
ENDBRANCH  12  15
ENDBRANCH   1  11
BRANCH   8  27
HETATM   27  C   UNL     1     -42.779  57.087 -58.263  1.00  0.00     0.409 C 
HETATM   28  F   UNL     1     -41.921  57.745 -57.450  1.00  0.00    -0.169 F 
HETATM   29  F   UNL     1     -42.521  55.763 -58.086  1.00  0.00    -0.169 F 
HETATM   30  F   UNL     1     -42.447  57.387 -59.531  1.00  0.00    -0.169 F 
ENDBRANCH   8  27
BRANCH   6  31
HETATM   31  C   UNL     1     -43.465  60.528 -59.042  1.00  0.00    -0.033 A 
HETATM   32  C   UNL     1     -43.393  60.838 -60.414  1.00  0.00     0.049 A 
HETATM   33  C   UNL     1     -42.267  61.480 -60.890  1.00  0.00     0.105 A 
HETATM   34  C   UNL     1     -41.219  61.811 -60.068  1.00  0.00     0.105 A 
HETATM   35  O   UNL     1     -42.057  61.864 -62.178  1.00  0.00    -0.323 OA
HETATM   36  O   UNL     1     -40.214  62.441 -60.732  1.00  0.00    -0.323 OA
HETATM   37  C   UNL     1     -41.240  61.521 -58.723  1.00  0.00     0.040 A 
HETATM   38  C   UNL     1     -40.761  62.487 -62.066  1.00  0.00     0.352 A 
HETATM   39  C   UNL     1     -42.375  60.883 -58.210  1.00  0.00     0.012 A 
ENDBRANCH   6  31
TORSDOF 6
ENDMDL
MODEL 10
REMARK VINA RESULT:      -8.0      3.142      8.014
REMARK  6 active torsions:
REMARK  status: ('A' for Active; 'I' for Inactive)
REMARK    1  A    between atoms: C_8  and  C_9 
REMARK    2  A    between atoms: C_9  and  C_10 
REMARK    3  A    between atoms: C_10  and  N_11 
REMARK       I    between atoms: N_11  and  C_12 
REMARK    4  A    between atoms: C_12  and  C_13 
REMARK    5  A    between atoms: C_18  and  C_19 
REMARK    6  A    between atoms: C_29  and  C_30 
ROOT
HETATM    1  C   UNL     1     -44.780  58.360 -54.306  1.00  0.00     0.148 A 
HETATM    2  N   UNL     1     -44.403  57.417 -55.198  1.00  0.00    -0.165 NA
HETATM    3  N   UNL     1     -44.544  58.032 -56.387  1.00  0.00    -0.240 N 
HETATM    4  C   UNL     1     -45.028  59.306 -56.297  1.00  0.00     0.123 A 
HETATM    5  N   UNL     1     -45.275  60.056 -57.391  1.00  0.00    -0.366 N 
HETATM    6  C   UNL     1     -44.964  59.601 -58.738  1.00  0.00     0.118 C 
HETATM    7  C   UNL     1     -44.960  58.063 -58.815  1.00  0.00     0.066 C 
HETATM    8  C   UNL     1     -44.270  57.349 -57.636  1.00  0.00     0.221 C 
HETATM    9  C   UNL     1     -45.178  59.558 -54.961  1.00  0.00     0.088 A 
HETATM   10  H   UNL     1     -45.515  61.043 -57.306  1.00  0.00     0.161 HD
ENDROOT
BRANCH   1  11
HETATM   11  C   UNL     1     -44.768  58.132 -52.853  1.00  0.00     0.272 C 
HETATM   12  N   UNL     1     -44.457  56.840 -52.490  1.00  0.00    -0.355 N 
HETATM   13  H   UNL     1     -44.086  56.261 -53.241  1.00  0.00     0.162 HD
HETATM   14  O   UNL     1     -44.995  59.027 -52.042  1.00  0.00    -0.266 OA
BRANCH  12  15
HETATM   15  C   UNL     1     -44.206  56.495 -51.107  1.00  0.00     0.127 C 
BRANCH  15  16
HETATM   16  C   UNL     1     -42.739  56.175 -50.819  1.00  0.00     0.060 C 
BRANCH  16  17
HETATM   17  C   UNL     1     -41.876  56.219 -52.043  1.00  0.00    -0.029 A 
HETATM   18  C   UNL     1     -41.533  55.124 -52.899  1.00  0.00    -0.002 A 
HETATM   19  C   UNL     1     -41.847  53.750 -52.912  1.00  0.00     0.014 A 
HETATM   20  C   UNL     1     -40.706  55.625 -53.906  1.00  0.00     0.042 A 
HETATM   21  C   UNL     1     -41.327  52.932 -53.923  1.00  0.00     0.001 A 
HETATM   22  C   UNL     1     -40.504  53.464 -54.913  1.00  0.00     0.002 A 
HETATM   23  C   UNL     1     -40.177  54.822 -54.925  1.00  0.00     0.030 A 
HETATM   24  N   UNL     1     -40.555  56.971 -53.674  1.00  0.00    -0.365 N 
HETATM   25  H   UNL     1     -40.006  57.593 -54.251  1.00  0.00     0.165 HD
HETATM   26  C   UNL     1     -41.250  57.340 -52.555  1.00  0.00     0.096 A 
ENDBRANCH  16  17
ENDBRANCH  15  16
ENDBRANCH  12  15
ENDBRANCH   1  11
BRANCH   8  27
HETATM   27  C   UNL     1     -42.783  57.158 -57.826  1.00  0.00     0.409 C 
HETATM   28  F   UNL     1     -42.337  56.024 -57.238  1.00  0.00    -0.169 F 
HETATM   29  F   UNL     1     -42.497  57.030 -59.150  1.00  0.00    -0.169 F 
HETATM   30  F   UNL     1     -42.038  58.177 -57.360  1.00  0.00    -0.169 F 
ENDBRANCH   8  27
BRANCH   6  31
HETATM   31  C   UNL     1     -43.737  60.286 -59.318  1.00  0.00    -0.033 A 
HETATM   32  C   UNL     1     -43.051  61.228 -58.526  1.00  0.00     0.049 A 
HETATM   33  C   UNL     1     -41.912  61.818 -59.036  1.00  0.00     0.105 A 
HETATM   34  C   UNL     1     -41.441  61.521 -60.291  1.00  0.00     0.105 A 
HETATM   35  O   UNL     1     -41.132  62.725 -58.391  1.00  0.00    -0.323 OA
HETATM   36  O   UNL     1     -40.308  62.205 -60.598  1.00  0.00    -0.323 OA
HETATM   37  C   UNL     1     -42.082  60.615 -61.104  1.00  0.00     0.040 A 
HETATM   38  C   UNL     1     -40.107  62.953 -59.381  1.00  0.00     0.352 A 
HETATM   39  C   UNL     1     -43.232  59.990 -60.607  1.00  0.00     0.012 A 
ENDBRANCH   6  31
TORSDOF 6
ENDMDL
