MODEL 1
REMARK VINA RESULT:      -7.3      0.000      0.000
REMARK  11 active torsions:
REMARK  status: ('A' for Active; 'I' for Inactive)
REMARK    1  A    between atoms: O_2  and  C_3 
REMARK    2  A    between atoms: C_6  and  C_7 
REMARK    3  A    between atoms: C_7  and  C_8 
REMARK       I    between atoms: C_8  and  N_9 
REMARK    4  A    between atoms: N_9  and  C_10 
REMARK    5  A    between atoms: C_10  and  N_11 
REMARK    6  A    between atoms: N_11  and  C_12 
REMARK    7  A    between atoms: C_13  and  C_14 
REMARK       I    between atoms: C_14  and  N_15 
REMARK    8  A    between atoms: N_15  and  C_16 
REMARK    9  A    between atoms: C_16  and  C_17 
REMARK   10  A    between atoms: C_17  and  C_18 
REMARK   11  A    between atoms: C_18  and  O_19 
ROOT
HETATM    1  N   UNL     1     -43.880  56.461 -52.922  1.00  0.00    -0.332 N 
HETATM    2  H   UNL     1     -44.889  56.314 -52.834  1.00  0.00     0.168 HD
ENDROOT
BRANCH   1   3
HETATM    3  C   UNL     1     -43.500  56.579 -54.248  1.00  0.00     0.178 C 
HETATM    4  S   UNL     1     -44.256  57.383 -55.500  1.00  0.00    -0.040 SA
BRANCH   3   5
HETATM    5  N   UNL     1     -42.279  55.992 -54.553  1.00  0.00    -0.303 N 
HETATM    6  C   UNL     1     -42.047  54.699 -55.003  1.00  0.00     0.228 C 
HETATM    7  O   UNL     1     -42.937  53.978 -55.452  1.00  0.00    -0.273 OA
HETATM    8  H   UNL     1     -41.493  56.486 -54.144  1.00  0.00     0.171 HD
BRANCH   6   9
HETATM    9  C   UNL     1     -40.597  54.254 -54.958  1.00  0.00     0.141 C 
BRANCH   9  10
HETATM   10  C   UNL     1     -40.307  53.013 -54.141  1.00  0.00    -0.049 A 
HETATM   11  C   UNL     1     -40.058  51.761 -54.722  1.00  0.00     0.010 A 
HETATM   12  C   UNL     1     -39.775  50.643 -53.927  1.00  0.00     0.037 A 
HETATM   13  C   UNL     1     -39.702  50.765 -52.540  1.00  0.00     0.068 A 
HETATM   14  C   UNL     1     -39.905  52.017 -51.959  1.00  0.00     0.037 A 
HETATM   15  C   UNL     1     -40.205  53.131 -52.748  1.00  0.00     0.010 A 
BRANCH  13  16
HETATM   16  O   UNL     1     -39.427  49.761 -51.655  1.00  0.00    -0.356 OA
HETATM   17  C   UNL     1     -39.879  49.941 -50.318  1.00  0.00     0.210 C 
ENDBRANCH  13  16
ENDBRANCH   9  10
ENDBRANCH   6   9
ENDBRANCH   3   5
ENDBRANCH   1   3
BRANCH   1  18
HETATM   18  C   UNL     1     -43.126  55.933 -51.843  1.00  0.00     0.050 A 
HETATM   19  C   UNL     1     -42.009  56.525 -51.227  1.00  0.00     0.058 A 
HETATM   20  C   UNL     1     -41.317  55.819 -50.226  1.00  0.00     0.019 A 
HETATM   21  C   UNL     1     -41.755  54.568 -49.794  1.00  0.00     0.001 A 
HETATM   22  C   UNL     1     -42.904  54.016 -50.345  1.00  0.00     0.002 A 
HETATM   23  C   UNL     1     -43.588  54.698 -51.353  1.00  0.00     0.030 A 
BRANCH  19  24
HETATM   24  C   UNL     1     -41.565  57.934 -51.416  1.00  0.00     0.253 C 
HETATM   25  N   UNL     1     -41.130  58.591 -50.282  1.00  0.00    -0.357 N 
HETATM   26  H   UNL     1     -41.170  58.109 -49.394  1.00  0.00     0.162 HD
HETATM   27  O   UNL     1     -41.498  58.416 -52.540  1.00  0.00    -0.268 OA
BRANCH  25  28
HETATM   28  C   UNL     1     -40.592  59.933 -50.339  1.00  0.00     0.125 C 
BRANCH  28  29
HETATM   29  C   UNL     1     -39.115  60.004 -49.964  1.00  0.00     0.046 C 
BRANCH  29  30
HETATM   30  C   UNL     1     -38.209  59.201 -50.889  1.00  0.00     0.165 C 
BRANCH  30  31
HETATM   31  O   UNL     1     -38.575  59.457 -52.243  1.00  0.00    -0.401 OA
HETATM   32  H   UNL     1     -38.095  58.816 -52.795  1.00  0.00     0.209 HD
ENDBRANCH  30  31
ENDBRANCH  29  30
ENDBRANCH  28  29
ENDBRANCH  25  28
ENDBRANCH  19  24
ENDBRANCH   1  18
TORSDOF 11
ENDMDL
MODEL 2
REMARK VINA RESULT:      -7.2      1.768      2.573
REMARK  11 active torsions:
REMARK  status: ('A' for Active; 'I' for Inactive)
REMARK    1  A    between atoms: O_2  and  C_3 
REMARK    2  A    between atoms: C_6  and  C_7 
REMARK    3  A    between atoms: C_7  and  C_8 
REMARK       I    between atoms: C_8  and  N_9 
REMARK    4  A    between atoms: N_9  and  C_10 
REMARK    5  A    between atoms: C_10  and  N_11 
REMARK    6  A    between atoms: N_11  and  C_12 
REMARK    7  A    between atoms: C_13  and  C_14 
REMARK       I    between atoms: C_14  and  N_15 
REMARK    8  A    between atoms: N_15  and  C_16 
REMARK    9  A    between atoms: C_16  and  C_17 
REMARK   10  A    between atoms: C_17  and  C_18 
REMARK   11  A    between atoms: C_18  and  O_19 
ROOT
HETATM    1  N   UNL     1     -44.071  56.217 -52.672  1.00  0.00    -0.332 N 
HETATM    2  H   UNL     1     -44.954  55.703 -52.620  1.00  0.00     0.168 HD
ENDROOT
BRANCH   1   3
HETATM    3  C   UNL     1     -43.746  56.533 -53.980  1.00  0.00     0.178 C 
HETATM    4  S   UNL     1     -44.545  57.522 -55.061  1.00  0.00    -0.040 SA
BRANCH   3   5
HETATM    5  N   UNL     1     -42.546  55.993 -54.423  1.00  0.00    -0.303 N 
HETATM    6  C   UNL     1     -42.334  54.743 -54.989  1.00  0.00     0.228 C 
HETATM    7  O   UNL     1     -43.248  54.042 -55.422  1.00  0.00    -0.273 OA
HETATM    8  H   UNL     1     -41.735  56.469 -54.040  1.00  0.00     0.171 HD
BRANCH   6   9
HETATM    9  C   UNL     1     -40.880  54.323 -55.092  1.00  0.00     0.141 C 
BRANCH   9  10
HETATM   10  C   UNL     1     -40.436  53.227 -54.145  1.00  0.00    -0.049 A 
HETATM   11  C   UNL     1     -40.288  53.431 -52.765  1.00  0.00     0.010 A 
HETATM   12  C   UNL     1     -39.893  52.382 -51.922  1.00  0.00     0.037 A 
HETATM   13  C   UNL     1     -39.677  51.107 -52.440  1.00  0.00     0.068 A 
HETATM   14  C   UNL     1     -39.866  50.888 -53.805  1.00  0.00     0.037 A 
HETATM   15  C   UNL     1     -40.242  51.935 -54.651  1.00  0.00     0.010 A 
BRANCH  13  16
HETATM   16  O   UNL     1     -39.300  50.001 -51.731  1.00  0.00    -0.356 OA
HETATM   17  C   UNL     1     -39.857  49.849 -50.431  1.00  0.00     0.210 C 
ENDBRANCH  13  16
ENDBRANCH   9  10
ENDBRANCH   6   9
ENDBRANCH   3   5
ENDBRANCH   1   3
BRANCH   1  18
HETATM   18  C   UNL     1     -43.188  55.953 -51.594  1.00  0.00     0.050 A 
HETATM   19  C   UNL     1     -42.265  56.847 -51.022  1.00  0.00     0.058 A 
HETATM   20  C   UNL     1     -41.394  56.391 -50.015  1.00  0.00     0.019 A 
HETATM   21  C   UNL     1     -41.470  55.084 -49.535  1.00  0.00     0.001 A 
HETATM   22  C   UNL     1     -42.433  54.222 -50.043  1.00  0.00     0.002 A 
HETATM   23  C   UNL     1     -43.290  54.656 -51.057  1.00  0.00     0.030 A 
BRANCH  19  24
HETATM   24  C   UNL     1     -42.224  58.316 -51.263  1.00  0.00     0.253 C 
HETATM   25  N   UNL     1     -43.235  59.056 -50.683  1.00  0.00    -0.357 N 
HETATM   26  H   UNL     1     -43.959  58.573 -50.167  1.00  0.00     0.162 HD
HETATM   27  O   UNL     1     -41.275  58.819 -51.853  1.00  0.00    -0.268 OA
BRANCH  25  28
HETATM   28  C   UNL     1     -43.266  60.500 -50.767  1.00  0.00     0.125 C 
BRANCH  28  29
HETATM   29  C   UNL     1     -44.156  61.144 -49.707  1.00  0.00     0.046 C 
BRANCH  29  30
HETATM   30  C   UNL     1     -45.608  60.687 -49.767  1.00  0.00     0.165 C 
BRANCH  30  31
HETATM   31  O   UNL     1     -45.714  59.383 -49.198  1.00  0.00    -0.401 OA
HETATM   32  H   UNL     1     -46.557  59.007 -49.501  1.00  0.00     0.209 HD
ENDBRANCH  30  31
ENDBRANCH  29  30
ENDBRANCH  28  29
ENDBRANCH  25  28
ENDBRANCH  19  24
ENDBRANCH   1  18
TORSDOF 11
ENDMDL
MODEL 3
REMARK VINA RESULT:      -6.9      2.508      3.621
REMARK  11 active torsions:
REMARK  status: ('A' for Active; 'I' for Inactive)
REMARK    1  A    between atoms: O_2  and  C_3 
REMARK    2  A    between atoms: C_6  and  C_7 
REMARK    3  A    between atoms: C_7  and  C_8 
REMARK       I    between atoms: C_8  and  N_9 
REMARK    4  A    between atoms: N_9  and  C_10 
REMARK    5  A    between atoms: C_10  and  N_11 
REMARK    6  A    between atoms: N_11  and  C_12 
REMARK    7  A    between atoms: C_13  and  C_14 
REMARK       I    between atoms: C_14  and  N_15 
REMARK    8  A    between atoms: N_15  and  C_16 
REMARK    9  A    between atoms: C_16  and  C_17 
REMARK   10  A    between atoms: C_17  and  C_18 
REMARK   11  A    between atoms: C_18  and  O_19 
ROOT
HETATM    1  N   UNL     1     -44.199  56.495 -55.004  1.00  0.00    -0.332 N 
HETATM    2  H   UNL     1     -44.306  55.522 -54.705  1.00  0.00     0.168 HD
ENDROOT
BRANCH   1   3
HETATM    3  C   UNL     1     -43.391  56.593 -56.124  1.00  0.00     0.178 C 
HETATM    4  S   UNL     1     -43.645  57.433 -57.544  1.00  0.00    -0.040 SA
BRANCH   3   5
HETATM    5  N   UNL     1     -42.167  55.946 -56.012  1.00  0.00    -0.303 N 
HETATM    6  C   UNL     1     -41.927  54.657 -55.554  1.00  0.00     0.228 C 
HETATM    7  O   UNL     1     -42.815  53.813 -55.435  1.00  0.00    -0.273 OA
HETATM    8  H   UNL     1     -41.382  56.587 -56.017  1.00  0.00     0.171 HD
BRANCH   6   9
HETATM    9  C   UNL     1     -40.472  54.341 -55.262  1.00  0.00     0.141 C 
BRANCH   9  10
HETATM   10  C   UNL     1     -40.220  53.328 -54.165  1.00  0.00    -0.049 A 
HETATM   11  C   UNL     1     -40.375  53.627 -52.804  1.00  0.00     0.010 A 
HETATM   12  C   UNL     1     -40.149  52.652 -51.823  1.00  0.00     0.037 A 
HETATM   13  C   UNL     1     -39.799  51.354 -52.188  1.00  0.00     0.068 A 
HETATM   14  C   UNL     1     -39.686  51.038 -53.543  1.00  0.00     0.037 A 
HETATM   15  C   UNL     1     -39.894  52.012 -54.523  1.00  0.00     0.010 A 
BRANCH  13  16
HETATM   16  O   UNL     1     -39.560  50.312 -51.337  1.00  0.00    -0.356 OA
HETATM   17  C   UNL     1     -40.196  50.361 -50.066  1.00  0.00     0.210 C 
ENDBRANCH  13  16
ENDBRANCH   9  10
ENDBRANCH   6   9
ENDBRANCH   3   5
ENDBRANCH   1   3
BRANCH   1  18
HETATM   18  C   UNL     1     -44.357  57.439 -53.958  1.00  0.00     0.050 A 
HETATM   19  C   UNL     1     -44.178  57.210 -52.582  1.00  0.00     0.058 A 
HETATM   20  C   UNL     1     -44.470  58.238 -51.666  1.00  0.00     0.019 A 
HETATM   21  C   UNL     1     -44.879  59.498 -52.105  1.00  0.00     0.001 A 
HETATM   22  C   UNL     1     -44.981  59.749 -53.466  1.00  0.00     0.002 A 
HETATM   23  C   UNL     1     -44.713  58.731 -54.384  1.00  0.00     0.030 A 
BRANCH  19  24
HETATM   24  C   UNL     1     -43.533  56.008 -51.984  1.00  0.00     0.253 C 
HETATM   25  N   UNL     1     -43.137  56.123 -50.667  1.00  0.00    -0.357 N 
HETATM   26  H   UNL     1     -43.264  57.009 -50.194  1.00  0.00     0.162 HD
HETATM   27  O   UNL     1     -43.473  54.960 -52.616  1.00  0.00    -0.268 OA
BRANCH  25  28
HETATM   28  C   UNL     1     -42.576  55.005 -49.939  1.00  0.00     0.125 C 
BRANCH  28  29
HETATM   29  C   UNL     1     -41.236  55.326 -49.284  1.00  0.00     0.046 C 
BRANCH  29  30
HETATM   30  C   UNL     1     -40.550  54.114 -48.666  1.00  0.00     0.165 C 
BRANCH  30  31
HETATM   31  O   UNL     1     -40.454  54.297 -47.255  1.00  0.00    -0.401 OA
HETATM   32  H   UNL     1     -40.318  53.419 -46.862  1.00  0.00     0.209 HD
ENDBRANCH  30  31
ENDBRANCH  29  30
ENDBRANCH  28  29
ENDBRANCH  25  28
ENDBRANCH  19  24
ENDBRANCH   1  18
TORSDOF 11
ENDMDL
MODEL 4
REMARK VINA RESULT:      -6.9      2.135      3.615
REMARK  11 active torsions:
REMARK  status: ('A' for Active; 'I' for Inactive)
REMARK    1  A    between atoms: O_2  and  C_3 
REMARK    2  A    between atoms: C_6  and  C_7 
REMARK    3  A    between atoms: C_7  and  C_8 
REMARK       I    between atoms: C_8  and  N_9 
REMARK    4  A    between atoms: N_9  and  C_10 
REMARK    5  A    between atoms: C_10  and  N_11 
REMARK    6  A    between atoms: N_11  and  C_12 
REMARK    7  A    between atoms: C_13  and  C_14 
REMARK       I    between atoms: C_14  and  N_15 
REMARK    8  A    between atoms: N_15  and  C_16 
REMARK    9  A    between atoms: C_16  and  C_17 
REMARK   10  A    between atoms: C_17  and  C_18 
REMARK   11  A    between atoms: C_18  and  O_19 
ROOT
HETATM    1  N   UNL     1     -44.565  56.838 -53.169  1.00  0.00    -0.332 N 
HETATM    2  H   UNL     1     -45.184  57.532 -53.596  1.00  0.00     0.168 HD
ENDROOT
BRANCH   1   3
HETATM    3  C   UNL     1     -44.364  57.098 -51.824  1.00  0.00     0.178 C 
HETATM    4  S   UNL     1     -44.659  58.494 -50.958  1.00  0.00    -0.040 SA
BRANCH   3   5
HETATM    5  N   UNL     1     -43.912  56.010 -51.088  1.00  0.00    -0.303 N 
HETATM    6  C   UNL     1     -42.618  55.759 -50.651  1.00  0.00     0.228 C 
HETATM    7  O   UNL     1     -41.740  56.621 -50.634  1.00  0.00    -0.273 OA
HETATM    8  H   UNL     1     -44.548  55.221 -51.122  1.00  0.00     0.171 HD
BRANCH   6   9
HETATM    9  C   UNL     1     -42.375  54.353 -50.136  1.00  0.00     0.141 C 
BRANCH   9  10
HETATM   10  C   UNL     1     -41.439  53.496 -50.960  1.00  0.00    -0.049 A 
HETATM   11  C   UNL     1     -40.628  52.498 -50.398  1.00  0.00     0.010 A 
HETATM   12  C   UNL     1     -39.790  51.715 -51.202  1.00  0.00     0.037 A 
HETATM   13  C   UNL     1     -39.775  51.891 -52.584  1.00  0.00     0.068 A 
HETATM   14  C   UNL     1     -40.611  52.852 -53.154  1.00  0.00     0.037 A 
HETATM   15  C   UNL     1     -41.435  53.646 -52.354  1.00  0.00     0.010 A 
BRANCH  13  16
HETATM   16  O   UNL     1     -39.014  51.192 -53.479  1.00  0.00    -0.356 OA
HETATM   17  C   UNL     1     -39.680  50.206 -54.258  1.00  0.00     0.210 C 
ENDBRANCH  13  16
ENDBRANCH   9  10
ENDBRANCH   6   9
ENDBRANCH   3   5
ENDBRANCH   1   3
BRANCH   1  18
HETATM   18  C   UNL     1     -43.667  56.231 -54.084  1.00  0.00     0.050 A 
HETATM   19  C   UNL     1     -42.527  56.818 -54.661  1.00  0.00     0.058 A 
HETATM   20  C   UNL     1     -41.795  56.102 -55.627  1.00  0.00     0.019 A 
HETATM   21  C   UNL     1     -42.148  54.800 -55.979  1.00  0.00     0.001 A 
HETATM   22  C   UNL     1     -43.226  54.189 -55.352  1.00  0.00     0.002 A 
HETATM   23  C   UNL     1     -43.972  54.896 -54.406  1.00  0.00     0.030 A 
BRANCH  19  24
HETATM   24  C   UNL     1     -41.898  58.095 -54.223  1.00  0.00     0.253 C 
HETATM   25  N   UNL     1     -40.993  58.002 -53.184  1.00  0.00    -0.357 N 
HETATM   26  H   UNL     1     -40.834  57.100 -52.755  1.00  0.00     0.162 HD
HETATM   27  O   UNL     1     -42.109  59.132 -54.840  1.00  0.00    -0.268 OA
BRANCH  25  28
HETATM   28  C   UNL     1     -40.248  59.151 -52.718  1.00  0.00     0.125 C 
BRANCH  28  29
HETATM   29  C   UNL     1     -39.892  59.075 -51.236  1.00  0.00     0.046 C 
BRANCH  29  30
HETATM   30  C   UNL     1     -40.840  59.859 -50.337  1.00  0.00     0.165 C 
BRANCH  30  31
HETATM   31  O   UNL     1     -41.124  59.090 -49.170  1.00  0.00    -0.401 OA
HETATM   32  H   UNL     1     -42.073  59.192 -48.984  1.00  0.00     0.209 HD
ENDBRANCH  30  31
ENDBRANCH  29  30
ENDBRANCH  28  29
ENDBRANCH  25  28
ENDBRANCH  19  24
ENDBRANCH   1  18
TORSDOF 11
ENDMDL
MODEL 5
REMARK VINA RESULT:      -6.8      2.966      7.089
REMARK  11 active torsions:
REMARK  status: ('A' for Active; 'I' for Inactive)
REMARK    1  A    between atoms: O_2  and  C_3 
REMARK    2  A    between atoms: C_6  and  C_7 
REMARK    3  A    between atoms: C_7  and  C_8 
REMARK       I    between atoms: C_8  and  N_9 
REMARK    4  A    between atoms: N_9  and  C_10 
REMARK    5  A    between atoms: C_10  and  N_11 
REMARK    6  A    between atoms: N_11  and  C_12 
REMARK    7  A    between atoms: C_13  and  C_14 
REMARK       I    between atoms: C_14  and  N_15 
REMARK    8  A    between atoms: N_15  and  C_16 
REMARK    9  A    between atoms: C_16  and  C_17 
REMARK   10  A    between atoms: C_17  and  C_18 
REMARK   11  A    between atoms: C_18  and  O_19 
ROOT
HETATM    1  N   UNL     1     -40.544  54.024 -51.532  1.00  0.00    -0.332 N 
HETATM    2  H   UNL     1     -39.915  54.806 -51.733  1.00  0.00     0.168 HD
ENDROOT
BRANCH   1   3
HETATM    3  C   UNL     1     -41.056  54.104 -50.248  1.00  0.00     0.178 C 
HETATM    4  S   UNL     1     -40.410  53.550 -48.812  1.00  0.00    -0.040 SA
BRANCH   3   5
HETATM    5  N   UNL     1     -42.251  54.804 -50.147  1.00  0.00    -0.303 N 
HETATM    6  C   UNL     1     -43.217  54.984 -51.129  1.00  0.00     0.228 C 
HETATM    7  O   UNL     1     -43.259  54.307 -52.156  1.00  0.00    -0.273 OA
HETATM    8  H   UNL     1     -42.263  55.451 -49.366  1.00  0.00     0.171 HD
BRANCH   6   9
HETATM    9  C   UNL     1     -44.259  56.041 -50.819  1.00  0.00     0.141 C 
BRANCH   9  10
HETATM   10  C   UNL     1     -43.943  57.445 -51.291  1.00  0.00    -0.049 A 
HETATM   11  C   UNL     1     -42.637  57.878 -51.565  1.00  0.00     0.010 A 
HETATM   12  C   UNL     1     -42.393  59.182 -52.018  1.00  0.00     0.037 A 
HETATM   13  C   UNL     1     -43.452  60.060 -52.239  1.00  0.00     0.068 A 
HETATM   14  C   UNL     1     -44.756  59.620 -52.011  1.00  0.00     0.037 A 
HETATM   15  C   UNL     1     -45.002  58.328 -51.542  1.00  0.00     0.010 A 
BRANCH  13  16
HETATM   16  O   UNL     1     -43.352  61.348 -52.686  1.00  0.00    -0.356 OA
HETATM   17  C   UNL     1     -43.020  61.530 -54.057  1.00  0.00     0.210 C 
ENDBRANCH  13  16
ENDBRANCH   9  10
ENDBRANCH   6   9
ENDBRANCH   3   5
ENDBRANCH   1   3
BRANCH   1  18
HETATM   18  C   UNL     1     -40.270  52.857 -52.291  1.00  0.00     0.050 A 
HETATM   19  C   UNL     1     -40.456  52.690 -53.675  1.00  0.00     0.058 A 
HETATM   20  C   UNL     1     -40.222  51.429 -54.256  1.00  0.00     0.019 A 
HETATM   21  C   UNL     1     -39.754  50.360 -53.492  1.00  0.00     0.001 A 
HETATM   22  C   UNL     1     -39.495  50.545 -52.140  1.00  0.00     0.002 A 
HETATM   23  C   UNL     1     -39.743  51.786 -51.548  1.00  0.00     0.030 A 
BRANCH  19  24
HETATM   24  C   UNL     1     -40.724  53.784 -54.648  1.00  0.00     0.253 C 
HETATM   25  N   UNL     1     -42.052  54.035 -54.930  1.00  0.00    -0.357 N 
HETATM   26  H   UNL     1     -42.760  53.452 -54.503  1.00  0.00     0.162 HD
HETATM   27  O   UNL     1     -39.805  54.475 -55.072  1.00  0.00    -0.268 OA
BRANCH  25  28
HETATM   28  C   UNL     1     -42.456  55.125 -55.792  1.00  0.00     0.125 C 
BRANCH  28  29
HETATM   29  C   UNL     1     -42.705  56.427 -55.037  1.00  0.00     0.046 C 
BRANCH  29  30
HETATM   30  C   UNL     1     -44.179  56.721 -54.791  1.00  0.00     0.165 C 
BRANCH  30  31
HETATM   31  O   UNL     1     -44.823  55.535 -54.329  1.00  0.00    -0.401 OA
HETATM   32  H   UNL     1     -44.292  55.190 -53.592  1.00  0.00     0.209 HD
ENDBRANCH  30  31
ENDBRANCH  29  30
ENDBRANCH  28  29
ENDBRANCH  25  28
ENDBRANCH  19  24
ENDBRANCH   1  18
TORSDOF 11
ENDMDL
MODEL 6
REMARK VINA RESULT:      -6.6      2.901      5.941
REMARK  11 active torsions:
REMARK  status: ('A' for Active; 'I' for Inactive)
REMARK    1  A    between atoms: O_2  and  C_3 
REMARK    2  A    between atoms: C_6  and  C_7 
REMARK    3  A    between atoms: C_7  and  C_8 
REMARK       I    between atoms: C_8  and  N_9 
REMARK    4  A    between atoms: N_9  and  C_10 
REMARK    5  A    between atoms: C_10  and  N_11 
REMARK    6  A    between atoms: N_11  and  C_12 
REMARK    7  A    between atoms: C_13  and  C_14 
REMARK       I    between atoms: C_14  and  N_15 
REMARK    8  A    between atoms: N_15  and  C_16 
REMARK    9  A    between atoms: C_16  and  C_17 
REMARK   10  A    between atoms: C_17  and  C_18 
REMARK   11  A    between atoms: C_18  and  O_19 
ROOT
HETATM    1  N   UNL     1     -42.793  58.531 -54.730  1.00  0.00    -0.332 N 
HETATM    2  H   UNL     1     -42.131  59.311 -54.711  1.00  0.00     0.168 HD
ENDROOT
BRANCH   1   3
HETATM    3  C   UNL     1     -43.959  58.840 -54.051  1.00  0.00     0.178 C 
HETATM    4  S   UNL     1     -45.053  60.070 -54.329  1.00  0.00    -0.040 SA
BRANCH   3   5
HETATM    5  N   UNL     1     -44.288  57.952 -53.035  1.00  0.00    -0.303 N 
HETATM    6  C   UNL     1     -43.931  58.026 -51.695  1.00  0.00     0.228 C 
HETATM    7  O   UNL     1     -43.489  59.051 -51.176  1.00  0.00    -0.273 OA
HETATM    8  H   UNL     1     -44.585  57.047 -53.384  1.00  0.00     0.171 HD
BRANCH   6   9
HETATM    9  C   UNL     1     -44.181  56.761 -50.894  1.00  0.00     0.141 C 
BRANCH   9  10
HETATM   10  C   UNL     1     -43.046  55.760 -50.862  1.00  0.00    -0.049 A 
HETATM   11  C   UNL     1     -41.845  55.993 -50.176  1.00  0.00     0.010 A 
HETATM   12  C   UNL     1     -40.828  55.029 -50.157  1.00  0.00     0.037 A 
HETATM   13  C   UNL     1     -41.010  53.803 -50.794  1.00  0.00     0.068 A 
HETATM   14  C   UNL     1     -42.219  53.547 -51.441  1.00  0.00     0.037 A 
HETATM   15  C   UNL     1     -43.228  54.513 -51.477  1.00  0.00     0.010 A 
BRANCH  13  16
HETATM   16  O   UNL     1     -40.107  52.778 -50.844  1.00  0.00    -0.356 OA
HETATM   17  C   UNL     1     -39.852  52.207 -52.121  1.00  0.00     0.210 C 
ENDBRANCH  13  16
ENDBRANCH   9  10
ENDBRANCH   6   9
ENDBRANCH   3   5
ENDBRANCH   1   3
BRANCH   1  18
HETATM   18  C   UNL     1     -42.179  57.260 -54.875  1.00  0.00     0.050 A 
HETATM   19  C   UNL     1     -42.471  56.291 -55.851  1.00  0.00     0.058 A 
HETATM   20  C   UNL     1     -41.831  55.038 -55.794  1.00  0.00     0.019 A 
HETATM   21  C   UNL     1     -40.870  54.764 -54.821  1.00  0.00     0.001 A 
HETATM   22  C   UNL     1     -40.524  55.748 -53.905  1.00  0.00     0.002 A 
HETATM   23  C   UNL     1     -41.166  56.988 -53.938  1.00  0.00     0.030 A 
BRANCH  19  24
HETATM   24  C   UNL     1     -43.291  56.516 -57.073  1.00  0.00     0.253 C 
HETATM   25  N   UNL     1     -42.889  55.841 -58.208  1.00  0.00    -0.357 N 
HETATM   26  H   UNL     1     -42.054  55.270 -58.167  1.00  0.00     0.162 HD
HETATM   27  O   UNL     1     -44.320  57.180 -57.015  1.00  0.00    -0.268 OA
BRANCH  25  28
HETATM   28  C   UNL     1     -43.645  55.903 -59.440  1.00  0.00     0.125 C 
BRANCH  28  29
HETATM   29  C   UNL     1     -43.312  57.128 -60.288  1.00  0.00     0.046 C 
BRANCH  29  30
HETATM   30  C   UNL     1     -41.873  57.605 -60.136  1.00  0.00     0.165 C 
BRANCH  30  31
HETATM   31  O   UNL     1     -40.988  56.517 -60.393  1.00  0.00    -0.401 OA
HETATM   32  H   UNL     1     -40.176  56.683 -59.886  1.00  0.00     0.209 HD
ENDBRANCH  30  31
ENDBRANCH  29  30
ENDBRANCH  28  29
ENDBRANCH  25  28
ENDBRANCH  19  24
ENDBRANCH   1  18
TORSDOF 11
ENDMDL
MODEL 7
REMARK VINA RESULT:      -6.5      3.441      7.111
REMARK  11 active torsions:
REMARK  status: ('A' for Active; 'I' for Inactive)
REMARK    1  A    between atoms: O_2  and  C_3 
REMARK    2  A    between atoms: C_6  and  C_7 
REMARK    3  A    between atoms: C_7  and  C_8 
REMARK       I    between atoms: C_8  and  N_9 
REMARK    4  A    between atoms: N_9  and  C_10 
REMARK    5  A    between atoms: C_10  and  N_11 
REMARK    6  A    between atoms: N_11  and  C_12 
REMARK    7  A    between atoms: C_13  and  C_14 
REMARK       I    between atoms: C_14  and  N_15 
REMARK    8  A    between atoms: N_15  and  C_16 
REMARK    9  A    between atoms: C_16  and  C_17 
REMARK   10  A    between atoms: C_17  and  C_18 
REMARK   11  A    between atoms: C_18  and  O_19 
ROOT
HETATM    1  N   UNL     1     -42.351  56.038 -52.081  1.00  0.00    -0.332 N 
HETATM    2  H   UNL     1     -43.269  55.712 -52.393  1.00  0.00     0.168 HD
ENDROOT
BRANCH   1   3
HETATM    3  C   UNL     1     -41.780  56.899 -53.003  1.00  0.00     0.178 C 
HETATM    4  S   UNL     1     -40.835  58.251 -52.746  1.00  0.00    -0.040 SA
BRANCH   3   5
HETATM    5  N   UNL     1     -41.978  56.539 -54.329  1.00  0.00    -0.303 N 
HETATM    6  C   UNL     1     -43.181  56.460 -55.018  1.00  0.00     0.228 C 
HETATM    7  O   UNL     1     -44.223  56.967 -54.602  1.00  0.00    -0.273 OA
HETATM    8  H   UNL     1     -41.189  56.037 -54.722  1.00  0.00     0.171 HD
BRANCH   6   9
HETATM    9  C   UNL     1     -43.110  55.751 -56.357  1.00  0.00     0.141 C 
BRANCH   9  10
HETATM   10  C   UNL     1     -42.754  56.614 -57.549  1.00  0.00    -0.049 A 
HETATM   11  C   UNL     1     -42.342  57.949 -57.424  1.00  0.00     0.010 A 
HETATM   12  C   UNL     1     -42.004  58.706 -58.554  1.00  0.00     0.037 A 
HETATM   13  C   UNL     1     -42.038  58.130 -59.822  1.00  0.00     0.068 A 
HETATM   14  C   UNL     1     -42.405  56.790 -59.948  1.00  0.00     0.037 A 
HETATM   15  C   UNL     1     -42.759  56.038 -58.826  1.00  0.00     0.010 A 
BRANCH  13  16
HETATM   16  O   UNL     1     -41.726  58.751 -60.999  1.00  0.00    -0.356 OA
HETATM   17  C   UNL     1     -41.986  60.147 -61.079  1.00  0.00     0.210 C 
ENDBRANCH  13  16
ENDBRANCH   9  10
ENDBRANCH   6   9
ENDBRANCH   3   5
ENDBRANCH   1   3
BRANCH   1  18
HETATM   18  C   UNL     1     -41.692  55.143 -51.200  1.00  0.00     0.050 A 
HETATM   19  C   UNL     1     -41.252  53.840 -51.496  1.00  0.00     0.058 A 
HETATM   20  C   UNL     1     -40.699  53.049 -50.472  1.00  0.00     0.019 A 
HETATM   21  C   UNL     1     -40.527  53.555 -49.184  1.00  0.00     0.001 A 
HETATM   22  C   UNL     1     -40.888  54.867 -48.909  1.00  0.00     0.002 A 
HETATM   23  C   UNL     1     -41.457  55.656 -49.912  1.00  0.00     0.030 A 
BRANCH  19  24
HETATM   24  C   UNL     1     -41.157  53.250 -52.859  1.00  0.00     0.253 C 
HETATM   25  N   UNL     1     -40.127  52.353 -53.063  1.00  0.00    -0.357 N 
HETATM   26  H   UNL     1     -39.480  52.174 -52.307  1.00  0.00     0.162 HD
HETATM   27  O   UNL     1     -42.021  53.484 -53.697  1.00  0.00    -0.268 OA
BRANCH  25  28
HETATM   28  C   UNL     1     -39.972  51.643 -54.314  1.00  0.00     0.125 C 
BRANCH  28  29
HETATM   29  C   UNL     1     -40.288  50.155 -54.204  1.00  0.00     0.046 C 
BRANCH  29  30
HETATM   30  C   UNL     1     -39.399  49.411 -53.214  1.00  0.00     0.165 C 
BRANCH  30  31
HETATM   31  O   UNL     1     -39.767  49.777 -51.886  1.00  0.00    -0.401 OA
HETATM   32  H   UNL     1     -38.944  49.906 -51.386  1.00  0.00     0.209 HD
ENDBRANCH  30  31
ENDBRANCH  29  30
ENDBRANCH  28  29
ENDBRANCH  25  28
ENDBRANCH  19  24
ENDBRANCH   1  18
TORSDOF 11
ENDMDL
MODEL 8
REMARK VINA RESULT:      -6.5      3.444      5.615
REMARK  11 active torsions:
REMARK  status: ('A' for Active; 'I' for Inactive)
REMARK    1  A    between atoms: O_2  and  C_3 
REMARK    2  A    between atoms: C_6  and  C_7 
REMARK    3  A    between atoms: C_7  and  C_8 
REMARK       I    between atoms: C_8  and  N_9 
REMARK    4  A    between atoms: N_9  and  C_10 
REMARK    5  A    between atoms: C_10  and  N_11 
REMARK    6  A    between atoms: N_11  and  C_12 
REMARK    7  A    between atoms: C_13  and  C_14 
REMARK       I    between atoms: C_14  and  N_15 
REMARK    8  A    between atoms: N_15  and  C_16 
REMARK    9  A    between atoms: C_16  and  C_17 
REMARK   10  A    between atoms: C_17  and  C_18 
REMARK   11  A    between atoms: C_18  and  O_19 
ROOT
HETATM    1  N   UNL     1     -42.124  57.036 -57.965  1.00  0.00    -0.332 N 
HETATM    2  H   UNL     1     -41.178  56.683 -58.134  1.00  0.00     0.168 HD
ENDROOT
BRANCH   1   3
HETATM    3  C   UNL     1     -43.063  56.022 -58.040  1.00  0.00     0.178 C 
HETATM    4  S   UNL     1     -43.803  55.359 -59.381  1.00  0.00    -0.040 SA
BRANCH   3   5
HETATM    5  N   UNL     1     -43.379  55.437 -56.820  1.00  0.00    -0.303 N 
HETATM    6  C   UNL     1     -42.579  55.347 -55.689  1.00  0.00     0.228 C 
HETATM    7  O   UNL     1     -41.562  56.022 -55.535  1.00  0.00    -0.273 OA
HETATM    8  H   UNL     1     -44.163  54.796 -56.883  1.00  0.00     0.171 HD
BRANCH   6   9
HETATM    9  C   UNL     1     -43.082  54.393 -54.622  1.00  0.00     0.141 C 
BRANCH   9  10
HETATM   10  C   UNL     1     -42.018  53.697 -53.798  1.00  0.00    -0.049 A 
HETATM   11  C   UNL     1     -41.805  53.978 -52.441  1.00  0.00     0.010 A 
HETATM   12  C   UNL     1     -40.821  53.295 -51.712  1.00  0.00     0.037 A 
HETATM   13  C   UNL     1     -40.062  52.297 -52.318  1.00  0.00     0.068 A 
HETATM   14  C   UNL     1     -40.300  51.983 -53.657  1.00  0.00     0.037 A 
HETATM   15  C   UNL     1     -41.267  52.673 -54.391  1.00  0.00     0.010 A 
BRANCH  13  16
HETATM   16  O   UNL     1     -39.082  51.553 -51.722  1.00  0.00    -0.356 OA
HETATM   17  C   UNL     1     -39.392  50.196 -51.429  1.00  0.00     0.210 C 
ENDBRANCH  13  16
ENDBRANCH   9  10
ENDBRANCH   6   9
ENDBRANCH   3   5
ENDBRANCH   1   3
BRANCH   1  18
HETATM   18  C   UNL     1     -42.292  58.406 -58.290  1.00  0.00     0.050 A 
HETATM   19  C   UNL     1     -42.536  59.461 -57.392  1.00  0.00     0.058 A 
HETATM   20  C   UNL     1     -42.773  60.755 -57.894  1.00  0.00     0.019 A 
HETATM   21  C   UNL     1     -42.713  61.018 -59.262  1.00  0.00     0.001 A 
HETATM   22  C   UNL     1     -42.395  59.994 -60.144  1.00  0.00     0.002 A 
HETATM   23  C   UNL     1     -42.177  58.702 -59.660  1.00  0.00     0.030 A 
BRANCH  19  24
HETATM   24  C   UNL     1     -42.402  59.382 -55.912  1.00  0.00     0.253 C 
HETATM   25  N   UNL     1     -43.420  58.733 -55.243  1.00  0.00    -0.357 N 
HETATM   26  H   UNL     1     -44.208  58.384 -55.774  1.00  0.00     0.162 HD
HETATM   27  O   UNL     1     -41.384  59.784 -55.360  1.00  0.00    -0.268 OA
BRANCH  25  28
HETATM   28  C   UNL     1     -43.373  58.511 -53.814  1.00  0.00     0.125 C 
BRANCH  28  29
HETATM   29  C   UNL     1     -44.413  57.505 -53.328  1.00  0.00     0.046 C 
BRANCH  29  30
HETATM   30  C   UNL     1     -44.142  56.973 -51.926  1.00  0.00     0.165 C 
BRANCH  30  31
HETATM   31  O   UNL     1     -45.313  57.136 -51.128  1.00  0.00    -0.401 OA
HETATM   32  H   UNL     1     -45.212  57.969 -50.639  1.00  0.00     0.209 HD
ENDBRANCH  30  31
ENDBRANCH  29  30
ENDBRANCH  28  29
ENDBRANCH  25  28
ENDBRANCH  19  24
ENDBRANCH   1  18
TORSDOF 11
ENDMDL
MODEL 9
REMARK VINA RESULT:      -6.5      3.847      6.955
REMARK  11 active torsions:
REMARK  status: ('A' for Active; 'I' for Inactive)
REMARK    1  A    between atoms: O_2  and  C_3 
REMARK    2  A    between atoms: C_6  and  C_7 
REMARK    3  A    between atoms: C_7  and  C_8 
REMARK       I    between atoms: C_8  and  N_9 
REMARK    4  A    between atoms: N_9  and  C_10 
REMARK    5  A    between atoms: C_10  and  N_11 
REMARK    6  A    between atoms: N_11  and  C_12 
REMARK    7  A    between atoms: C_13  and  C_14 
REMARK       I    between atoms: C_14  and  N_15 
REMARK    8  A    between atoms: N_15  and  C_16 
REMARK    9  A    between atoms: C_16  and  C_17 
REMARK   10  A    between atoms: C_17  and  C_18 
REMARK   11  A    between atoms: C_18  and  O_19 
ROOT
HETATM    1  N   UNL     1     -43.608  57.462 -56.327  1.00  0.00    -0.332 N 
HETATM    2  H   UNL     1     -44.623  57.560 -56.242  1.00  0.00     0.168 HD
ENDROOT
BRANCH   1   3
HETATM    3  C   UNL     1     -43.042  57.016 -55.145  1.00  0.00     0.178 C 
HETATM    4  S   UNL     1     -43.557  57.238 -53.573  1.00  0.00    -0.040 SA
BRANCH   3   5
HETATM    5  N   UNL     1     -41.920  56.215 -55.309  1.00  0.00    -0.303 N 
HETATM    6  C   UNL     1     -41.880  54.852 -55.571  1.00  0.00     0.228 C 
HETATM    7  O   UNL     1     -42.860  54.218 -55.962  1.00  0.00    -0.273 OA
HETATM    8  H   UNL     1     -41.077  56.636 -54.933  1.00  0.00     0.171 HD
BRANCH   6   9
HETATM    9  C   UNL     1     -40.520  54.204 -55.398  1.00  0.00     0.141 C 
BRANCH   9  10
HETATM   10  C   UNL     1     -40.307  53.439 -54.108  1.00  0.00    -0.049 A 
HETATM   11  C   UNL     1     -40.593  53.982 -52.847  1.00  0.00     0.010 A 
HETATM   12  C   UNL     1     -40.399  53.230 -51.680  1.00  0.00     0.037 A 
HETATM   13  C   UNL     1     -39.951  51.913 -51.758  1.00  0.00     0.068 A 
HETATM   14  C   UNL     1     -39.707  51.353 -53.013  1.00  0.00     0.037 A 
HETATM   15  C   UNL     1     -39.883  52.105 -54.177  1.00  0.00     0.010 A 
BRANCH  13  16
HETATM   16  O   UNL     1     -39.730  51.072 -50.704  1.00  0.00    -0.356 OA
HETATM   17  C   UNL     1     -39.852  49.678 -50.955  1.00  0.00     0.210 C 
ENDBRANCH  13  16
ENDBRANCH   9  10
ENDBRANCH   6   9
ENDBRANCH   3   5
ENDBRANCH   1   3
BRANCH   1  18
HETATM   18  C   UNL     1     -43.029  58.310 -57.305  1.00  0.00     0.050 A 
HETATM   19  C   UNL     1     -42.596  57.941 -58.591  1.00  0.00     0.058 A 
HETATM   20  C   UNL     1     -41.954  58.893 -59.405  1.00  0.00     0.019 A 
HETATM   21  C   UNL     1     -41.792  60.211 -58.979  1.00  0.00     0.001 A 
HETATM   22  C   UNL     1     -42.289  60.598 -57.741  1.00  0.00     0.002 A 
HETATM   23  C   UNL     1     -42.910  59.657 -56.917  1.00  0.00     0.030 A 
BRANCH  19  24
HETATM   24  C   UNL     1     -42.903  56.650 -59.267  1.00  0.00     0.253 C 
HETATM   25  N   UNL     1     -44.152  56.117 -59.021  1.00  0.00    -0.357 N 
HETATM   26  H   UNL     1     -44.769  56.596 -58.379  1.00  0.00     0.162 HD
HETATM   27  O   UNL     1     -42.114  56.172 -60.074  1.00  0.00    -0.268 OA
BRANCH  25  28
HETATM   28  C   UNL     1     -44.610  54.913 -59.680  1.00  0.00     0.125 C 
BRANCH  28  29
HETATM   29  C   UNL     1     -45.284  55.183 -61.023  1.00  0.00     0.046 C 
BRANCH  29  30
HETATM   30  C   UNL     1     -46.559  56.010 -60.913  1.00  0.00     0.165 C 
BRANCH  30  31
HETATM   31  O   UNL     1     -46.966  56.065 -59.547  1.00  0.00    -0.401 OA
HETATM   32  H   UNL     1     -46.972  55.152 -59.213  1.00  0.00     0.209 HD
ENDBRANCH  30  31
ENDBRANCH  29  30
ENDBRANCH  28  29
ENDBRANCH  25  28
ENDBRANCH  19  24
ENDBRANCH   1  18
TORSDOF 11
ENDMDL
MODEL 10
REMARK VINA RESULT:      -6.4      3.694      6.470
REMARK  11 active torsions:
REMARK  status: ('A' for Active; 'I' for Inactive)
REMARK    1  A    between atoms: O_2  and  C_3 
REMARK    2  A    between atoms: C_6  and  C_7 
REMARK    3  A    between atoms: C_7  and  C_8 
REMARK       I    between atoms: C_8  and  N_9 
REMARK    4  A    between atoms: N_9  and  C_10 
REMARK    5  A    between atoms: C_10  and  N_11 
REMARK    6  A    between atoms: N_11  and  C_12 
REMARK    7  A    between atoms: C_13  and  C_14 
REMARK       I    between atoms: C_14  and  N_15 
REMARK    8  A    between atoms: N_15  and  C_16 
REMARK    9  A    between atoms: C_16  and  C_17 
REMARK   10  A    between atoms: C_17  and  C_18 
REMARK   11  A    between atoms: C_18  and  O_19 
ROOT
HETATM    1  N   UNL     1     -40.828  54.849 -54.452  1.00  0.00    -0.332 N 
HETATM    2  H   UNL     1     -40.363  55.719 -54.182  1.00  0.00     0.168 HD
ENDROOT
BRANCH   1   3
HETATM    3  C   UNL     1     -42.019  55.095 -55.112  1.00  0.00     0.178 C 
HETATM    4  S   UNL     1     -43.576  54.668 -54.686  1.00  0.00    -0.040 SA
BRANCH   3   5
HETATM    5  N   UNL     1     -41.893  55.865 -56.261  1.00  0.00    -0.303 N 
HETATM    6  C   UNL     1     -42.368  57.152 -56.477  1.00  0.00     0.228 C 
HETATM    7  O   UNL     1     -42.739  57.890 -55.564  1.00  0.00    -0.273 OA
HETATM    8  H   UNL     1     -41.669  55.313 -57.082  1.00  0.00     0.171 HD
BRANCH   6   9
HETATM    9  C   UNL     1     -42.342  57.611 -57.923  1.00  0.00     0.141 C 
BRANCH   9  10
HETATM   10  C   UNL     1     -43.415  57.035 -58.823  1.00  0.00    -0.049 A 
HETATM   11  C   UNL     1     -43.244  55.842 -59.540  1.00  0.00     0.010 A 
HETATM   12  C   UNL     1     -44.271  55.334 -60.346  1.00  0.00     0.037 A 
HETATM   13  C   UNL     1     -45.498  55.992 -60.421  1.00  0.00     0.068 A 
HETATM   14  C   UNL     1     -45.689  57.156 -59.675  1.00  0.00     0.037 A 
HETATM   15  C   UNL     1     -44.660  57.674 -58.884  1.00  0.00     0.010 A 
BRANCH  13  16
HETATM   16  O   UNL     1     -46.580  55.602 -61.158  1.00  0.00    -0.356 OA
HETATM   17  C   UNL     1     -47.620  56.556 -61.330  1.00  0.00     0.210 C 
ENDBRANCH  13  16
ENDBRANCH   9  10
ENDBRANCH   6   9
ENDBRANCH   3   5
ENDBRANCH   1   3
BRANCH   1  18
HETATM   18  C   UNL     1     -40.501  53.743 -53.626  1.00  0.00     0.050 A 
HETATM   19  C   UNL     1     -40.635  53.666 -52.228  1.00  0.00     0.058 A 
HETATM   20  C   UNL     1     -40.172  52.523 -51.551  1.00  0.00     0.019 A 
HETATM   21  C   UNL     1     -39.636  51.441 -52.248  1.00  0.00     0.001 A 
HETATM   22  C   UNL     1     -39.575  51.482 -53.635  1.00  0.00     0.002 A 
HETATM   23  C   UNL     1     -40.013  52.619 -54.317  1.00  0.00     0.030 A 
BRANCH  19  24
HETATM   24  C   UNL     1     -41.389  54.630 -51.379  1.00  0.00     0.253 C 
HETATM   25  N   UNL     1     -40.753  55.824 -51.104  1.00  0.00    -0.357 N 
HETATM   26  H   UNL     1     -39.814  55.968 -51.450  1.00  0.00     0.162 HD
HETATM   27  O   UNL     1     -42.546  54.393 -51.053  1.00  0.00    -0.268 OA
BRANCH  25  28
HETATM   28  C   UNL     1     -41.406  56.882 -50.363  1.00  0.00     0.125 C 
BRANCH  28  29
HETATM   29  C   UNL     1     -40.959  58.277 -50.789  1.00  0.00     0.046 C 
BRANCH  29  30
HETATM   30  C   UNL     1     -41.449  58.682 -52.173  1.00  0.00     0.165 C 
BRANCH  30  31
HETATM   31  O   UNL     1     -40.955  57.753 -53.136  1.00  0.00    -0.401 OA
HETATM   32  H   UNL     1     -40.017  57.963 -53.282  1.00  0.00     0.209 HD
ENDBRANCH  30  31
ENDBRANCH  29  30
ENDBRANCH  28  29
ENDBRANCH  25  28
ENDBRANCH  19  24
ENDBRANCH   1  18
TORSDOF 11
ENDMDL
