MODEL 1
REMARK VINA RESULT:      -8.2      0.000      0.000
REMARK  3 active torsions:
REMARK  status: ('A' for Active; 'I' for Inactive)
REMARK    1  A    between atoms: C_2  and  C_3 
REMARK    2  A    between atoms: C_4  and  N_5 
REMARK    3  A    between atoms: C_18  and  C_19 
ROOT
HETATM    1  N   UNL     1     -42.292  55.254 -52.445  1.00  0.00    -0.320 N 
HETATM    2  C   UNL     1     -43.424  55.219 -51.566  1.00  0.00     0.141 C 
HETATM    3  N   UNL     1     -44.008  54.107 -51.221  1.00  0.00    -0.380 N 
HETATM    4  H   UNL     1     -43.655  53.234 -51.587  1.00  0.00     0.158 HD
HETATM    5  H   UNL     1     -44.803  54.130 -50.598  1.00  0.00     0.158 HD
HETATM    6  S   UNL     1     -43.916  56.784 -51.022  1.00  0.00    -0.086 SA
HETATM    7  C   UNL     1     -42.836  57.565 -52.264  1.00  0.00     0.093 C 
HETATM    8  C   UNL     1     -41.653  56.578 -52.385  1.00  0.00     0.121 C 
HETATM    9  C   UNL     1     -42.196  58.913 -52.044  1.00  0.00     0.158 C 
HETATM   10  S   UNL     1     -40.842  58.865 -53.238  1.00  0.00     0.147 S 
HETATM   11  O   UNL     1     -41.259  59.562 -54.435  1.00  0.00    -0.228 OA
HETATM   12  O   UNL     1     -39.613  59.173 -52.540  1.00  0.00    -0.228 OA
HETATM   13  C   UNL     1     -40.877  57.095 -53.572  1.00  0.00     0.167 C 
ENDROOT
BRANCH   1  14
HETATM   14  C   UNL     1     -41.467  54.153 -52.739  1.00  0.00     0.049 A 
HETATM   15  C   UNL     1     -41.661  53.463 -53.964  1.00  0.00    -0.031 A 
HETATM   16  C   UNL     1     -40.917  52.300 -54.232  1.00  0.00     0.009 A 
HETATM   17  C   UNL     1     -39.982  51.824 -53.323  1.00  0.00     0.001 A 
HETATM   18  C   UNL     1     -39.780  52.501 -52.127  1.00  0.00     0.009 A 
HETATM   19  C   UNL     1     -40.512  53.662 -51.813  1.00  0.00    -0.031 A 
BRANCH  15  20
HETATM   20  C   UNL     1     -42.677  53.902 -55.003  1.00  0.00     0.036 C 
HETATM   21  C   UNL     1     -42.104  54.886 -56.016  1.00  0.00     0.010 C 
ENDBRANCH  15  20
BRANCH  19  22
HETATM   22  C   UNL     1     -40.208  54.314 -50.479  1.00  0.00     0.036 C 
HETATM   23  C   UNL     1     -40.572  53.416 -49.303  1.00  0.00     0.010 C 
ENDBRANCH  19  22
ENDBRANCH   1  14
TORSDOF 3
ENDMDL
MODEL 2
REMARK VINA RESULT:      -7.9      0.160      2.907
REMARK  3 active torsions:
REMARK  status: ('A' for Active; 'I' for Inactive)
REMARK    1  A    between atoms: C_2  and  C_3 
REMARK    2  A    between atoms: C_4  and  N_5 
REMARK    3  A    between atoms: C_18  and  C_19 
ROOT
HETATM    1  N   UNL     1     -42.428  55.332 -52.406  1.00  0.00    -0.320 N 
HETATM    2  C   UNL     1     -43.540  55.360 -51.501  1.00  0.00     0.141 C 
HETATM    3  N   UNL     1     -44.164  54.281 -51.125  1.00  0.00    -0.380 N 
HETATM    4  H   UNL     1     -43.858  53.387 -51.484  1.00  0.00     0.158 HD
HETATM    5  H   UNL     1     -44.943  54.349 -50.485  1.00  0.00     0.158 HD
HETATM    6  S   UNL     1     -43.950  56.955 -50.973  1.00  0.00    -0.086 SA
HETATM    7  C   UNL     1     -42.865  57.667 -52.252  1.00  0.00     0.093 C 
HETATM    8  C   UNL     1     -41.730  56.627 -52.382  1.00  0.00     0.121 C 
HETATM    9  C   UNL     1     -42.162  58.989 -52.069  1.00  0.00     0.158 C 
HETATM   10  S   UNL     1     -40.839  58.862 -53.291  1.00  0.00     0.147 S 
HETATM   11  O   UNL     1     -41.252  59.557 -54.490  1.00  0.00    -0.228 OA
HETATM   12  O   UNL     1     -39.582  59.127 -52.626  1.00  0.00    -0.228 OA
HETATM   13  C   UNL     1     -40.959  57.090 -53.594  1.00  0.00     0.167 C 
ENDROOT
BRANCH   1  14
HETATM   14  C   UNL     1     -41.658  54.190 -52.699  1.00  0.00     0.049 A 
HETATM   15  C   UNL     1     -40.682  53.768 -51.760  1.00  0.00    -0.031 A 
HETATM   16  C   UNL     1     -39.834  52.691 -52.076  1.00  0.00     0.009 A 
HETATM   17  C   UNL     1     -39.947  52.024 -53.289  1.00  0.00     0.001 A 
HETATM   18  C   UNL     1     -40.908  52.427 -54.207  1.00  0.00     0.009 A 
HETATM   19  C   UNL     1     -41.770  53.506 -53.936  1.00  0.00    -0.031 A 
BRANCH  15  20
HETATM   20  C   UNL     1     -40.476  54.455 -50.422  1.00  0.00     0.036 C 
HETATM   21  C   UNL     1     -40.558  53.494 -49.242  1.00  0.00     0.010 C 
ENDBRANCH  15  20
BRANCH  19  22
HETATM   22  C   UNL     1     -42.776  53.856 -55.013  1.00  0.00     0.036 C 
HETATM   23  C   UNL     1     -42.222  54.862 -56.015  1.00  0.00     0.010 C 
ENDBRANCH  19  22
ENDBRANCH   1  14
TORSDOF 3
ENDMDL
MODEL 3
REMARK VINA RESULT:      -6.0      2.177      3.918
REMARK  3 active torsions:
REMARK  status: ('A' for Active; 'I' for Inactive)
REMARK    1  A    between atoms: C_2  and  C_3 
REMARK    2  A    between atoms: C_4  and  N_5 
REMARK    3  A    between atoms: C_18  and  C_19 
ROOT
HETATM    1  N   UNL     1     -42.677  56.479 -52.999  1.00  0.00    -0.320 N 
HETATM    2  C   UNL     1     -42.940  55.308 -52.216  1.00  0.00     0.141 C 
HETATM    3  N   UNL     1     -43.626  54.299 -52.673  1.00  0.00    -0.380 N 
HETATM    4  H   UNL     1     -43.991  54.342 -53.614  1.00  0.00     0.158 HD
HETATM    5  H   UNL     1     -43.785  53.493 -52.084  1.00  0.00     0.158 HD
HETATM    6  S   UNL     1     -42.256  55.379 -50.629  1.00  0.00    -0.086 SA
HETATM    7  C   UNL     1     -41.910  57.154 -50.849  1.00  0.00     0.093 C 
HETATM    8  C   UNL     1     -41.621  57.281 -52.361  1.00  0.00     0.121 C 
HETATM    9  C   UNL     1     -40.749  57.840 -50.172  1.00  0.00     0.158 C 
HETATM   10  S   UNL     1     -40.559  59.314 -51.198  1.00  0.00     0.147 S 
HETATM   11  O   UNL     1     -41.234  60.416 -50.549  1.00  0.00    -0.228 OA
HETATM   12  O   UNL     1     -39.181  59.387 -51.632  1.00  0.00    -0.228 OA
HETATM   13  C   UNL     1     -41.566  58.772 -52.590  1.00  0.00     0.167 C 
ENDROOT
BRANCH   1  14
HETATM   14  C   UNL     1     -42.782  56.550 -54.401  1.00  0.00     0.049 A 
HETATM   15  C   UNL     1     -43.909  57.199 -54.968  1.00  0.00    -0.031 A 
HETATM   16  C   UNL     1     -44.085  57.194 -56.363  1.00  0.00     0.009 A 
HETATM   17  C   UNL     1     -43.164  56.575 -57.198  1.00  0.00     0.001 A 
HETATM   18  C   UNL     1     -42.054  55.946 -56.649  1.00  0.00     0.009 A 
HETATM   19  C   UNL     1     -41.845  55.919 -55.257  1.00  0.00    -0.031 A 
BRANCH  15  20
HETATM   20  C   UNL     1     -44.975  57.881 -54.128  1.00  0.00     0.036 C 
HETATM   21  C   UNL     1     -44.939  59.400 -54.240  1.00  0.00     0.010 C 
ENDBRANCH  15  20
BRANCH  19  22
HETATM   22  C   UNL     1     -40.600  55.202 -54.774  1.00  0.00     0.036 C 
HETATM   23  C   UNL     1     -40.729  53.688 -54.879  1.00  0.00     0.010 C 
ENDBRANCH  19  22
ENDBRANCH   1  14
TORSDOF 3
ENDMDL
MODEL 4
REMARK VINA RESULT:      -5.9      3.318      4.975
REMARK  3 active torsions:
REMARK  status: ('A' for Active; 'I' for Inactive)
REMARK    1  A    between atoms: C_2  and  C_3 
REMARK    2  A    between atoms: C_4  and  N_5 
REMARK    3  A    between atoms: C_18  and  C_19 
ROOT
HETATM    1  N   UNL     1     -42.619  56.686 -55.828  1.00  0.00    -0.320 N 
HETATM    2  C   UNL     1     -43.174  55.777 -56.787  1.00  0.00     0.141 C 
HETATM    3  N   UNL     1     -43.381  54.518 -56.522  1.00  0.00    -0.380 N 
HETATM    4  H   UNL     1     -43.138  54.165 -55.607  1.00  0.00     0.158 HD
HETATM    5  H   UNL     1     -43.775  53.915 -57.230  1.00  0.00     0.158 HD
HETATM    6  S   UNL     1     -43.537  56.523 -58.304  1.00  0.00    -0.086 SA
HETATM    7  C   UNL     1     -42.601  58.006 -57.809  1.00  0.00     0.093 C 
HETATM    8  C   UNL     1     -42.814  58.072 -56.280  1.00  0.00     0.121 C 
HETATM    9  C   UNL     1     -42.950  59.385 -58.310  1.00  0.00     0.158 C 
HETATM   10  S   UNL     1     -42.150  60.428 -57.072  1.00  0.00     0.147 S 
HETATM   11  O   UNL     1     -40.871  60.860 -57.591  1.00  0.00    -0.228 OA
HETATM   12  O   UNL     1     -43.137  61.350 -56.553  1.00  0.00    -0.228 OA
HETATM   13  C   UNL     1     -41.858  59.152 -55.834  1.00  0.00     0.167 C 
ENDROOT
BRANCH   1  14
HETATM   14  C   UNL     1     -42.575  56.462 -54.439  1.00  0.00     0.049 A 
HETATM   15  C   UNL     1     -41.445  55.800 -53.891  1.00  0.00    -0.031 A 
HETATM   16  C   UNL     1     -41.425  55.476 -52.523  1.00  0.00     0.009 A 
HETATM   17  C   UNL     1     -42.489  55.807 -51.694  1.00  0.00     0.001 A 
HETATM   18  C   UNL     1     -43.593  56.463 -52.222  1.00  0.00     0.009 A 
HETATM   19  C   UNL     1     -43.659  56.797 -53.588  1.00  0.00    -0.031 A 
BRANCH  15  20
HETATM   20  C   UNL     1     -40.250  55.383 -54.729  1.00  0.00     0.036 C 
HETATM   21  C   UNL     1     -40.206  53.883 -54.998  1.00  0.00     0.010 C 
ENDBRANCH  15  20
BRANCH  19  22
HETATM   22  C   UNL     1     -44.913  57.509 -54.052  1.00  0.00     0.036 C 
HETATM   23  C   UNL     1     -45.024  58.915 -53.472  1.00  0.00     0.010 C 
ENDBRANCH  19  22
ENDBRANCH   1  14
TORSDOF 3
ENDMDL
MODEL 5
REMARK VINA RESULT:      -5.9      1.949      2.755
REMARK  3 active torsions:
REMARK  status: ('A' for Active; 'I' for Inactive)
REMARK    1  A    between atoms: C_2  and  C_3 
REMARK    2  A    between atoms: C_4  and  N_5 
REMARK    3  A    between atoms: C_18  and  C_19 
ROOT
HETATM    1  N   UNL     1     -43.357  56.836 -52.513  1.00  0.00    -0.320 N 
HETATM    2  C   UNL     1     -44.406  57.301 -51.654  1.00  0.00     0.141 C 
HETATM    3  N   UNL     1     -44.778  56.653 -50.588  1.00  0.00    -0.380 N 
HETATM    4  H   UNL     1     -44.313  55.785 -50.355  1.00  0.00     0.158 HD
HETATM    5  H   UNL     1     -45.522  57.020 -50.011  1.00  0.00     0.158 HD
HETATM    6  S   UNL     1     -45.107  58.793 -52.178  1.00  0.00    -0.086 SA
HETATM    7  C   UNL     1     -44.253  58.640 -53.781  1.00  0.00     0.093 C 
HETATM    8  C   UNL     1     -42.938  57.915 -53.421  1.00  0.00     0.121 C 
HETATM    9  C   UNL     1     -43.827  59.843 -54.585  1.00  0.00     0.158 C 
HETATM   10  S   UNL     1     -42.567  59.124 -55.661  1.00  0.00     0.147 S 
HETATM   11  O   UNL     1     -43.171  58.823 -56.940  1.00  0.00    -0.228 OA
HETATM   12  O   UNL     1     -41.360  59.910 -55.530  1.00  0.00    -0.228 OA
HETATM   13  C   UNL     1     -42.337  57.578 -54.765  1.00  0.00     0.167 C 
ENDROOT
BRANCH   1  14
HETATM   14  C   UNL     1     -42.386  55.883 -52.153  1.00  0.00     0.049 A 
HETATM   15  C   UNL     1     -42.423  54.605 -52.770  1.00  0.00    -0.031 A 
HETATM   16  C   UNL     1     -41.526  53.606 -52.353  1.00  0.00     0.009 A 
HETATM   17  C   UNL     1     -40.593  53.853 -51.356  1.00  0.00     0.001 A 
HETATM   18  C   UNL     1     -40.545  55.105 -50.755  1.00  0.00     0.009 A 
HETATM   19  C   UNL     1     -41.431  56.131 -51.134  1.00  0.00    -0.031 A 
BRANCH  15  20
HETATM   20  C   UNL     1     -43.425  54.244 -53.852  1.00  0.00     0.036 C 
HETATM   21  C   UNL     1     -42.771  53.984 -55.205  1.00  0.00     0.010 C 
ENDBRANCH  15  20
BRANCH  19  22
HETATM   22  C   UNL     1     -41.287  57.453 -50.408  1.00  0.00     0.036 C 
HETATM   23  C   UNL     1     -40.235  58.350 -51.049  1.00  0.00     0.010 C 
ENDBRANCH  19  22
ENDBRANCH   1  14
TORSDOF 3
ENDMDL
MODEL 6
REMARK VINA RESULT:      -5.9      2.749      4.746
REMARK  3 active torsions:
REMARK  status: ('A' for Active; 'I' for Inactive)
REMARK    1  A    between atoms: C_2  and  C_3 
REMARK    2  A    between atoms: C_4  and  N_5 
REMARK    3  A    between atoms: C_18  and  C_19 
ROOT
HETATM    1  N   UNL     1     -41.698  57.894 -51.163  1.00  0.00    -0.320 N 
HETATM    2  C   UNL     1     -40.708  58.880 -50.843  1.00  0.00     0.141 C 
HETATM    3  N   UNL     1     -39.437  58.602 -50.775  1.00  0.00    -0.380 N 
HETATM    4  H   UNL     1     -39.134  57.654 -50.952  1.00  0.00     0.158 HD
HETATM    5  H   UNL     1     -38.775  59.330 -50.547  1.00  0.00     0.158 HD
HETATM    6  S   UNL     1     -41.374  60.452 -50.566  1.00  0.00    -0.086 SA
HETATM    7  C   UNL     1     -43.051  59.740 -50.509  1.00  0.00     0.093 C 
HETATM    8  C   UNL     1     -42.972  58.552 -51.493  1.00  0.00     0.121 C 
HETATM    9  C   UNL     1     -44.272  60.517 -50.935  1.00  0.00     0.158 C 
HETATM   10  S   UNL     1     -45.452  59.185 -51.243  1.00  0.00     0.147 S 
HETATM   11  O   UNL     1     -46.291  59.034 -50.074  1.00  0.00    -0.228 OA
HETATM   12  O   UNL     1     -45.988  59.357 -52.575  1.00  0.00    -0.228 OA
HETATM   13  C   UNL     1     -44.275  57.821 -51.276  1.00  0.00     0.167 C 
ENDROOT
BRANCH   1  14
HETATM   14  C   UNL     1     -41.431  56.658 -51.782  1.00  0.00     0.049 A 
HETATM   15  C   UNL     1     -41.269  55.508 -50.967  1.00  0.00    -0.031 A 
HETATM   16  C   UNL     1     -40.903  54.285 -51.556  1.00  0.00     0.009 A 
HETATM   17  C   UNL     1     -40.712  54.180 -52.927  1.00  0.00     0.001 A 
HETATM   18  C   UNL     1     -40.879  55.300 -53.731  1.00  0.00     0.009 A 
HETATM   19  C   UNL     1     -41.234  56.546 -53.182  1.00  0.00    -0.031 A 
BRANCH  15  20
HETATM   20  C   UNL     1     -41.437  55.540 -49.458  1.00  0.00     0.036 C 
HETATM   21  C   UNL     1     -40.649  54.444 -48.750  1.00  0.00     0.010 C 
ENDBRANCH  15  20
BRANCH  19  22
HETATM   22  C   UNL     1     -41.386  57.697 -54.156  1.00  0.00     0.036 C 
HETATM   23  C   UNL     1     -42.503  57.454 -55.164  1.00  0.00     0.010 C 
ENDBRANCH  19  22
ENDBRANCH   1  14
TORSDOF 3
ENDMDL
MODEL 7
REMARK VINA RESULT:      -5.7      2.814      4.009
REMARK  3 active torsions:
REMARK  status: ('A' for Active; 'I' for Inactive)
REMARK    1  A    between atoms: C_2  and  C_3 
REMARK    2  A    between atoms: C_4  and  N_5 
REMARK    3  A    between atoms: C_18  and  C_19 
ROOT
HETATM    1  N   UNL     1     -41.683  58.115 -51.181  1.00  0.00    -0.320 N 
HETATM    2  C   UNL     1     -40.740  59.133 -50.821  1.00  0.00     0.141 C 
HETATM    3  N   UNL     1     -39.462  58.904 -50.729  1.00  0.00    -0.380 N 
HETATM    4  H   UNL     1     -39.117  57.972 -50.915  1.00  0.00     0.158 HD
HETATM    5  H   UNL     1     -38.835  59.653 -50.473  1.00  0.00     0.158 HD
HETATM    6  S   UNL     1     -41.475  60.672 -50.532  1.00  0.00    -0.086 SA
HETATM    7  C   UNL     1     -43.123  59.894 -50.526  1.00  0.00     0.093 C 
HETATM    8  C   UNL     1     -42.975  58.728 -51.528  1.00  0.00     0.121 C 
HETATM    9  C   UNL     1     -44.364  60.630 -50.966  1.00  0.00     0.158 C 
HETATM   10  S   UNL     1     -45.483  59.258 -51.324  1.00  0.00     0.147 S 
HETATM   11  O   UNL     1     -46.341  59.053 -50.177  1.00  0.00    -0.228 OA
HETATM   12  O   UNL     1     -45.996  59.433 -52.665  1.00  0.00    -0.228 OA
HETATM   13  C   UNL     1     -44.252  57.943 -51.353  1.00  0.00     0.167 C 
ENDROOT
BRANCH   1  14
HETATM   14  C   UNL     1     -41.354  56.902 -51.815  1.00  0.00     0.049 A 
HETATM   15  C   UNL     1     -41.202  56.890 -53.226  1.00  0.00    -0.031 A 
HETATM   16  C   UNL     1     -40.972  55.672 -53.890  1.00  0.00     0.009 A 
HETATM   17  C   UNL     1     -40.877  54.480 -53.185  1.00  0.00     0.001 A 
HETATM   18  C   UNL     1     -41.015  54.487 -51.803  1.00  0.00     0.009 A 
HETATM   19  C   UNL     1     -41.256  55.682 -51.099  1.00  0.00    -0.031 A 
BRANCH  15  20
HETATM   20  C   UNL     1     -41.313  58.144 -54.075  1.00  0.00     0.036 C 
HETATM   21  C   UNL     1     -42.350  58.019 -55.186  1.00  0.00     0.010 C 
ENDBRANCH  15  20
BRANCH  19  22
HETATM   22  C   UNL     1     -41.391  55.566 -49.594  1.00  0.00     0.036 C 
HETATM   23  C   UNL     1     -40.497  54.475 -49.018  1.00  0.00     0.010 C 
ENDBRANCH  19  22
ENDBRANCH   1  14
TORSDOF 3
ENDMDL
MODEL 8
REMARK VINA RESULT:      -5.7      3.343      4.890
REMARK  3 active torsions:
REMARK  status: ('A' for Active; 'I' for Inactive)
REMARK    1  A    between atoms: C_2  and  C_3 
REMARK    2  A    between atoms: C_4  and  N_5 
REMARK    3  A    between atoms: C_18  and  C_19 
ROOT
HETATM    1  N   UNL     1     -42.652  56.714 -55.929  1.00  0.00    -0.320 N 
HETATM    2  C   UNL     1     -43.219  55.834 -56.909  1.00  0.00     0.141 C 
HETATM    3  N   UNL     1     -43.429  54.570 -56.677  1.00  0.00    -0.380 N 
HETATM    4  H   UNL     1     -43.182  54.190 -55.774  1.00  0.00     0.158 HD
HETATM    5  H   UNL     1     -43.832  53.988 -57.398  1.00  0.00     0.158 HD
HETATM    6  S   UNL     1     -43.588  56.623 -58.403  1.00  0.00    -0.086 SA
HETATM    7  C   UNL     1     -42.641  58.087 -57.873  1.00  0.00     0.093 C 
HETATM    8  C   UNL     1     -42.843  58.113 -56.342  1.00  0.00     0.121 C 
HETATM    9  C   UNL     1     -42.987  59.481 -58.335  1.00  0.00     0.158 C 
HETATM   10  S   UNL     1     -42.173  60.486 -57.074  1.00  0.00     0.147 S 
HETATM   11  O   UNL     1     -40.895  60.926 -57.590  1.00  0.00    -0.228 OA
HETATM   12  O   UNL     1     -43.151  61.399 -56.523  1.00  0.00    -0.228 OA
HETATM   13  C   UNL     1     -41.879  59.176 -55.873  1.00  0.00     0.167 C 
ENDROOT
BRANCH   1  14
HETATM   14  C   UNL     1     -42.600  56.452 -54.547  1.00  0.00     0.049 A 
HETATM   15  C   UNL     1     -43.676  56.884 -53.730  1.00  0.00    -0.031 A 
HETATM   16  C   UNL     1     -43.598  56.722 -52.335  1.00  0.00     0.009 A 
HETATM   17  C   UNL     1     -42.489  56.131 -51.745  1.00  0.00     0.001 A 
HETATM   18  C   UNL     1     -41.437  55.697 -52.540  1.00  0.00     0.009 A 
HETATM   19  C   UNL     1     -41.469  55.849 -53.939  1.00  0.00    -0.031 A 
BRANCH  15  20
HETATM   20  C   UNL     1     -44.915  57.559 -54.291  1.00  0.00     0.036 C 
HETATM   21  C   UNL     1     -45.126  58.965 -53.741  1.00  0.00     0.010 C 
ENDBRANCH  15  20
BRANCH  19  22
HETATM   22  C   UNL     1     -40.264  55.339 -54.704  1.00  0.00     0.036 C 
HETATM   23  C   UNL     1     -40.313  53.831 -54.918  1.00  0.00     0.010 C 
ENDBRANCH  19  22
ENDBRANCH   1  14
TORSDOF 3
ENDMDL
MODEL 9
REMARK VINA RESULT:      -5.7      3.091      4.991
REMARK  3 active torsions:
REMARK  status: ('A' for Active; 'I' for Inactive)
REMARK    1  A    between atoms: C_2  and  C_3 
REMARK    2  A    between atoms: C_4  and  N_5 
REMARK    3  A    between atoms: C_18  and  C_19 
ROOT
HETATM    1  N   UNL     1     -42.591  57.678 -52.574  1.00  0.00    -0.320 N 
HETATM    2  C   UNL     1     -41.376  58.439 -52.530  1.00  0.00     0.141 C 
HETATM    3  N   UNL     1     -40.262  58.008 -53.048  1.00  0.00    -0.380 N 
HETATM    4  H   UNL     1     -40.247  57.101 -53.495  1.00  0.00     0.158 HD
HETATM    5  H   UNL     1     -39.430  58.579 -52.994  1.00  0.00     0.158 HD
HETATM    6  S   UNL     1     -41.553  59.964 -51.734  1.00  0.00    -0.086 SA
HETATM    7  C   UNL     1     -43.187  59.456 -51.107  1.00  0.00     0.093 C 
HETATM    8  C   UNL     1     -43.733  58.538 -52.223  1.00  0.00     0.121 C 
HETATM    9  C   UNL     1     -44.294  60.448 -50.844  1.00  0.00     0.158 C 
HETATM   10  S   UNL     1     -45.745  59.374 -50.857  1.00  0.00     0.147 S 
HETATM   11  O   UNL     1     -46.086  59.044 -49.491  1.00  0.00    -0.228 OA
HETATM   12  O   UNL     1     -46.703  59.920 -51.793  1.00  0.00    -0.228 OA
HETATM   13  C   UNL     1     -44.973  57.932 -51.612  1.00  0.00     0.167 C 
ENDROOT
BRANCH   1  14
HETATM   14  C   UNL     1     -42.838  56.605 -53.451  1.00  0.00     0.049 A 
HETATM   15  C   UNL     1     -42.757  55.281 -52.947  1.00  0.00    -0.031 A 
HETATM   16  C   UNL     1     -42.900  54.193 -53.826  1.00  0.00     0.009 A 
HETATM   17  C   UNL     1     -43.134  54.394 -55.180  1.00  0.00     0.001 A 
HETATM   18  C   UNL     1     -43.225  55.688 -55.677  1.00  0.00     0.009 A 
HETATM   19  C   UNL     1     -43.077  56.805 -54.834  1.00  0.00    -0.031 A 
BRANCH  15  20
HETATM   20  C   UNL     1     -42.481  54.972 -51.486  1.00  0.00     0.036 C 
HETATM   21  C   UNL     1     -43.719  54.494 -50.736  1.00  0.00     0.010 C 
ENDBRANCH  15  20
BRANCH  19  22
HETATM   22  C   UNL     1     -43.193  58.167 -55.488  1.00  0.00     0.036 C 
HETATM   23  C   UNL     1     -42.788  58.137 -56.957  1.00  0.00     0.010 C 
ENDBRANCH  19  22
ENDBRANCH   1  14
TORSDOF 3
ENDMDL
MODEL 10
REMARK VINA RESULT:      -5.7      4.237      6.100
REMARK  3 active torsions:
REMARK  status: ('A' for Active; 'I' for Inactive)
REMARK    1  A    between atoms: C_2  and  C_3 
REMARK    2  A    between atoms: C_4  and  N_5 
REMARK    3  A    between atoms: C_18  and  C_19 
ROOT
HETATM    1  N   UNL     1     -43.933  57.729 -55.982  1.00  0.00    -0.320 N 
HETATM    2  C   UNL     1     -45.164  58.436 -55.780  1.00  0.00     0.141 C 
HETATM    3  N   UNL     1     -45.596  58.768 -54.596  1.00  0.00    -0.380 N 
HETATM    4  H   UNL     1     -45.046  58.516 -53.786  1.00  0.00     0.158 HD
HETATM    5  H   UNL     1     -46.469  59.267 -54.503  1.00  0.00     0.158 HD
HETATM    6  S   UNL     1     -45.994  58.796 -57.253  1.00  0.00    -0.086 SA
HETATM    7  C   UNL     1     -44.884  57.673 -58.163  1.00  0.00     0.093 C 
HETATM    8  C   UNL     1     -43.547  57.792 -57.400  1.00  0.00     0.121 C 
HETATM    9  C   UNL     1     -44.526  57.892 -59.612  1.00  0.00     0.158 C 
HETATM   10  S   UNL     1     -43.017  56.911 -59.758  1.00  0.00     0.147 S 
HETATM   11  O   UNL     1     -43.357  55.622 -60.319  1.00  0.00    -0.228 OA
HETATM   12  O   UNL     1     -41.981  57.757 -60.310  1.00  0.00    -0.228 OA
HETATM   13  C   UNL     1     -42.697  56.697 -57.998  1.00  0.00     0.167 C 
ENDROOT
BRANCH   1  14
HETATM   14  C   UNL     1     -42.896  57.633 -55.034  1.00  0.00     0.049 A 
HETATM   15  C   UNL     1     -42.747  56.423 -54.308  1.00  0.00    -0.031 A 
HETATM   16  C   UNL     1     -41.783  56.340 -53.287  1.00  0.00     0.009 A 
HETATM   17  C   UNL     1     -40.963  57.420 -52.988  1.00  0.00     0.001 A 
HETATM   18  C   UNL     1     -41.098  58.604 -53.703  1.00  0.00     0.009 A 
HETATM   19  C   UNL     1     -42.057  58.734 -54.725  1.00  0.00    -0.031 A 
BRANCH  15  20
HETATM   20  C   UNL     1     -43.616  55.203 -54.555  1.00  0.00     0.036 C 
HETATM   21  C   UNL     1     -42.884  54.094 -55.301  1.00  0.00     0.010 C 
ENDBRANCH  15  20
BRANCH  19  22
HETATM   22  C   UNL     1     -42.114  60.072 -55.434  1.00  0.00     0.036 C 
HETATM   23  C   UNL     1     -42.824  61.134 -54.603  1.00  0.00     0.010 C 
ENDBRANCH  19  22
ENDBRANCH   1  14
TORSDOF 3
ENDMDL
