MODEL 1
REMARK VINA RESULT:      -9.1      0.000      0.000
REMARK  6 active torsions:
REMARK  status: ('A' for Active; 'I' for Inactive)
REMARK    1  A    between atoms: C_5  and  C_6 
REMARK    2  A    between atoms: C_12  and  C_13 
REMARK       I    between atoms: C_13  and  N_14 
REMARK    3  A    between atoms: N_14  and  C_15 
REMARK    4  A    between atoms: C_18  and  C_19 
REMARK    5  A    between atoms: C_19  and  O_20 
REMARK    6  A    between atoms: C_25  and  C_26 
ROOT
HETATM    1  C   UNL     1     -41.073  56.618 -53.137  1.00  0.00     0.097 C 
HETATM    2  N   UNL     1     -42.079  57.204 -54.052  1.00  0.00    -0.268 NA
HETATM    3  C   UNL     1     -42.406  58.520 -53.872  1.00  0.00     0.118 A 
HETATM    4  N   UNL     1     -42.107  59.161 -52.689  1.00  0.00    -0.245 N 
HETATM    5  N   UNL     1     -42.572  60.414 -52.614  1.00  0.00    -0.182 NA
HETATM    6  C   UNL     1     -43.123  60.607 -53.814  1.00  0.00     0.159 A 
HETATM    7  C   UNL     1     -43.072  59.456 -54.643  1.00  0.00     0.091 A 
HETATM    8  C   UNL     1     -41.506  58.530 -51.530  1.00  0.00     0.221 C 
HETATM    9  C   UNL     1     -41.475  56.998 -51.699  1.00  0.00     0.061 C 
HETATM   10  H   UNL     1     -42.865  56.561 -54.182  1.00  0.00     0.130 HD
ENDROOT
BRANCH   7  11
HETATM   11  C   UNL     1     -43.638  59.376 -55.982  1.00  0.00     0.261 C 
HETATM   12  N   UNL     1     -44.125  58.130 -56.326  1.00  0.00    -0.323 N 
HETATM   13  H   UNL     1     -43.945  57.393 -55.654  1.00  0.00     0.169 HD
HETATM   14  O   UNL     1     -43.678  60.378 -56.686  1.00  0.00    -0.267 OA
BRANCH  12  15
HETATM   15  C   UNL     1     -44.909  57.804 -57.454  1.00  0.00     0.035 A 
HETATM   16  C   UNL     1     -46.249  58.163 -57.601  1.00  0.00     0.030 A 
HETATM   17  C   UNL     1     -46.993  57.739 -58.709  1.00  0.00     0.012 A 
HETATM   18  C   UNL     1     -46.416  56.936 -59.698  1.00  0.00    -0.030 A 
HETATM   19  C   UNL     1     -45.057  56.607 -59.563  1.00  0.00     0.012 A 
HETATM   20  C   UNL     1     -44.311  57.039 -58.459  1.00  0.00     0.030 A 
BRANCH  18  21
HETATM   21  C   UNL     1     -47.182  56.409 -60.896  1.00  0.00     0.147 C 
HETATM   22  C   UNL     1     -47.997  57.429 -61.686  1.00  0.00     0.044 C 
BRANCH  21  23
HETATM   23  O   UNL     1     -46.270  55.790 -61.804  1.00  0.00    -0.391 OA
HETATM   24  H   UNL     1     -46.056  54.911 -61.446  1.00  0.00     0.210 HD
ENDBRANCH  21  23
ENDBRANCH  18  21
ENDBRANCH  12  15
ENDBRANCH   7  11
BRANCH   1  25
HETATM   25  C   UNL     1     -40.897  55.131 -53.415  1.00  0.00    -0.040 A 
HETATM   26  C   UNL     1     -40.527  54.708 -54.705  1.00  0.00     0.009 A 
HETATM   27  C   UNL     1     -40.243  53.367 -54.979  1.00  0.00     0.007 A 
HETATM   28  C   UNL     1     -40.308  52.407 -53.965  1.00  0.00    -0.062 A 
HETATM   29  C   UNL     1     -39.921  50.984 -54.237  1.00  0.00     0.048 C 
HETATM   30  C   UNL     1     -40.659  52.815 -52.676  1.00  0.00     0.007 A 
HETATM   31  C   UNL     1     -40.954  54.156 -52.406  1.00  0.00     0.009 A 
ENDBRANCH   1  25
BRANCH   8  32
HETATM   32  C   UNL     1     -40.125  59.098 -51.279  1.00  0.00     0.409 C 
HETATM   33  F   UNL     1     -40.136  60.235 -50.554  1.00  0.00    -0.169 F 
HETATM   34  F   UNL     1     -39.387  58.201 -50.570  1.00  0.00    -0.169 F 
HETATM   35  F   UNL     1     -39.443  59.336 -52.420  1.00  0.00    -0.169 F 
ENDBRANCH   8  32
TORSDOF 6
ENDMDL
MODEL 2
REMARK VINA RESULT:      -9.0      3.509      4.235
REMARK  6 active torsions:
REMARK  status: ('A' for Active; 'I' for Inactive)
REMARK    1  A    between atoms: C_5  and  C_6 
REMARK    2  A    between atoms: C_12  and  C_13 
REMARK       I    between atoms: C_13  and  N_14 
REMARK    3  A    between atoms: N_14  and  C_15 
REMARK    4  A    between atoms: C_18  and  C_19 
REMARK    5  A    between atoms: C_19  and  O_20 
REMARK    6  A    between atoms: C_25  and  C_26 
ROOT
HETATM    1  C   UNL     1     -41.222  56.751 -53.054  1.00  0.00     0.097 C 
HETATM    2  N   UNL     1     -41.646  57.498 -54.260  1.00  0.00    -0.268 NA
HETATM    3  C   UNL     1     -41.959  58.821 -54.105  1.00  0.00     0.118 A 
HETATM    4  N   UNL     1     -42.228  59.337 -52.856  1.00  0.00    -0.245 N 
HETATM    5  N   UNL     1     -42.615  60.618 -52.865  1.00  0.00    -0.182 NA
HETATM    6  C   UNL     1     -42.521  60.955 -54.153  1.00  0.00     0.159 A 
HETATM    7  C   UNL     1     -42.136  59.873 -54.987  1.00  0.00     0.091 A 
HETATM    8  C   UNL     1     -42.278  58.564 -51.630  1.00  0.00     0.221 C 
HETATM    9  C   UNL     1     -42.241  57.053 -51.938  1.00  0.00     0.061 C 
HETATM   10  H   UNL     1     -42.305  56.944 -54.814  1.00  0.00     0.130 HD
ENDROOT
BRANCH   7  11
HETATM   11  C   UNL     1     -42.002  59.951 -56.435  1.00  0.00     0.261 C 
HETATM   12  N   UNL     1     -41.798  61.226 -56.924  1.00  0.00    -0.323 N 
HETATM   13  H   UNL     1     -41.865  61.970 -56.239  1.00  0.00     0.169 HD
HETATM   14  O   UNL     1     -42.046  58.926 -57.105  1.00  0.00    -0.267 OA
BRANCH  12  15
HETATM   15  C   UNL     1     -41.427  61.584 -58.238  1.00  0.00     0.035 A 
HETATM   16  C   UNL     1     -40.235  62.233 -58.562  1.00  0.00     0.030 A 
HETATM   17  C   UNL     1     -39.964  62.633 -59.876  1.00  0.00     0.012 A 
HETATM   18  C   UNL     1     -40.884  62.399 -60.903  1.00  0.00    -0.030 A 
HETATM   19  C   UNL     1     -42.067  61.715 -60.579  1.00  0.00     0.012 A 
HETATM   20  C   UNL     1     -42.334  61.307 -59.265  1.00  0.00     0.030 A 
BRANCH  18  21
HETATM   21  C   UNL     1     -40.667  62.849 -62.335  1.00  0.00     0.147 C 
HETATM   22  C   UNL     1     -39.235  63.202 -62.728  1.00  0.00     0.044 C 
BRANCH  21  23
HETATM   23  O   UNL     1     -41.118  61.826 -63.224  1.00  0.00    -0.391 OA
HETATM   24  H   UNL     1     -42.059  61.992 -63.405  1.00  0.00     0.210 HD
ENDBRANCH  21  23
ENDBRANCH  18  21
ENDBRANCH  12  15
ENDBRANCH   7  11
BRANCH   1  25
HETATM   25  C   UNL     1     -41.004  55.280 -53.384  1.00  0.00    -0.040 A 
HETATM   26  C   UNL     1     -40.551  54.920 -54.666  1.00  0.00     0.009 A 
HETATM   27  C   UNL     1     -40.227  53.596 -54.979  1.00  0.00     0.007 A 
HETATM   28  C   UNL     1     -40.334  52.593 -54.013  1.00  0.00    -0.062 A 
HETATM   29  C   UNL     1     -39.906  51.189 -54.321  1.00  0.00     0.048 C 
HETATM   30  C   UNL     1     -40.767  52.939 -52.731  1.00  0.00     0.007 A 
HETATM   31  C   UNL     1     -41.102  54.261 -52.422  1.00  0.00     0.009 A 
ENDBRANCH   1  25
BRANCH   8  32
HETATM   32  C   UNL     1     -41.157  58.978 -50.701  1.00  0.00     0.409 C 
HETATM   33  F   UNL     1     -41.513  59.943 -49.829  1.00  0.00    -0.169 F 
HETATM   34  F   UNL     1     -40.772  57.911 -49.950  1.00  0.00    -0.169 F 
HETATM   35  F   UNL     1     -40.057  59.396 -51.363  1.00  0.00    -0.169 F 
ENDBRANCH   8  32
TORSDOF 6
ENDMDL
MODEL 3
REMARK VINA RESULT:      -8.9      3.422      7.658
REMARK  6 active torsions:
REMARK  status: ('A' for Active; 'I' for Inactive)
REMARK    1  A    between atoms: C_5  and  C_6 
REMARK    2  A    between atoms: C_12  and  C_13 
REMARK       I    between atoms: C_13  and  N_14 
REMARK    3  A    between atoms: N_14  and  C_15 
REMARK    4  A    between atoms: C_18  and  C_19 
REMARK    5  A    between atoms: C_19  and  O_20 
REMARK    6  A    between atoms: C_25  and  C_26 
ROOT
HETATM    1  C   UNL     1     -43.374  58.148 -56.823  1.00  0.00     0.097 C 
HETATM    2  N   UNL     1     -42.647  57.385 -55.783  1.00  0.00    -0.268 NA
HETATM    3  C   UNL     1     -42.093  58.093 -54.752  1.00  0.00     0.118 A 
HETATM    4  N   UNL     1     -41.896  59.453 -54.862  1.00  0.00    -0.245 N 
HETATM    5  N   UNL     1     -41.256  59.998 -53.819  1.00  0.00    -0.182 NA
HETATM    6  C   UNL     1     -41.104  58.969 -52.983  1.00  0.00     0.159 A 
HETATM    7  C   UNL     1     -41.586  57.743 -53.513  1.00  0.00     0.091 A 
HETATM    8  C   UNL     1     -42.171  60.240 -56.047  1.00  0.00     0.221 C 
HETATM    9  C   UNL     1     -42.475  59.324 -57.250  1.00  0.00     0.061 C 
HETATM   10  H   UNL     1     -42.046  56.674 -56.211  1.00  0.00     0.130 HD
ENDROOT
BRANCH   7  11
HETATM   11  C   UNL     1     -41.504  56.459 -52.832  1.00  0.00     0.261 C 
HETATM   12  N   UNL     1     -41.064  55.416 -53.624  1.00  0.00    -0.323 N 
HETATM   13  H   UNL     1     -40.946  55.637 -54.606  1.00  0.00     0.169 HD
HETATM   14  O   UNL     1     -41.787  56.383 -51.642  1.00  0.00    -0.267 OA
BRANCH  12  15
HETATM   15  C   UNL     1     -40.687  54.125 -53.198  1.00  0.00     0.035 A 
HETATM   16  C   UNL     1     -40.388  53.798 -51.874  1.00  0.00     0.030 A 
HETATM   17  C   UNL     1     -39.941  52.516 -51.530  1.00  0.00     0.012 A 
HETATM   18  C   UNL     1     -39.774  51.526 -52.505  1.00  0.00    -0.030 A 
HETATM   19  C   UNL     1     -40.110  51.851 -53.830  1.00  0.00     0.012 A 
HETATM   20  C   UNL     1     -40.565  53.130 -54.172  1.00  0.00     0.030 A 
BRANCH  18  21
HETATM   21  C   UNL     1     -39.251  50.136 -52.201  1.00  0.00     0.147 C 
HETATM   22  C   UNL     1     -39.713  49.507 -50.889  1.00  0.00     0.044 C 
BRANCH  21  23
HETATM   23  O   UNL     1     -39.622  49.250 -53.258  1.00  0.00    -0.391 OA
HETATM   24  H   UNL     1     -40.110  48.511 -52.859  1.00  0.00     0.210 HD
ENDBRANCH  21  23
ENDBRANCH  18  21
ENDBRANCH  12  15
ENDBRANCH   7  11
BRANCH   1  25
HETATM   25  C   UNL     1     -43.843  57.221 -57.938  1.00  0.00    -0.040 A 
HETATM   26  C   UNL     1     -44.998  57.550 -58.670  1.00  0.00     0.009 A 
HETATM   27  C   UNL     1     -45.402  56.793 -59.774  1.00  0.00     0.007 A 
HETATM   28  C   UNL     1     -44.652  55.689 -60.188  1.00  0.00    -0.062 A 
HETATM   29  C   UNL     1     -45.035  54.927 -61.421  1.00  0.00     0.048 C 
HETATM   30  C   UNL     1     -43.494  55.359 -59.480  1.00  0.00     0.007 A 
HETATM   31  C   UNL     1     -43.098  56.111 -58.369  1.00  0.00     0.009 A 
ENDBRANCH   1  25
BRANCH   8  32
HETATM   32  C   UNL     1     -43.299  61.215 -55.781  1.00  0.00     0.409 C 
HETATM   33  F   UNL     1     -44.017  61.518 -56.882  1.00  0.00    -0.169 F 
HETATM   34  F   UNL     1     -44.174  60.666 -54.896  1.00  0.00    -0.169 F 
HETATM   35  F   UNL     1     -42.871  62.370 -55.229  1.00  0.00    -0.169 F 
ENDBRANCH   8  32
TORSDOF 6
ENDMDL
MODEL 4
REMARK VINA RESULT:      -8.4      3.344      7.440
REMARK  6 active torsions:
REMARK  status: ('A' for Active; 'I' for Inactive)
REMARK    1  A    between atoms: C_5  and  C_6 
REMARK    2  A    between atoms: C_12  and  C_13 
REMARK       I    between atoms: C_13  and  N_14 
REMARK    3  A    between atoms: N_14  and  C_15 
REMARK    4  A    between atoms: C_18  and  C_19 
REMARK    5  A    between atoms: C_19  and  O_20 
REMARK    6  A    between atoms: C_25  and  C_26 
ROOT
HETATM    1  C   UNL     1     -43.562  58.391 -56.488  1.00  0.00     0.097 C 
HETATM    2  N   UNL     1     -42.668  57.671 -55.553  1.00  0.00    -0.268 NA
HETATM    3  C   UNL     1     -42.234  58.350 -54.447  1.00  0.00     0.118 A 
HETATM    4  N   UNL     1     -42.313  59.724 -54.392  1.00  0.00    -0.245 N 
HETATM    5  N   UNL     1     -41.763  60.260 -53.295  1.00  0.00    -0.182 NA
HETATM    6  C   UNL     1     -41.385  59.190 -52.591  1.00  0.00     0.159 A 
HETATM    7  C   UNL     1     -41.631  57.964 -53.263  1.00  0.00     0.091 A 
HETATM    8  C   UNL     1     -42.775  60.575 -55.471  1.00  0.00     0.221 C 
HETATM    9  C   UNL     1     -42.928  59.766 -56.774  1.00  0.00     0.061 C 
HETATM   10  H   UNL     1     -41.952  57.151 -56.068  1.00  0.00     0.130 HD
ENDROOT
BRANCH   7  11
HETATM   11  C   UNL     1     -41.275  56.651 -52.744  1.00  0.00     0.261 C 
HETATM   12  N   UNL     1     -41.233  55.650 -53.695  1.00  0.00    -0.323 N 
HETATM   13  H   UNL     1     -41.549  55.917 -54.620  1.00  0.00     0.169 HD
HETATM   14  O   UNL     1     -41.016  56.519 -51.553  1.00  0.00    -0.267 OA
BRANCH  12  15
HETATM   15  C   UNL     1     -40.722  54.345 -53.533  1.00  0.00     0.035 A 
HETATM   16  C   UNL     1     -40.435  53.484 -54.593  1.00  0.00     0.030 A 
HETATM   17  C   UNL     1     -40.006  52.171 -54.362  1.00  0.00     0.012 A 
HETATM   18  C   UNL     1     -39.859  51.681 -53.060  1.00  0.00    -0.030 A 
HETATM   19  C   UNL     1     -40.115  52.563 -51.997  1.00  0.00     0.012 A 
HETATM   20  C   UNL     1     -40.535  53.879 -52.229  1.00  0.00     0.030 A 
BRANCH  18  21
HETATM   21  C   UNL     1     -39.443  50.257 -52.747  1.00  0.00     0.147 C 
HETATM   22  C   UNL     1     -39.768  49.745 -51.347  1.00  0.00     0.044 C 
BRANCH  21  23
HETATM   23  O   UNL     1     -40.055  49.370 -53.684  1.00  0.00    -0.391 OA
HETATM   24  H   UNL     1     -39.835  49.691 -54.575  1.00  0.00     0.210 HD
ENDBRANCH  21  23
ENDBRANCH  18  21
ENDBRANCH  12  15
ENDBRANCH   7  11
BRANCH   1  25
HETATM   25  C   UNL     1     -43.872  57.528 -57.705  1.00  0.00    -0.040 A 
HETATM   26  C   UNL     1     -43.131  56.352 -57.925  1.00  0.00     0.009 A 
HETATM   27  C   UNL     1     -43.454  55.470 -58.961  1.00  0.00     0.007 A 
HETATM   28  C   UNL     1     -44.539  55.731 -59.802  1.00  0.00    -0.062 A 
HETATM   29  C   UNL     1     -44.938  54.745 -60.858  1.00  0.00     0.048 C 
HETATM   30  C   UNL     1     -45.293  56.887 -59.585  1.00  0.00     0.007 A 
HETATM   31  C   UNL     1     -44.962  57.774 -58.556  1.00  0.00     0.009 A 
ENDBRANCH   1  25
BRANCH   8  32
HETATM   32  C   UNL     1     -44.065  61.266 -55.081  1.00  0.00     0.409 C 
HETATM   33  F   UNL     1     -44.886  61.499 -56.125  1.00  0.00    -0.169 F 
HETATM   34  F   UNL     1     -44.760  60.476 -54.219  1.00  0.00    -0.169 F 
HETATM   35  F   UNL     1     -43.858  62.438 -54.443  1.00  0.00    -0.169 F 
ENDBRANCH   8  32
TORSDOF 6
ENDMDL
MODEL 5
REMARK VINA RESULT:      -8.3      3.364      7.583
REMARK  6 active torsions:
REMARK  status: ('A' for Active; 'I' for Inactive)
REMARK    1  A    between atoms: C_5  and  C_6 
REMARK    2  A    between atoms: C_12  and  C_13 
REMARK       I    between atoms: C_13  and  N_14 
REMARK    3  A    between atoms: N_14  and  C_15 
REMARK    4  A    between atoms: C_18  and  C_19 
REMARK    5  A    between atoms: C_19  and  O_20 
REMARK    6  A    between atoms: C_25  and  C_26 
ROOT
HETATM    1  C   UNL     1     -45.080  58.672 -55.471  1.00  0.00     0.097 C 
HETATM    2  N   UNL     1     -44.239  57.680 -54.762  1.00  0.00    -0.268 NA
HETATM    3  C   UNL     1     -43.793  58.010 -53.512  1.00  0.00     0.118 A 
HETATM    4  N   UNL     1     -43.804  59.321 -53.086  1.00  0.00    -0.245 N 
HETATM    5  N   UNL     1     -43.248  59.510 -51.883  1.00  0.00    -0.182 NA
HETATM    6  C   UNL     1     -42.936  58.272 -51.494  1.00  0.00     0.159 A 
HETATM    7  C   UNL     1     -43.231  57.288 -52.474  1.00  0.00     0.091 A 
HETATM    8  C   UNL     1     -44.204  60.455 -53.896  1.00  0.00     0.221 C 
HETATM    9  C   UNL     1     -44.373  60.037 -55.371  1.00  0.00     0.061 C 
HETATM   10  H   UNL     1     -43.541  57.281 -55.396  1.00  0.00     0.130 HD
ENDROOT
BRANCH   7  11
HETATM   11  C   UNL     1     -42.951  55.866 -52.329  1.00  0.00     0.261 C 
HETATM   12  N   UNL     1     -42.088  55.351 -53.277  1.00  0.00    -0.323 N 
HETATM   13  H   UNL     1     -41.829  55.990 -54.020  1.00  0.00     0.169 HD
HETATM   14  O   UNL     1     -43.448  55.241 -51.399  1.00  0.00    -0.267 OA
BRANCH  12  15
HETATM   15  C   UNL     1     -41.475  54.080 -53.268  1.00  0.00     0.035 A 
HETATM   16  C   UNL     1     -40.616  53.637 -52.262  1.00  0.00     0.030 A 
HETATM   17  C   UNL     1     -39.976  52.395 -52.353  1.00  0.00     0.012 A 
HETATM   18  C   UNL     1     -40.174  51.563 -53.461  1.00  0.00    -0.030 A 
HETATM   19  C   UNL     1     -41.068  51.998 -54.453  1.00  0.00     0.012 A 
HETATM   20  C   UNL     1     -41.715  53.237 -54.357  1.00  0.00     0.030 A 
BRANCH  18  21
HETATM   21  C   UNL     1     -39.475  50.229 -53.638  1.00  0.00     0.147 C 
HETATM   22  C   UNL     1     -39.499  49.285 -52.439  1.00  0.00     0.044 C 
BRANCH  21  23
HETATM   23  O   UNL     1     -40.054  49.537 -54.744  1.00  0.00    -0.391 OA
HETATM   24  H   UNL     1     -39.577  49.818 -55.544  1.00  0.00     0.210 HD
ENDBRANCH  21  23
ENDBRANCH  18  21
ENDBRANCH  12  15
ENDBRANCH   7  11
BRANCH   1  25
HETATM   25  C   UNL     1     -45.410  58.187 -56.877  1.00  0.00    -0.040 A 
HETATM   26  C   UNL     1     -44.413  57.555 -57.642  1.00  0.00     0.009 A 
HETATM   27  C   UNL     1     -44.699  56.993 -58.890  1.00  0.00     0.007 A 
HETATM   28  C   UNL     1     -45.997  57.034 -59.405  1.00  0.00    -0.062 A 
HETATM   29  C   UNL     1     -46.323  56.357 -60.703  1.00  0.00     0.048 C 
HETATM   30  C   UNL     1     -47.000  57.644 -58.649  1.00  0.00     0.007 A 
HETATM   31  C   UNL     1     -46.711  58.217 -57.406  1.00  0.00     0.009 A 
ENDBRANCH   1  25
BRANCH   8  32
HETATM   32  C   UNL     1     -45.464  61.082 -53.339  1.00  0.00     0.409 C 
HETATM   33  F   UNL     1     -45.226  62.119 -52.510  1.00  0.00    -0.169 F 
HETATM   34  F   UNL     1     -46.215  61.576 -54.360  1.00  0.00    -0.169 F 
HETATM   35  F   UNL     1     -46.244  60.194 -52.686  1.00  0.00    -0.169 F 
ENDBRANCH   8  32
TORSDOF 6
ENDMDL
MODEL 6
REMARK VINA RESULT:      -8.2      1.913      2.169
REMARK  6 active torsions:
REMARK  status: ('A' for Active; 'I' for Inactive)
REMARK    1  A    between atoms: C_5  and  C_6 
REMARK    2  A    between atoms: C_12  and  C_13 
REMARK       I    between atoms: C_13  and  N_14 
REMARK    3  A    between atoms: N_14  and  C_15 
REMARK    4  A    between atoms: C_18  and  C_19 
REMARK    5  A    between atoms: C_19  and  O_20 
REMARK    6  A    between atoms: C_25  and  C_26 
ROOT
HETATM    1  C   UNL     1     -41.317  55.103 -52.585  1.00  0.00     0.097 C 
HETATM    2  N   UNL     1     -42.366  55.544 -53.534  1.00  0.00    -0.268 NA
HETATM    3  C   UNL     1     -42.910  56.784 -53.341  1.00  0.00     0.118 A 
HETATM    4  N   UNL     1     -42.770  57.431 -52.132  1.00  0.00    -0.245 N 
HETATM    5  N   UNL     1     -43.436  58.590 -52.052  1.00  0.00    -0.182 NA
HETATM    6  C   UNL     1     -43.959  58.725 -53.272  1.00  0.00     0.159 A 
HETATM    7  C   UNL     1     -43.687  57.621 -54.122  1.00  0.00     0.091 A 
HETATM    8  C   UNL     1     -42.124  56.873 -50.960  1.00  0.00     0.221 C 
HETATM    9  C   UNL     1     -41.837  55.371 -51.160  1.00  0.00     0.061 C 
HETATM   10  H   UNL     1     -43.031  54.786 -53.713  1.00  0.00     0.130 HD
ENDROOT
BRANCH   7  11
HETATM   11  C   UNL     1     -44.175  57.489 -55.487  1.00  0.00     0.261 C 
HETATM   12  N   UNL     1     -45.167  58.386 -55.832  1.00  0.00    -0.323 N 
HETATM   13  H   UNL     1     -45.512  58.964 -55.074  1.00  0.00     0.169 HD
HETATM   14  O   UNL     1     -43.682  56.648 -56.230  1.00  0.00    -0.267 OA
BRANCH  12  15
HETATM   15  C   UNL     1     -45.676  58.636 -57.124  1.00  0.00     0.035 A 
HETATM   16  C   UNL     1     -46.939  58.228 -57.556  1.00  0.00     0.030 A 
HETATM   17  C   UNL     1     -47.353  58.437 -58.877  1.00  0.00     0.012 A 
HETATM   18  C   UNL     1     -46.509  59.055 -59.806  1.00  0.00    -0.030 A 
HETATM   19  C   UNL     1     -45.253  59.496 -59.357  1.00  0.00     0.012 A 
HETATM   20  C   UNL     1     -44.844  59.295 -58.033  1.00  0.00     0.030 A 
BRANCH  18  21
HETATM   21  C   UNL     1     -46.884  59.267 -61.260  1.00  0.00     0.147 C 
HETATM   22  C   UNL     1     -48.242  59.911 -61.526  1.00  0.00     0.044 C 
BRANCH  21  23
HETATM   23  O   UNL     1     -45.891  60.080 -61.889  1.00  0.00    -0.391 OA
HETATM   24  H   UNL     1     -45.682  60.807 -61.279  1.00  0.00     0.210 HD
ENDBRANCH  21  23
ENDBRANCH  18  21
ENDBRANCH  12  15
ENDBRANCH   7  11
BRANCH   1  25
HETATM   25  C   UNL     1     -40.890  53.672 -52.887  1.00  0.00    -0.040 A 
HETATM   26  C   UNL     1     -41.187  53.112 -54.143  1.00  0.00     0.009 A 
HETATM   27  C   UNL     1     -40.716  51.847 -54.506  1.00  0.00     0.007 A 
HETATM   28  C   UNL     1     -39.921  51.107 -53.627  1.00  0.00    -0.062 A 
HETATM   29  C   UNL     1     -39.345  49.788 -54.047  1.00  0.00     0.048 C 
HETATM   30  C   UNL     1     -39.605  51.657 -52.383  1.00  0.00     0.007 A 
HETATM   31  C   UNL     1     -40.086  52.918 -52.016  1.00  0.00     0.009 A 
ENDBRANCH   1  25
BRANCH   8  32
HETATM   32  C   UNL     1     -40.865  57.649 -50.633  1.00  0.00     0.409 C 
HETATM   33  F   UNL     1     -39.883  56.885 -50.115  1.00  0.00    -0.169 F 
HETATM   34  F   UNL     1     -40.361  58.197 -51.772  1.00  0.00    -0.169 F 
HETATM   35  F   UNL     1     -41.090  58.675 -49.784  1.00  0.00    -0.169 F 
ENDBRANCH   8  32
TORSDOF 6
ENDMDL
MODEL 7
REMARK VINA RESULT:      -8.1      2.816      3.420
REMARK  6 active torsions:
REMARK  status: ('A' for Active; 'I' for Inactive)
REMARK    1  A    between atoms: C_5  and  C_6 
REMARK    2  A    between atoms: C_12  and  C_13 
REMARK       I    between atoms: C_13  and  N_14 
REMARK    3  A    between atoms: N_14  and  C_15 
REMARK    4  A    between atoms: C_18  and  C_19 
REMARK    5  A    between atoms: C_19  and  O_20 
REMARK    6  A    between atoms: C_25  and  C_26 
ROOT
HETATM    1  C   UNL     1     -41.066  55.505 -52.992  1.00  0.00     0.097 C 
HETATM    2  N   UNL     1     -41.692  56.076 -54.207  1.00  0.00    -0.268 NA
HETATM    3  C   UNL     1     -42.245  57.322 -54.106  1.00  0.00     0.118 A 
HETATM    4  N   UNL     1     -42.539  57.861 -52.872  1.00  0.00    -0.245 N 
HETATM    5  N   UNL     1     -43.167  59.042 -52.926  1.00  0.00    -0.182 NA
HETATM    6  C   UNL     1     -43.211  59.303 -54.234  1.00  0.00     0.159 A 
HETATM    7  C   UNL     1     -42.670  58.260 -55.031  1.00  0.00     0.091 A 
HETATM    8  C   UNL     1     -42.372  57.176 -51.604  1.00  0.00     0.221 C 
HETATM    9  C   UNL     1     -42.061  55.683 -51.830  1.00  0.00     0.061 C 
HETATM   10  H   UNL     1     -42.261  55.371 -54.684  1.00  0.00     0.130 HD
ENDROOT
BRANCH   7  11
HETATM   11  C   UNL     1     -42.634  58.264 -56.486  1.00  0.00     0.261 C 
HETATM   12  N   UNL     1     -43.043  59.449 -57.067  1.00  0.00    -0.323 N 
HETATM   13  H   UNL     1     -43.414  60.141 -56.426  1.00  0.00     0.169 HD
HETATM   14  O   UNL     1     -42.233  57.274 -57.087  1.00  0.00    -0.267 OA
BRANCH  12  15
HETATM   15  C   UNL     1     -42.916  59.820 -58.423  1.00  0.00     0.035 A 
HETATM   16  C   UNL     1     -43.613  59.208 -59.466  1.00  0.00     0.030 A 
HETATM   17  C   UNL     1     -43.381  59.569 -60.799  1.00  0.00     0.012 A 
HETATM   18  C   UNL     1     -42.439  60.550 -61.125  1.00  0.00    -0.030 A 
HETATM   19  C   UNL     1     -41.766  61.188 -60.069  1.00  0.00     0.012 A 
HETATM   20  C   UNL     1     -42.005  60.832 -58.736  1.00  0.00     0.030 A 
BRANCH  18  21
HETATM   21  C   UNL     1     -42.112  60.951 -62.551  1.00  0.00     0.147 C 
HETATM   22  C   UNL     1     -43.207  61.686 -63.318  1.00  0.00     0.044 C 
BRANCH  21  23
HETATM   23  O   UNL     1     -40.951  61.783 -62.552  1.00  0.00    -0.391 OA
HETATM   24  H   UNL     1     -41.051  62.422 -61.826  1.00  0.00     0.210 HD
ENDBRANCH  21  23
ENDBRANCH  18  21
ENDBRANCH  12  15
ENDBRANCH   7  11
BRANCH   1  25
HETATM   25  C   UNL     1     -40.586  54.083 -53.254  1.00  0.00    -0.040 A 
HETATM   26  C   UNL     1     -40.233  53.261 -52.168  1.00  0.00     0.009 A 
HETATM   27  C   UNL     1     -39.898  51.917 -52.350  1.00  0.00     0.007 A 
HETATM   28  C   UNL     1     -39.917  51.348 -53.627  1.00  0.00    -0.062 A 
HETATM   29  C   UNL     1     -39.641  49.886 -53.814  1.00  0.00     0.048 C 
HETATM   30  C   UNL     1     -40.280  52.148 -54.713  1.00  0.00     0.007 A 
HETATM   31  C   UNL     1     -40.605  53.496 -54.530  1.00  0.00     0.009 A 
ENDBRANCH   1  25
BRANCH   8  32
HETATM   32  C   UNL     1     -41.302  57.857 -50.776  1.00  0.00     0.409 C 
HETATM   33  F   UNL     1     -40.761  57.056 -49.837  1.00  0.00    -0.169 F 
HETATM   34  F   UNL     1     -40.278  58.242 -51.585  1.00  0.00    -0.169 F 
HETATM   35  F   UNL     1     -41.748  58.976 -50.166  1.00  0.00    -0.169 F 
ENDBRANCH   8  32
TORSDOF 6
ENDMDL
MODEL 8
REMARK VINA RESULT:      -8.0     17.473     21.387
REMARK  6 active torsions:
REMARK  status: ('A' for Active; 'I' for Inactive)
REMARK    1  A    between atoms: C_5  and  C_6 
REMARK    2  A    between atoms: C_12  and  C_13 
REMARK       I    between atoms: C_13  and  N_14 
REMARK    3  A    between atoms: N_14  and  C_15 
REMARK    4  A    between atoms: C_18  and  C_19 
REMARK    5  A    between atoms: C_19  and  O_20 
REMARK    6  A    between atoms: C_25  and  C_26 
ROOT
HETATM    1  C   UNL     1     -33.375  39.971 -55.364  1.00  0.00     0.097 C 
HETATM    2  N   UNL     1     -33.599  40.174 -53.914  1.00  0.00    -0.268 NA
HETATM    3  C   UNL     1     -34.725  40.854 -53.539  1.00  0.00     0.118 A 
HETATM    4  N   UNL     1     -35.413  41.628 -54.449  1.00  0.00    -0.245 N 
HETATM    5  N   UNL     1     -36.435  42.314 -53.921  1.00  0.00    -0.182 NA
HETATM    6  C   UNL     1     -36.446  41.911 -52.648  1.00  0.00     0.159 A 
HETATM    7  C   UNL     1     -35.391  41.014 -52.337  1.00  0.00     0.091 A 
HETATM    8  C   UNL     1     -35.007  41.857 -55.822  1.00  0.00     0.221 C 
HETATM    9  C   UNL     1     -33.577  41.331 -56.061  1.00  0.00     0.061 C 
HETATM   10  H   UNL     1     -32.730  40.456 -53.452  1.00  0.00     0.130 HD
ENDROOT
BRANCH   7  11
HETATM   11  C   UNL     1     -35.142  40.458 -51.015  1.00  0.00     0.261 C 
HETATM   12  N   UNL     1     -33.933  39.802 -50.886  1.00  0.00    -0.323 N 
HETATM   13  H   UNL     1     -33.405  39.694 -51.743  1.00  0.00     0.169 HD
HETATM   14  O   UNL     1     -35.967  40.620 -50.122  1.00  0.00    -0.267 OA
BRANCH  12  15
HETATM   15  C   UNL     1     -33.332  39.353 -49.690  1.00  0.00     0.035 A 
HETATM   16  C   UNL     1     -33.842  38.321 -48.902  1.00  0.00     0.030 A 
HETATM   17  C   UNL     1     -33.242  37.977 -47.684  1.00  0.00     0.012 A 
HETATM   18  C   UNL     1     -32.116  38.665 -47.218  1.00  0.00    -0.030 A 
HETATM   19  C   UNL     1     -31.586  39.679 -48.033  1.00  0.00     0.012 A 
HETATM   20  C   UNL     1     -32.182  40.016 -49.255  1.00  0.00     0.030 A 
BRANCH  18  21
HETATM   21  C   UNL     1     -31.450  38.370 -45.888  1.00  0.00     0.147 C 
HETATM   22  C   UNL     1     -30.556  39.467 -45.316  1.00  0.00     0.044 C 
BRANCH  21  23
HETATM   23  O   UNL     1     -32.453  38.079 -44.913  1.00  0.00    -0.391 OA
HETATM   24  H   UNL     1     -32.674  37.135 -44.997  1.00  0.00     0.210 HD
ENDBRANCH  21  23
ENDBRANCH  18  21
ENDBRANCH  12  15
ENDBRANCH   7  11
BRANCH   1  25
HETATM   25  C   UNL     1     -32.038  39.283 -55.609  1.00  0.00    -0.040 A 
HETATM   26  C   UNL     1     -31.141  39.828 -56.546  1.00  0.00     0.009 A 
HETATM   27  C   UNL     1     -29.859  39.298 -56.721  1.00  0.00     0.007 A 
HETATM   28  C   UNL     1     -29.430  38.213 -55.952  1.00  0.00    -0.062 A 
HETATM   29  C   UNL     1     -28.027  37.698 -56.078  1.00  0.00     0.048 C 
HETATM   30  C   UNL     1     -30.304  37.672 -55.007  1.00  0.00     0.007 A 
HETATM   31  C   UNL     1     -31.591  38.195 -54.841  1.00  0.00     0.009 A 
ENDBRANCH   1  25
BRANCH   8  32
HETATM   32  C   UNL     1     -36.004  41.234 -56.776  1.00  0.00     0.409 C 
HETATM   33  F   UNL     1     -36.640  40.161 -56.263  1.00  0.00    -0.169 F 
HETATM   34  F   UNL     1     -36.972  42.141 -57.077  1.00  0.00    -0.169 F 
HETATM   35  F   UNL     1     -35.445  40.868 -57.949  1.00  0.00    -0.169 F 
ENDBRANCH   8  32
TORSDOF 6
ENDMDL
MODEL 9
REMARK VINA RESULT:      -8.0      3.464      7.175
REMARK  6 active torsions:
REMARK  status: ('A' for Active; 'I' for Inactive)
REMARK    1  A    between atoms: C_5  and  C_6 
REMARK    2  A    between atoms: C_12  and  C_13 
REMARK       I    between atoms: C_13  and  N_14 
REMARK    3  A    between atoms: N_14  and  C_15 
REMARK    4  A    between atoms: C_18  and  C_19 
REMARK    5  A    between atoms: C_19  and  O_20 
REMARK    6  A    between atoms: C_25  and  C_26 
ROOT
HETATM    1  C   UNL     1     -43.047  59.203 -54.906  1.00  0.00     0.097 C 
HETATM    2  N   UNL     1     -42.237  58.296 -54.060  1.00  0.00    -0.268 NA
HETATM    3  C   UNL     1     -42.025  58.667 -52.761  1.00  0.00     0.118 A 
HETATM    4  N   UNL     1     -42.227  59.971 -52.362  1.00  0.00    -0.245 N 
HETATM    5  N   UNL     1     -41.886  60.212 -51.090  1.00  0.00    -0.182 NA
HETATM    6  C   UNL     1     -41.523  59.009 -50.639  1.00  0.00     0.159 A 
HETATM    7  C   UNL     1     -41.566  58.002 -51.638  1.00  0.00     0.091 A 
HETATM    8  C   UNL     1     -42.600  61.062 -53.241  1.00  0.00     0.221 C 
HETATM    9  C   UNL     1     -42.497  60.630 -54.718  1.00  0.00     0.061 C 
HETATM   10  H   UNL     1     -41.413  57.966 -54.572  1.00  0.00     0.130 HD
ENDROOT
BRANCH   7  11
HETATM   11  C   UNL     1     -41.179  56.614 -51.429  1.00  0.00     0.261 C 
HETATM   12  N   UNL     1     -41.459  55.774 -52.490  1.00  0.00    -0.323 N 
HETATM   13  H   UNL     1     -41.988  56.192 -53.246  1.00  0.00     0.169 HD
HETATM   14  O   UNL     1     -40.625  56.288 -50.386  1.00  0.00    -0.267 OA
BRANCH  12  15
HETATM   15  C   UNL     1     -41.015  54.445 -52.663  1.00  0.00     0.035 A 
HETATM   16  C   UNL     1     -40.667  53.598 -51.611  1.00  0.00     0.030 A 
HETATM   17  C   UNL     1     -40.157  52.316 -51.855  1.00  0.00     0.012 A 
HETATM   18  C   UNL     1     -39.975  51.851 -53.161  1.00  0.00    -0.030 A 
HETATM   19  C   UNL     1     -40.360  52.695 -54.216  1.00  0.00     0.012 A 
HETATM   20  C   UNL     1     -40.879  53.973 -53.971  1.00  0.00     0.030 A 
BRANCH  18  21
HETATM   21  C   UNL     1     -39.385  50.492 -53.488  1.00  0.00     0.147 C 
HETATM   22  C   UNL     1     -39.573  49.400 -52.439  1.00  0.00     0.044 C 
BRANCH  21  23
HETATM   23  O   UNL     1     -39.947  50.016 -54.712  1.00  0.00    -0.391 OA
HETATM   24  H   UNL     1     -39.595  50.572 -55.428  1.00  0.00     0.210 HD
ENDBRANCH  21  23
ENDBRANCH  18  21
ENDBRANCH  12  15
ENDBRANCH   7  11
BRANCH   1  25
HETATM   25  C   UNL     1     -43.105  58.689 -56.339  1.00  0.00    -0.040 A 
HETATM   26  C   UNL     1     -42.160  59.144 -57.276  1.00  0.00     0.009 A 
HETATM   27  C   UNL     1     -42.103  58.616 -58.569  1.00  0.00     0.007 A 
HETATM   28  C   UNL     1     -42.984  57.605 -58.961  1.00  0.00    -0.062 A 
HETATM   29  C   UNL     1     -42.869  56.978 -60.319  1.00  0.00     0.048 C 
HETATM   30  C   UNL     1     -43.918  57.132 -58.037  1.00  0.00     0.007 A 
HETATM   31  C   UNL     1     -43.981  57.669 -56.747  1.00  0.00     0.009 A 
ENDBRANCH   1  25
BRANCH   8  32
HETATM   32  C   UNL     1     -43.986  61.565 -52.896  1.00  0.00     0.409 C 
HETATM   33  F   UNL     1     -44.796  60.607 -52.400  1.00  0.00    -0.169 F 
HETATM   34  F   UNL     1     -43.895  62.522 -51.934  1.00  0.00    -0.169 F 
HETATM   35  F   UNL     1     -44.610  62.137 -53.948  1.00  0.00    -0.169 F 
ENDBRANCH   8  32
TORSDOF 6
ENDMDL
MODEL 10
REMARK VINA RESULT:      -7.8      4.328      7.741
REMARK  6 active torsions:
REMARK  status: ('A' for Active; 'I' for Inactive)
REMARK    1  A    between atoms: C_5  and  C_6 
REMARK    2  A    between atoms: C_12  and  C_13 
REMARK       I    between atoms: C_13  and  N_14 
REMARK    3  A    between atoms: N_14  and  C_15 
REMARK    4  A    between atoms: C_18  and  C_19 
REMARK    5  A    between atoms: C_19  and  O_20 
REMARK    6  A    between atoms: C_25  and  C_26 
ROOT
HETATM    1  C   UNL     1     -41.967  55.812 -52.827  1.00  0.00     0.097 C 
HETATM    2  N   UNL     1     -42.592  57.139 -52.626  1.00  0.00    -0.268 NA
HETATM    3  C   UNL     1     -43.105  57.768 -53.727  1.00  0.00     0.118 A 
HETATM    4  N   UNL     1     -42.737  57.375 -54.995  1.00  0.00    -0.245 N 
HETATM    5  N   UNL     1     -43.238  58.140 -55.973  1.00  0.00    -0.182 NA
HETATM    6  C   UNL     1     -44.010  59.007 -55.314  1.00  0.00     0.159 A 
HETATM    7  C   UNL     1     -43.957  58.844 -53.905  1.00  0.00     0.091 A 
HETATM    8  C   UNL     1     -41.758  56.348 -55.296  1.00  0.00     0.221 C 
HETATM    9  C   UNL     1     -40.999  55.930 -54.021  1.00  0.00     0.061 C 
HETATM   10  H   UNL     1     -42.017  57.719 -52.008  1.00  0.00     0.130 HD
ENDROOT
BRANCH   7  11
HETATM   11  C   UNL     1     -44.665  59.683 -52.949  1.00  0.00     0.261 C 
HETATM   12  N   UNL     1     -44.023  59.838 -51.736  1.00  0.00    -0.323 N 
HETATM   13  H   UNL     1     -43.189  59.276 -51.611  1.00  0.00     0.169 HD
HETATM   14  O   UNL     1     -45.727  60.205 -53.268  1.00  0.00    -0.267 OA
BRANCH  12  15
HETATM   15  C   UNL     1     -44.354  60.747 -50.708  1.00  0.00     0.035 A 
HETATM   16  C   UNL     1     -43.750  61.995 -50.549  1.00  0.00     0.030 A 
HETATM   17  C   UNL     1     -44.067  62.817 -49.460  1.00  0.00     0.012 A 
HETATM   18  C   UNL     1     -44.994  62.407 -48.495  1.00  0.00    -0.030 A 
HETATM   19  C   UNL     1     -45.624  61.165 -48.679  1.00  0.00     0.012 A 
HETATM   20  C   UNL     1     -45.313  60.348 -49.774  1.00  0.00     0.030 A 
BRANCH  18  21
HETATM   21  C   UNL     1     -45.343  63.232 -47.271  1.00  0.00     0.147 C 
HETATM   22  C   UNL     1     -45.236  62.527 -45.922  1.00  0.00     0.044 C 
BRANCH  21  23
HETATM   23  O   UNL     1     -44.501  64.385 -47.223  1.00  0.00    -0.391 OA
HETATM   24  H   UNL     1     -44.926  65.029 -46.631  1.00  0.00     0.210 HD
ENDBRANCH  21  23
ENDBRANCH  18  21
ENDBRANCH  12  15
ENDBRANCH   7  11
BRANCH   1  25
HETATM   25  C   UNL     1     -41.367  55.299 -51.524  1.00  0.00    -0.040 A 
HETATM   26  C   UNL     1     -41.663  55.963 -50.319  1.00  0.00     0.009 A 
HETATM   27  C   UNL     1     -41.231  55.463 -49.087  1.00  0.00     0.007 A 
HETATM   28  C   UNL     1     -40.498  54.275 -49.021  1.00  0.00    -0.062 A 
HETATM   29  C   UNL     1     -40.107  53.692 -47.696  1.00  0.00     0.048 C 
HETATM   30  C   UNL     1     -40.210  53.597 -50.209  1.00  0.00     0.007 A 
HETATM   31  C   UNL     1     -40.634  54.104 -51.442  1.00  0.00     0.009 A 
ENDBRANCH   1  25
BRANCH   8  32
HETATM   32  C   UNL     1     -42.424  55.167 -55.969  1.00  0.00     0.409 C 
HETATM   33  F   UNL     1     -42.538  55.305 -57.306  1.00  0.00    -0.169 F 
HETATM   34  F   UNL     1     -41.679  54.047 -55.765  1.00  0.00    -0.169 F 
HETATM   35  F   UNL     1     -43.651  54.905 -55.470  1.00  0.00    -0.169 F 
ENDBRANCH   8  32
TORSDOF 6
ENDMDL
