MODEL 1
REMARK VINA RESULT:      -7.7      0.000      0.000
REMARK  4 active torsions:
REMARK  status: ('A' for Active; 'I' for Inactive)
REMARK    1  A    between atoms: C_8  and  N_9 
REMARK    2  A    between atoms: C_11  and  C_12 
REMARK    3  A    between atoms: C_13  and  O_14 
REMARK    4  A    between atoms: O_14  and  C_15 
ROOT
HETATM    1  C   UNL     1     -40.497  53.574 -55.328  1.00  0.00     0.002 A 
HETATM    2  C   UNL     1     -40.515  52.696 -54.239  1.00  0.00     0.034 A 
HETATM    3  C   UNL     1     -40.595  53.229 -52.946  1.00  0.00     0.103 A 
HETATM    4  C   UNL     1     -40.658  54.609 -52.777  1.00  0.00     0.083 A 
HETATM    5  N   UNL     1     -40.751  54.753 -51.419  1.00  0.00    -0.151 N 
HETATM    6  C   UNL     1     -40.687  53.523 -50.815  1.00  0.00     0.734 A 
HETATM    7  N   UNL     1     -40.694  53.363 -49.473  1.00  0.00    -0.033 NA
HETATM    8  C   UNL     1     -40.741  54.402 -48.721  1.00  0.00     0.193 A 
HETATM    9  N   UNL     1     -40.809  55.716 -49.190  1.00  0.00    -0.338 N 
HETATM   10  C   UNL     1     -40.849  55.962 -50.629  1.00  0.00     0.246 A 
HETATM   11  N   UNL     1     -40.621  52.585 -51.734  1.00  0.00    -0.060 NA
HETATM   12  C   UNL     1     -40.640  55.508 -53.848  1.00  0.00     0.033 A 
HETATM   13  C   UNL     1     -40.558  54.956 -55.133  1.00  0.00     0.002 A 
HETATM   14  H   UNL     1     -40.778  56.500 -48.551  1.00  0.00     0.164 HD
ENDROOT
BRANCH  10  15
HETATM   15  C   UNL     1     -42.115  56.763 -50.898  1.00  0.00     0.020 A 
HETATM   16  C   UNL     1     -43.377  56.149 -50.781  1.00  0.00     0.085 A 
HETATM   17  C   UNL     1     -44.559  56.864 -50.997  1.00  0.00     0.039 A 
HETATM   18  C   UNL     1     -44.497  58.196 -51.400  1.00  0.00     0.022 A 
HETATM   19  C   UNL     1     -43.258  58.807 -51.576  1.00  0.00     0.011 A 
HETATM   20 BR   UNL     1     -43.174  60.610 -52.134  1.00  0.00    -0.051 Br
HETATM   21  C   UNL     1     -42.076  58.102 -51.337  1.00  0.00     0.033 A 
BRANCH  16  22
HETATM   22  O   UNL     1     -43.449  54.839 -50.382  1.00  0.00    -0.289 OA
BRANCH  22  23
HETATM   23  C   UNL     1     -44.374  54.111 -51.189  1.00  0.00     0.505 C 
HETATM   24  F   UNL     1     -43.684  53.614 -52.255  1.00  0.00    -0.184 F 
HETATM   25  F   UNL     1     -44.770  53.037 -50.467  1.00  0.00    -0.184 F 
ENDBRANCH  22  23
ENDBRANCH  16  22
ENDBRANCH  10  15
BRANCH   8  26
HETATM   26  N   UNL     1     -40.725  54.335 -47.375  1.00  0.00    -0.272 NA
HETATM   27  H   UNL     1     -41.301  53.568 -47.035  1.00  0.00     0.127 HD
HETATM   28  H   UNL     1     -40.903  55.192 -46.869  1.00  0.00     0.127 HD
ENDBRANCH   8  26
TORSDOF 4
ENDMDL
MODEL 2
REMARK VINA RESULT:      -7.5      5.434      7.091
REMARK  4 active torsions:
REMARK  status: ('A' for Active; 'I' for Inactive)
REMARK    1  A    between atoms: C_8  and  N_9 
REMARK    2  A    between atoms: C_11  and  C_12 
REMARK    3  A    between atoms: C_13  and  O_14 
REMARK    4  A    between atoms: O_14  and  C_15 
ROOT
HETATM    1  C   UNL     1     -40.718  53.116 -53.956  1.00  0.00     0.002 A 
HETATM    2  C   UNL     1     -41.921  53.498 -53.352  1.00  0.00     0.034 A 
HETATM    3  C   UNL     1     -42.502  54.718 -53.723  1.00  0.00     0.103 A 
HETATM    4  C   UNL     1     -41.876  55.513 -54.678  1.00  0.00     0.083 A 
HETATM    5  N   UNL     1     -42.723  56.582 -54.798  1.00  0.00    -0.151 N 
HETATM    6  C   UNL     1     -43.764  56.452 -53.916  1.00  0.00     0.734 A 
HETATM    7  N   UNL     1     -44.726  57.392 -53.771  1.00  0.00    -0.033 NA
HETATM    8  C   UNL     1     -44.657  58.466 -54.469  1.00  0.00     0.193 A 
HETATM    9  N   UNL     1     -43.657  58.739 -55.405  1.00  0.00    -0.338 N 
HETATM   10  C   UNL     1     -42.611  57.750 -55.645  1.00  0.00     0.246 A 
HETATM   11  N   UNL     1     -43.658  55.308 -53.276  1.00  0.00    -0.060 NA
HETATM   12  C   UNL     1     -40.672  55.155 -55.294  1.00  0.00     0.033 A 
HETATM   13  C   UNL     1     -40.107  53.933 -54.910  1.00  0.00     0.002 A 
HETATM   14  H   UNL     1     -43.618  59.632 -55.881  1.00  0.00     0.164 HD
ENDROOT
BRANCH  10  15
HETATM   15  C   UNL     1     -42.650  57.428 -57.133  1.00  0.00     0.020 A 
HETATM   16  C   UNL     1     -42.012  58.278 -58.056  1.00  0.00     0.085 A 
HETATM   17  C   UNL     1     -42.010  57.996 -59.425  1.00  0.00     0.039 A 
HETATM   18  C   UNL     1     -42.705  56.888 -59.905  1.00  0.00     0.022 A 
HETATM   19  C   UNL     1     -43.390  56.066 -59.015  1.00  0.00     0.011 A 
HETATM   20 BR   UNL     1     -44.342  54.570 -59.666  1.00  0.00    -0.051 Br
HETATM   21  C   UNL     1     -43.374  56.331 -57.644  1.00  0.00     0.033 A 
BRANCH  16  22
HETATM   22  O   UNL     1     -41.323  59.369 -57.595  1.00  0.00    -0.289 OA
BRANCH  22  23
HETATM   23  C   UNL     1     -41.636  60.532 -58.361  1.00  0.00     0.505 C 
HETATM   24  F   UNL     1     -42.756  61.089 -57.817  1.00  0.00    -0.184 F 
HETATM   25  F   UNL     1     -40.639  61.423 -58.156  1.00  0.00    -0.184 F 
ENDBRANCH  22  23
ENDBRANCH  16  22
ENDBRANCH  10  15
BRANCH   8  26
HETATM   26  N   UNL     1     -45.558  59.464 -54.369  1.00  0.00    -0.272 NA
HETATM   27  H   UNL     1     -46.111  59.551 -55.218  1.00  0.00     0.127 HD
HETATM   28  H   UNL     1     -45.218  60.360 -54.047  1.00  0.00     0.127 HD
ENDBRANCH   8  26
TORSDOF 4
ENDMDL
MODEL 3
REMARK VINA RESULT:      -7.3      2.958      3.666
REMARK  4 active torsions:
REMARK  status: ('A' for Active; 'I' for Inactive)
REMARK    1  A    between atoms: C_8  and  N_9 
REMARK    2  A    between atoms: C_11  and  C_12 
REMARK    3  A    between atoms: C_13  and  O_14 
REMARK    4  A    between atoms: O_14  and  C_15 
ROOT
HETATM    1  C   UNL     1     -40.260  52.255 -53.967  1.00  0.00     0.002 A 
HETATM    2  C   UNL     1     -40.443  52.626 -52.630  1.00  0.00     0.034 A 
HETATM    3  C   UNL     1     -40.695  53.972 -52.333  1.00  0.00     0.103 A 
HETATM    4  C   UNL     1     -40.761  54.900 -53.368  1.00  0.00     0.083 A 
HETATM    5  N   UNL     1     -41.041  56.072 -52.719  1.00  0.00    -0.151 N 
HETATM    6  C   UNL     1     -41.079  55.856 -51.365  1.00  0.00     0.734 A 
HETATM    7  N   UNL     1     -41.276  56.848 -50.468  1.00  0.00    -0.033 NA
HETATM    8  C   UNL     1     -41.413  58.052 -50.890  1.00  0.00     0.193 A 
HETATM    9  N   UNL     1     -41.395  58.426 -52.236  1.00  0.00    -0.338 N 
HETATM   10  C   UNL     1     -41.230  57.400 -53.263  1.00  0.00     0.246 A 
HETATM   11  N   UNL     1     -40.900  54.577 -51.119  1.00  0.00    -0.060 NA
HETATM   12  C   UNL     1     -40.580  54.555 -54.712  1.00  0.00     0.033 A 
HETATM   13  C   UNL     1     -40.328  53.206 -54.988  1.00  0.00     0.002 A 
HETATM   14  H   UNL     1     -41.443  59.399 -52.508  1.00  0.00     0.164 HD
ENDROOT
BRANCH  10  15
HETATM   15  C   UNL     1     -42.435  57.512 -54.187  1.00  0.00     0.020 A 
HETATM   16  C   UNL     1     -43.732  57.281 -53.687  1.00  0.00     0.085 A 
HETATM   17  C   UNL     1     -44.859  57.400 -54.505  1.00  0.00     0.039 A 
HETATM   18  C   UNL     1     -44.705  57.691 -55.859  1.00  0.00     0.022 A 
HETATM   19  C   UNL     1     -43.428  57.866 -56.385  1.00  0.00     0.011 A 
HETATM   20 BR   UNL     1     -43.217  58.248 -58.223  1.00  0.00    -0.051 Br
HETATM   21  C   UNL     1     -42.301  57.772 -55.565  1.00  0.00     0.033 A 
BRANCH  16  22
HETATM   22  O   UNL     1     -43.895  56.998 -52.356  1.00  0.00    -0.289 OA
BRANCH  22  23
HETATM   23  C   UNL     1     -44.911  57.818 -51.781  1.00  0.00     0.505 C 
HETATM   24  F   UNL     1     -44.979  57.515 -50.453  1.00  0.00    -0.184 F 
HETATM   25  F   UNL     1     -44.475  59.097 -51.849  1.00  0.00    -0.184 F 
ENDBRANCH  22  23
ENDBRANCH  16  22
ENDBRANCH  10  15
BRANCH   8  26
HETATM   26  N   UNL     1     -41.587  59.104 -50.065  1.00  0.00    -0.272 NA
HETATM   27  H   UNL     1     -40.790  59.736 -50.096  1.00  0.00     0.127 HD
HETATM   28  H   UNL     1     -41.872  58.903 -49.117  1.00  0.00     0.127 HD
ENDBRANCH   8  26
TORSDOF 4
ENDMDL
MODEL 4
REMARK VINA RESULT:      -7.3      2.367      3.309
REMARK  4 active torsions:
REMARK  status: ('A' for Active; 'I' for Inactive)
REMARK    1  A    between atoms: C_8  and  N_9 
REMARK    2  A    between atoms: C_11  and  C_12 
REMARK    3  A    between atoms: C_13  and  O_14 
REMARK    4  A    between atoms: O_14  and  C_15 
ROOT
HETATM    1  C   UNL     1     -39.444  49.486 -53.213  1.00  0.00     0.002 A 
HETATM    2  C   UNL     1     -39.696  49.743 -51.861  1.00  0.00     0.034 A 
HETATM    3  C   UNL     1     -39.991  51.055 -51.468  1.00  0.00     0.103 A 
HETATM    4  C   UNL     1     -40.029  52.064 -52.426  1.00  0.00     0.083 A 
HETATM    5  N   UNL     1     -40.364  53.173 -51.697  1.00  0.00    -0.151 N 
HETATM    6  C   UNL     1     -40.459  52.846 -50.369  1.00  0.00     0.734 A 
HETATM    7  N   UNL     1     -40.719  53.757 -49.404  1.00  0.00    -0.033 NA
HETATM    8  C   UNL     1     -40.861  54.990 -49.733  1.00  0.00     0.193 A 
HETATM    9  N   UNL     1     -40.790  55.473 -51.042  1.00  0.00    -0.338 N 
HETATM   10  C   UNL     1     -40.556  54.538 -52.139  1.00  0.00     0.246 A 
HETATM   11  N   UNL     1     -40.264  51.554 -50.220  1.00  0.00    -0.060 NA
HETATM   12  C   UNL     1     -39.778  51.834 -53.783  1.00  0.00     0.033 A 
HETATM   13  C   UNL     1     -39.485  50.517 -54.155  1.00  0.00     0.002 A 
HETATM   14  H   UNL     1     -40.846  56.465 -51.236  1.00  0.00     0.164 HD
ENDROOT
BRANCH  10  15
HETATM   15  C   UNL     1     -41.719  54.705 -53.108  1.00  0.00     0.020 A 
HETATM   16  C   UNL     1     -43.031  54.403 -52.694  1.00  0.00     0.085 A 
HETATM   17  C   UNL     1     -44.121  54.569 -53.552  1.00  0.00     0.039 A 
HETATM   18  C   UNL     1     -43.912  54.980 -54.867  1.00  0.00     0.022 A 
HETATM   19  C   UNL     1     -42.617  55.229 -55.313  1.00  0.00     0.011 A 
HETATM   20 BR   UNL     1     -42.330  55.775 -57.099  1.00  0.00    -0.051 Br
HETATM   21  C   UNL     1     -41.527  55.088 -54.451  1.00  0.00     0.033 A 
BRANCH  16  22
HETATM   22  O   UNL     1     -43.249  54.001 -51.402  1.00  0.00    -0.289 OA
BRANCH  22  23
HETATM   23  C   UNL     1     -44.364  54.687 -50.836  1.00  0.00     0.505 C 
HETATM   24  F   UNL     1     -44.705  54.034 -49.687  1.00  0.00    -0.184 F 
HETATM   25  F   UNL     1     -43.927  55.909 -50.454  1.00  0.00    -0.184 F 
ENDBRANCH  22  23
ENDBRANCH  16  22
ENDBRANCH  10  15
BRANCH   8  26
HETATM   26  N   UNL     1     -41.096  55.967 -48.835  1.00  0.00    -0.272 NA
HETATM   27  H   UNL     1     -42.093  56.105 -48.689  1.00  0.00     0.127 HD
HETATM   28  H   UNL     1     -40.610  56.842 -48.969  1.00  0.00     0.127 HD
ENDBRANCH   8  26
TORSDOF 4
ENDMDL
MODEL 5
REMARK VINA RESULT:      -7.3      3.829      5.224
REMARK  4 active torsions:
REMARK  status: ('A' for Active; 'I' for Inactive)
REMARK    1  A    between atoms: C_8  and  N_9 
REMARK    2  A    between atoms: C_11  and  C_12 
REMARK    3  A    between atoms: C_13  and  O_14 
REMARK    4  A    between atoms: O_14  and  C_15 
ROOT
HETATM    1  C   UNL     1     -42.818  55.690 -56.823  1.00  0.00     0.002 A 
HETATM    2  C   UNL     1     -43.357  56.920 -56.430  1.00  0.00     0.034 A 
HETATM    3  C   UNL     1     -43.727  57.096 -55.090  1.00  0.00     0.103 A 
HETATM    4  C   UNL     1     -43.547  56.052 -54.187  1.00  0.00     0.083 A 
HETATM    5  N   UNL     1     -43.984  56.583 -53.004  1.00  0.00    -0.151 N 
HETATM    6  C   UNL     1     -44.453  57.855 -53.211  1.00  0.00     0.734 A 
HETATM    7  N   UNL     1     -45.004  58.603 -52.229  1.00  0.00    -0.033 NA
HETATM    8  C   UNL     1     -45.118  58.102 -51.053  1.00  0.00     0.193 A 
HETATM    9  N   UNL     1     -44.688  56.823 -50.693  1.00  0.00    -0.338 N 
HETATM   10  C   UNL     1     -44.044  55.975 -51.692  1.00  0.00     0.246 A 
HETATM   11  N   UNL     1     -44.275  58.190 -54.470  1.00  0.00    -0.060 NA
HETATM   12  C   UNL     1     -43.012  54.812 -54.555  1.00  0.00     0.033 A 
HETATM   13  C   UNL     1     -42.650  54.656 -55.899  1.00  0.00     0.002 A 
HETATM   14  H   UNL     1     -44.863  56.455 -49.766  1.00  0.00     0.164 HD
ENDROOT
BRANCH  10  15
HETATM   15  C   UNL     1     -42.678  55.603 -51.132  1.00  0.00     0.020 A 
HETATM   16  C   UNL     1     -41.758  56.612 -50.788  1.00  0.00     0.085 A 
HETATM   17  C   UNL     1     -40.506  56.303 -50.249  1.00  0.00     0.039 A 
HETATM   18  C   UNL     1     -40.125  54.971 -50.102  1.00  0.00     0.022 A 
HETATM   19  C   UNL     1     -40.998  53.958 -50.489  1.00  0.00     0.011 A 
HETATM   20 BR   UNL     1     -40.478  52.151 -50.301  1.00  0.00    -0.051 Br
HETATM   21  C   UNL     1     -42.260  54.263 -51.005  1.00  0.00     0.033 A 
BRANCH  16  22
HETATM   22  O   UNL     1     -42.123  57.926 -50.925  1.00  0.00    -0.289 OA
BRANCH  22  23
HETATM   23  C   UNL     1     -41.192  58.631 -51.746  1.00  0.00     0.505 C 
HETATM   24  F   UNL     1     -41.077  57.943 -52.918  1.00  0.00    -0.184 F 
HETATM   25  F   UNL     1     -41.762  59.816 -52.064  1.00  0.00    -0.184 F 
ENDBRANCH  22  23
ENDBRANCH  16  22
ENDBRANCH  10  15
BRANCH   8  26
HETATM   26  N   UNL     1     -45.678  58.768 -50.023  1.00  0.00    -0.272 NA
HETATM   27  H   UNL     1     -45.469  58.319 -49.134  1.00  0.00     0.127 HD
HETATM   28  H   UNL     1     -46.657  59.004 -50.104  1.00  0.00     0.127 HD
ENDBRANCH   8  26
TORSDOF 4
ENDMDL
MODEL 6
REMARK VINA RESULT:      -7.2      3.154      4.678
REMARK  4 active torsions:
REMARK  status: ('A' for Active; 'I' for Inactive)
REMARK    1  A    between atoms: C_8  and  N_9 
REMARK    2  A    between atoms: C_11  and  C_12 
REMARK    3  A    between atoms: C_13  and  O_14 
REMARK    4  A    between atoms: O_14  and  C_15 
ROOT
HETATM    1  C   UNL     1     -40.200  53.294 -49.566  1.00  0.00     0.002 A 
HETATM    2  C   UNL     1     -40.217  53.128 -50.956  1.00  0.00     0.034 A 
HETATM    3  C   UNL     1     -41.061  53.945 -51.720  1.00  0.00     0.103 A 
HETATM    4  C   UNL     1     -41.853  54.897 -51.085  1.00  0.00     0.083 A 
HETATM    5  N   UNL     1     -42.504  55.505 -52.124  1.00  0.00    -0.151 N 
HETATM    6  C   UNL     1     -42.159  54.901 -53.306  1.00  0.00     0.734 A 
HETATM    7  N   UNL     1     -42.697  55.255 -54.495  1.00  0.00    -0.033 NA
HETATM    8  C   UNL     1     -43.586  56.179 -54.527  1.00  0.00     0.193 A 
HETATM    9  N   UNL     1     -44.039  56.881 -53.408  1.00  0.00    -0.338 N 
HETATM   10  C   UNL     1     -43.470  56.582 -52.096  1.00  0.00     0.246 A 
HETATM   11  N   UNL     1     -41.259  53.970 -53.078  1.00  0.00    -0.060 NA
HETATM   12  C   UNL     1     -41.855  55.081 -49.698  1.00  0.00     0.033 A 
HETATM   13  C   UNL     1     -41.006  54.255 -48.952  1.00  0.00     0.002 A 
HETATM   14  H   UNL     1     -44.790  57.556 -53.483  1.00  0.00     0.164 HD
ENDROOT
BRANCH  10  15
HETATM   15  C   UNL     1     -42.906  57.890 -51.559  1.00  0.00     0.020 A 
HETATM   16  C   UNL     1     -43.763  58.980 -51.311  1.00  0.00     0.085 A 
HETATM   17  C   UNL     1     -43.279  60.185 -50.795  1.00  0.00     0.039 A 
HETATM   18  C   UNL     1     -41.912  60.345 -50.577  1.00  0.00     0.022 A 
HETATM   19  C   UNL     1     -41.040  59.300 -50.869  1.00  0.00     0.011 A 
HETATM   20 BR   UNL     1     -39.186  59.521 -50.584  1.00  0.00    -0.051 Br
HETATM   21  C   UNL     1     -41.524  58.086 -51.362  1.00  0.00     0.033 A 
BRANCH  16  22
HETATM   22  O   UNL     1     -45.110  58.832 -51.519  1.00  0.00    -0.289 OA
BRANCH  22  23
HETATM   23  C   UNL     1     -45.655  59.981 -52.164  1.00  0.00     0.505 C 
HETATM   24  F   UNL     1     -45.743  59.699 -53.496  1.00  0.00    -0.184 F 
HETATM   25  F   UNL     1     -46.929  60.116 -51.727  1.00  0.00    -0.184 F 
ENDBRANCH  22  23
ENDBRANCH  16  22
ENDBRANCH  10  15
BRANCH   8  26
HETATM   26  N   UNL     1     -44.192  56.575 -55.664  1.00  0.00    -0.272 NA
HETATM   27  H   UNL     1     -43.543  57.056 -56.283  1.00  0.00     0.127 HD
HETATM   28  H   UNL     1     -45.064  57.077 -55.571  1.00  0.00     0.127 HD
ENDBRANCH   8  26
TORSDOF 4
ENDMDL
MODEL 7
REMARK VINA RESULT:      -7.2      2.999      3.783
REMARK  4 active torsions:
REMARK  status: ('A' for Active; 'I' for Inactive)
REMARK    1  A    between atoms: C_8  and  N_9 
REMARK    2  A    between atoms: C_11  and  C_12 
REMARK    3  A    between atoms: C_13  and  O_14 
REMARK    4  A    between atoms: O_14  and  C_15 
ROOT
HETATM    1  C   UNL     1     -39.478  49.808 -53.893  1.00  0.00     0.002 A 
HETATM    2  C   UNL     1     -39.821  49.600 -52.553  1.00  0.00     0.034 A 
HETATM    3  C   UNL     1     -39.971  50.713 -51.715  1.00  0.00     0.103 A 
HETATM    4  C   UNL     1     -39.781  51.991 -52.234  1.00  0.00     0.083 A 
HETATM    5  N   UNL     1     -40.030  52.803 -51.161  1.00  0.00    -0.151 N 
HETATM    6  C   UNL     1     -40.296  52.041 -50.052  1.00  0.00     0.734 A 
HETATM    7  N   UNL     1     -40.520  52.576 -48.831  1.00  0.00    -0.033 NA
HETATM    8  C   UNL     1     -40.462  53.850 -48.687  1.00  0.00     0.193 A 
HETATM    9  N   UNL     1     -40.201  54.751 -49.722  1.00  0.00    -0.338 N 
HETATM   10  C   UNL     1     -39.992  54.247 -51.076  1.00  0.00     0.246 A 
HETATM   11  N   UNL     1     -40.292  50.769 -50.383  1.00  0.00    -0.060 NA
HETATM   12  C   UNL     1     -39.435  52.225 -53.569  1.00  0.00     0.033 A 
HETATM   13  C   UNL     1     -39.289  51.100 -54.389  1.00  0.00     0.002 A 
HETATM   14  H   UNL     1     -40.103  55.742 -49.538  1.00  0.00     0.164 HD
ENDROOT
BRANCH  10  15
HETATM   15  C   UNL     1     -41.024  54.935 -51.960  1.00  0.00     0.020 A 
HETATM   16  C   UNL     1     -41.402  56.266 -51.698  1.00  0.00     0.085 A 
HETATM   17  C   UNL     1     -42.328  56.933 -52.505  1.00  0.00     0.039 A 
HETATM   18  C   UNL     1     -42.944  56.256 -53.556  1.00  0.00     0.022 A 
HETATM   19  C   UNL     1     -42.626  54.922 -53.797  1.00  0.00     0.011 A 
HETATM   20 BR   UNL     1     -43.470  54.001 -55.214  1.00  0.00    -0.051 Br
HETATM   21  C   UNL     1     -41.683  54.261 -53.007  1.00  0.00     0.033 A 
BRANCH  16  22
HETATM   22  O   UNL     1     -40.801  56.942 -50.669  1.00  0.00    -0.289 OA
BRANCH  22  23
HETATM   23  C   UNL     1     -40.929  58.353 -50.841  1.00  0.00     0.505 C 
HETATM   24  F   UNL     1     -40.997  58.912 -49.598  1.00  0.00    -0.184 F 
HETATM   25  F   UNL     1     -39.772  58.794 -51.385  1.00  0.00    -0.184 F 
ENDBRANCH  22  23
ENDBRANCH  16  22
ENDBRANCH  10  15
BRANCH   8  26
HETATM   26  N   UNL     1     -40.647  54.464 -47.502  1.00  0.00    -0.272 NA
HETATM   27  H   UNL     1     -40.468  55.463 -47.569  1.00  0.00     0.127 HD
HETATM   28  H   UNL     1     -40.195  54.054 -46.696  1.00  0.00     0.127 HD
ENDBRANCH   8  26
TORSDOF 4
ENDMDL
MODEL 8
REMARK VINA RESULT:      -6.8      3.171      5.699
REMARK  4 active torsions:
REMARK  status: ('A' for Active; 'I' for Inactive)
REMARK    1  A    between atoms: C_8  and  N_9 
REMARK    2  A    between atoms: C_11  and  C_12 
REMARK    3  A    between atoms: C_13  and  O_14 
REMARK    4  A    between atoms: O_14  and  C_15 
ROOT
HETATM    1  C   UNL     1     -46.241  59.915 -51.824  1.00  0.00     0.002 A 
HETATM    2  C   UNL     1     -45.126  60.696 -52.150  1.00  0.00     0.034 A 
HETATM    3  C   UNL     1     -43.848  60.192 -51.873  1.00  0.00     0.103 A 
HETATM    4  C   UNL     1     -43.719  58.936 -51.288  1.00  0.00     0.083 A 
HETATM    5  N   UNL     1     -42.363  58.774 -51.193  1.00  0.00    -0.151 N 
HETATM    6  C   UNL     1     -41.727  59.902 -51.645  1.00  0.00     0.734 A 
HETATM    7  N   UNL     1     -40.383  60.050 -51.615  1.00  0.00    -0.033 NA
HETATM    8  C   UNL     1     -39.664  59.108 -51.122  1.00  0.00     0.193 A 
HETATM    9  N   UNL     1     -40.168  57.905 -50.624  1.00  0.00    -0.338 N 
HETATM   10  C   UNL     1     -41.607  57.659 -50.665  1.00  0.00     0.246 A 
HETATM   11  N   UNL     1     -42.618  60.761 -52.089  1.00  0.00    -0.060 NA
HETATM   12  C   UNL     1     -44.817  58.138 -50.950  1.00  0.00     0.033 A 
HETATM   13  C   UNL     1     -46.085  58.659 -51.234  1.00  0.00     0.002 A 
HETATM   14  H   UNL     1     -39.559  57.224 -50.187  1.00  0.00     0.164 HD
ENDROOT
BRANCH  10  15
HETATM   15  C   UNL     1     -41.805  56.367 -51.446  1.00  0.00     0.020 A 
HETATM   16  C   UNL     1     -41.768  55.127 -50.780  1.00  0.00     0.085 A 
HETATM   17  C   UNL     1     -41.970  53.925 -51.465  1.00  0.00     0.039 A 
HETATM   18  C   UNL     1     -42.149  53.938 -52.846  1.00  0.00     0.022 A 
HETATM   19  C   UNL     1     -42.132  55.149 -53.533  1.00  0.00     0.011 A 
HETATM   20 BR   UNL     1     -42.363  55.166 -55.408  1.00  0.00    -0.051 Br
HETATM   21  C   UNL     1     -41.955  56.353 -52.848  1.00  0.00     0.033 A 
BRANCH  16  22
HETATM   22  O   UNL     1     -41.595  55.103 -49.420  1.00  0.00    -0.289 OA
BRANCH  22  23
HETATM   23  C   UNL     1     -40.502  54.260 -49.059  1.00  0.00     0.505 C 
HETATM   24  F   UNL     1     -39.373  54.800 -49.601  1.00  0.00    -0.184 F 
HETATM   25  F   UNL     1     -40.354  54.354 -47.718  1.00  0.00    -0.184 F 
ENDBRANCH  22  23
ENDBRANCH  16  22
ENDBRANCH  10  15
BRANCH   8  26
HETATM   26  N   UNL     1     -38.321  59.183 -51.029  1.00  0.00    -0.272 NA
HETATM   27  H   UNL     1     -37.892  59.305 -51.943  1.00  0.00     0.127 HD
HETATM   28  H   UNL     1     -37.856  58.467 -50.487  1.00  0.00     0.127 HD
ENDBRANCH   8  26
TORSDOF 4
ENDMDL
MODEL 9
REMARK VINA RESULT:      -6.8      3.690      5.098
REMARK  4 active torsions:
REMARK  status: ('A' for Active; 'I' for Inactive)
REMARK    1  A    between atoms: C_8  and  N_9 
REMARK    2  A    between atoms: C_11  and  C_12 
REMARK    3  A    between atoms: C_13  and  O_14 
REMARK    4  A    between atoms: O_14  and  C_15 
ROOT
HETATM    1  C   UNL     1     -42.974  56.597 -57.172  1.00  0.00     0.002 A 
HETATM    2  C   UNL     1     -43.552  57.859 -56.990  1.00  0.00     0.034 A 
HETATM    3  C   UNL     1     -44.026  58.205 -55.717  1.00  0.00     0.103 A 
HETATM    4  C   UNL     1     -43.908  57.294 -54.672  1.00  0.00     0.083 A 
HETATM    5  N   UNL     1     -44.440  57.970 -53.607  1.00  0.00    -0.151 N 
HETATM    6  C   UNL     1     -44.902  59.194 -54.018  1.00  0.00     0.734 A 
HETATM    7  N   UNL     1     -45.534  60.056 -53.190  1.00  0.00    -0.033 NA
HETATM    8  C   UNL     1     -45.734  59.714 -51.969  1.00  0.00     0.193 A 
HETATM    9  N   UNL     1     -45.324  58.502 -51.409  1.00  0.00    -0.338 N 
HETATM   10  C   UNL     1     -44.597  57.541 -52.234  1.00  0.00     0.246 A 
HETATM   11  N   UNL     1     -44.629  59.362 -55.293  1.00  0.00    -0.060 NA
HETATM   12  C   UNL     1     -43.337  56.026 -54.828  1.00  0.00     0.033 A 
HETATM   13  C   UNL     1     -42.870  55.699 -56.107  1.00  0.00     0.002 A 
HETATM   14  H   UNL     1     -45.567  58.259 -50.457  1.00  0.00     0.164 HD
ENDROOT
BRANCH  10  15
HETATM   15  C   UNL     1     -43.276  57.272 -51.527  1.00  0.00     0.020 A 
HETATM   16  C   UNL     1     -43.121  56.117 -50.736  1.00  0.00     0.085 A 
HETATM   17  C   UNL     1     -41.913  55.830 -50.094  1.00  0.00     0.039 A 
HETATM   18  C   UNL     1     -40.854  56.730 -50.179  1.00  0.00     0.022 A 
HETATM   19  C   UNL     1     -41.004  57.906 -50.909  1.00  0.00     0.011 A 
HETATM   20 BR   UNL     1     -39.572  59.133 -51.014  1.00  0.00    -0.051 Br
HETATM   21  C   UNL     1     -42.202  58.184 -51.571  1.00  0.00     0.033 A 
BRANCH  16  22
HETATM   22  O   UNL     1     -44.156  55.223 -50.648  1.00  0.00    -0.289 OA
BRANCH  22  23
HETATM   23  C   UNL     1     -43.738  53.918 -51.044  1.00  0.00     0.505 C 
HETATM   24  F   UNL     1     -44.811  53.086 -50.910  1.00  0.00    -0.184 F 
HETATM   25  F   UNL     1     -43.471  53.971 -52.370  1.00  0.00    -0.184 F 
ENDBRANCH  22  23
ENDBRANCH  16  22
ENDBRANCH  10  15
BRANCH   8  26
HETATM   26  N   UNL     1     -46.378  60.500 -51.083  1.00  0.00    -0.272 NA
HETATM   27  H   UNL     1     -47.354  60.629 -51.341  1.00  0.00     0.127 HD
HETATM   28  H   UNL     1     -45.935  61.375 -50.837  1.00  0.00     0.127 HD
ENDBRANCH   8  26
TORSDOF 4
ENDMDL
MODEL 10
REMARK VINA RESULT:      -6.8      4.091      4.986
REMARK  4 active torsions:
REMARK  status: ('A' for Active; 'I' for Inactive)
REMARK    1  A    between atoms: C_8  and  N_9 
REMARK    2  A    between atoms: C_11  and  C_12 
REMARK    3  A    between atoms: C_13  and  O_14 
REMARK    4  A    between atoms: O_14  and  C_15 
ROOT
HETATM    1  C   UNL     1     -40.358  52.971 -54.691  1.00  0.00     0.002 A 
HETATM    2  C   UNL     1     -41.445  52.855 -53.817  1.00  0.00     0.034 A 
HETATM    3  C   UNL     1     -42.010  54.022 -53.287  1.00  0.00     0.103 A 
HETATM    4  C   UNL     1     -41.484  55.260 -53.643  1.00  0.00     0.083 A 
HETATM    5  N   UNL     1     -42.285  56.144 -52.970  1.00  0.00    -0.151 N 
HETATM    6  C   UNL     1     -43.198  55.459 -52.210  1.00  0.00     0.734 A 
HETATM    7  N   UNL     1     -44.082  56.074 -51.392  1.00  0.00    -0.033 NA
HETATM    8  C   UNL     1     -44.058  57.354 -51.299  1.00  0.00     0.193 A 
HETATM    9  N   UNL     1     -43.187  58.183 -52.008  1.00  0.00    -0.338 N 
HETATM   10  C   UNL     1     -42.235  57.590 -52.943  1.00  0.00     0.246 A 
HETATM   11  N   UNL     1     -43.061  54.167 -52.417  1.00  0.00    -0.060 NA
HETATM   12  C   UNL     1     -40.398  55.403 -54.512  1.00  0.00     0.033 A 
HETATM   13  C   UNL     1     -39.846  54.226 -55.031  1.00  0.00     0.002 A 
HETATM   14  H   UNL     1     -43.169  59.182 -51.846  1.00  0.00     0.164 HD
ENDROOT
BRANCH  10  15
HETATM   15  C   UNL     1     -42.498  58.233 -54.298  1.00  0.00     0.020 A 
HETATM   16  C   UNL     1     -42.305  59.617 -54.472  1.00  0.00     0.085 A 
HETATM   17  C   UNL     1     -42.515  60.233 -55.709  1.00  0.00     0.039 A 
HETATM   18  C   UNL     1     -42.985  59.482 -56.784  1.00  0.00     0.022 A 
HETATM   19  C   UNL     1     -43.236  58.122 -56.619  1.00  0.00     0.011 A 
HETATM   20 BR   UNL     1     -43.885  57.106 -58.073  1.00  0.00    -0.051 Br
HETATM   21  C   UNL     1     -43.004  57.500 -55.390  1.00  0.00     0.033 A 
BRANCH  16  22
HETATM   22  O   UNL     1     -41.840  60.364 -53.421  1.00  0.00    -0.289 OA
BRANCH  22  23
HETATM   23  C   UNL     1     -42.840  61.271 -52.958  1.00  0.00     0.505 C 
HETATM   24  F   UNL     1     -42.726  61.347 -51.601  1.00  0.00    -0.184 F 
HETATM   25  F   UNL     1     -42.512  62.497 -53.428  1.00  0.00    -0.184 F 
ENDBRANCH  22  23
ENDBRANCH  16  22
ENDBRANCH  10  15
BRANCH   8  26
HETATM   26  N   UNL     1     -44.885  58.045 -50.489  1.00  0.00    -0.272 NA
HETATM   27  H   UNL     1     -44.378  58.744 -49.951  1.00  0.00     0.127 HD
HETATM   28  H   UNL     1     -45.517  57.510 -49.910  1.00  0.00     0.127 HD
ENDBRANCH   8  26
TORSDOF 4
ENDMDL
