MODEL 1
REMARK VINA RESULT:      -8.6      0.000      0.000
REMARK  3 active torsions:
REMARK  status: ('A' for Active; 'I' for Inactive)
REMARK    1  A    between atoms: C_6  and  N_7 
REMARK    2  A    between atoms: N_7  and  N_8 
REMARK    3  A    between atoms: C_9  and  C_10 
ROOT
HETATM    1  C   UNL     1     -41.632  55.994 -54.294  1.00  0.00     0.024 A 
HETATM    2  C   UNL     1     -41.390  56.180 -52.944  1.00  0.00     0.138 A 
HETATM    3 CL   UNL     1     -41.646  57.672 -52.126  1.00  0.00    -0.061 Cl
HETATM    4  N   UNL     1     -40.924  55.213 -52.117  1.00  0.00    -0.235 NA
HETATM    5  C   UNL     1     -40.683  53.995 -52.633  1.00  0.00     0.071 A 
HETATM    6  C   UNL     1     -40.899  53.706 -53.999  1.00  0.00    -0.004 A 
HETATM    7  C   UNL     1     -41.379  54.728 -54.824  1.00  0.00     0.030 A 
HETATM    8  C   UNL     1     -40.212  52.978 -51.814  1.00  0.00     0.072 A 
HETATM    9  C   UNL     1     -39.959  51.701 -52.315  1.00  0.00     0.104 A 
HETATM   10  C   UNL     1     -40.147  51.430 -53.669  1.00  0.00     0.103 A 
HETATM   11  O   UNL     1     -39.890  50.212 -54.241  1.00  0.00    -0.346 OA
HETATM   12  C   UNL     1     -39.093  49.389 -53.379  1.00  0.00     0.202 C 
HETATM   13  C   UNL     1     -39.622  49.435 -51.955  1.00  0.00     0.202 C 
HETATM   14  O   UNL     1     -39.517  50.761 -51.419  1.00  0.00    -0.346 OA
HETATM   15  C   UNL     1     -40.632  52.425 -54.510  1.00  0.00     0.053 A 
ENDROOT
BRANCH   1  16
HETATM   16  C   UNL     1     -42.142  57.065 -55.171  1.00  0.00     0.154 C 
HETATM   17  N   UNL     1     -42.617  56.778 -56.343  1.00  0.00    -0.172 NA
BRANCH  17  18
HETATM   18  N   UNL     1     -43.062  57.836 -57.074  1.00  0.00    -0.108 N 
HETATM   19  H   UNL     1     -42.659  58.765 -56.966  1.00  0.00     0.208 HD
BRANCH  18  20
HETATM   20  C   UNL     1     -44.063  57.729 -57.972  1.00  0.00     0.721 A 
HETATM   21  N   UNL     1     -44.880  58.655 -58.414  1.00  0.00    -0.061 NA
HETATM   22  C   UNL     1     -45.703  58.009 -59.310  1.00  0.00     0.103 A 
HETATM   23  C   UNL     1     -45.374  56.661 -59.413  1.00  0.00     0.078 A 
HETATM   24  C   UNL     1     -46.762  58.510 -60.081  1.00  0.00     0.034 A 
HETATM   25  C   UNL     1     -46.041  55.763 -60.247  1.00  0.00     0.032 A 
HETATM   26  N   UNL     1     -44.326  56.516 -58.548  1.00  0.00    -0.186 N 
HETATM   27  C   UNL     1     -47.095  56.282 -61.007  1.00  0.00     0.002 A 
HETATM   28  C   UNL     1     -47.451  57.632 -60.928  1.00  0.00     0.002 A 
HETATM   29  H   UNL     1     -43.803  55.681 -58.335  1.00  0.00     0.184 HD
ENDBRANCH  18  20
ENDBRANCH  17  18
ENDBRANCH   1  16
TORSDOF 3
ENDMDL
MODEL 2
REMARK VINA RESULT:      -8.5      2.513      3.017
REMARK  3 active torsions:
REMARK  status: ('A' for Active; 'I' for Inactive)
REMARK    1  A    between atoms: C_6  and  N_7 
REMARK    2  A    between atoms: N_7  and  N_8 
REMARK    3  A    between atoms: C_9  and  C_10 
ROOT
HETATM    1  C   UNL     1     -41.741  56.353 -53.500  1.00  0.00     0.024 A 
HETATM    2  C   UNL     1     -41.432  56.302 -52.151  1.00  0.00     0.138 A 
HETATM    3 CL   UNL     1     -41.646  57.625 -51.073  1.00  0.00    -0.061 Cl
HETATM    4  N   UNL     1     -40.928  55.208 -51.530  1.00  0.00    -0.235 NA
HETATM    5  C   UNL     1     -40.714  54.102 -52.263  1.00  0.00     0.071 A 
HETATM    6  C   UNL     1     -40.997  54.054 -53.646  1.00  0.00    -0.004 A 
HETATM    7  C   UNL     1     -41.515  55.201 -54.255  1.00  0.00     0.030 A 
HETATM    8  C   UNL     1     -40.204  52.960 -51.658  1.00  0.00     0.072 A 
HETATM    9  C   UNL     1     -39.978  51.792 -52.387  1.00  0.00     0.104 A 
HETATM   10  C   UNL     1     -40.233  51.761 -53.756  1.00  0.00     0.103 A 
HETATM   11  O   UNL     1     -40.006  50.664 -54.544  1.00  0.00    -0.346 OA
HETATM   12  C   UNL     1     -39.169  49.709 -53.880  1.00  0.00     0.202 C 
HETATM   13  C   UNL     1     -39.627  49.501 -52.446  1.00  0.00     0.202 C 
HETATM   14  O   UNL     1     -39.494  50.713 -51.691  1.00  0.00    -0.346 OA
HETATM   15  C   UNL     1     -40.757  52.885 -54.385  1.00  0.00     0.053 A 
ENDROOT
BRANCH   1  16
HETATM   16  C   UNL     1     -42.291  57.557 -54.150  1.00  0.00     0.154 C 
HETATM   17  N   UNL     1     -41.502  58.514 -54.528  1.00  0.00    -0.172 NA
BRANCH  17  18
HETATM   18  N   UNL     1     -42.108  59.579 -55.118  1.00  0.00    -0.108 N 
HETATM   19  H   UNL     1     -42.675  60.234 -54.581  1.00  0.00     0.208 HD
BRANCH  18  20
HETATM   20  C   UNL     1     -42.008  59.832 -56.439  1.00  0.00     0.721 A 
HETATM   21  N   UNL     1     -41.677  60.947 -57.045  1.00  0.00    -0.061 NA
HETATM   22  C   UNL     1     -41.735  60.655 -58.391  1.00  0.00     0.103 A 
HETATM   23  C   UNL     1     -42.110  59.332 -58.601  1.00  0.00     0.078 A 
HETATM   24  C   UNL     1     -41.480  61.474 -59.500  1.00  0.00     0.034 A 
HETATM   25  C   UNL     1     -42.251  58.759 -59.866  1.00  0.00     0.032 A 
HETATM   26  N   UNL     1     -42.277  58.836 -57.339  1.00  0.00    -0.186 N 
HETATM   27  C   UNL     1     -41.992  59.593 -60.961  1.00  0.00     0.002 A 
HETATM   28  C   UNL     1     -41.613  60.927 -60.784  1.00  0.00     0.002 A 
HETATM   29  H   UNL     1     -42.548  57.906 -57.064  1.00  0.00     0.184 HD
ENDBRANCH  18  20
ENDBRANCH  17  18
ENDBRANCH   1  16
TORSDOF 3
ENDMDL
MODEL 3
REMARK VINA RESULT:      -8.3      5.623      9.530
REMARK  3 active torsions:
REMARK  status: ('A' for Active; 'I' for Inactive)
REMARK    1  A    between atoms: C_6  and  N_7 
REMARK    2  A    between atoms: N_7  and  N_8 
REMARK    3  A    between atoms: C_9  and  C_10 
ROOT
HETATM    1  C   UNL     1     -43.398  56.568 -52.752  1.00  0.00     0.024 A 
HETATM    2  C   UNL     1     -43.939  56.252 -51.517  1.00  0.00     0.138 A 
HETATM    3 CL   UNL     1     -43.753  54.718 -50.760  1.00  0.00    -0.061 Cl
HETATM    4  N   UNL     1     -44.673  57.111 -50.768  1.00  0.00    -0.235 NA
HETATM    5  C   UNL     1     -44.891  58.347 -51.249  1.00  0.00     0.071 A 
HETATM    6  C   UNL     1     -44.382  58.765 -52.499  1.00  0.00    -0.004 A 
HETATM    7  C   UNL     1     -43.630  57.853 -53.245  1.00  0.00     0.030 A 
HETATM    8  C   UNL     1     -45.633  59.255 -50.505  1.00  0.00     0.072 A 
HETATM    9  C   UNL     1     -45.873  60.549 -50.970  1.00  0.00     0.104 A 
HETATM   10  C   UNL     1     -45.391  60.946 -52.216  1.00  0.00     0.103 A 
HETATM   11  O   UNL     1     -45.612  62.187 -52.753  1.00  0.00    -0.346 OA
HETATM   12  C   UNL     1     -46.661  62.875 -52.062  1.00  0.00     0.202 C 
HETATM   13  C   UNL     1     -46.486  62.747 -50.557  1.00  0.00     0.202 C 
HETATM   14  O   UNL     1     -46.598  61.376 -50.150  1.00  0.00    -0.346 OA
HETATM   15  C   UNL     1     -44.633  60.062 -52.975  1.00  0.00     0.053 A 
ENDROOT
BRANCH   1  16
HETATM   16  C   UNL     1     -42.600  55.614 -53.545  1.00  0.00     0.154 C 
HETATM   17  N   UNL     1     -41.316  55.757 -53.639  1.00  0.00    -0.172 NA
BRANCH  17  18
HETATM   18  N   UNL     1     -40.672  54.825 -54.393  1.00  0.00    -0.108 N 
HETATM   19  H   UNL     1     -40.370  55.026 -55.345  1.00  0.00     0.208 HD
BRANCH  18  20
HETATM   20  C   UNL     1     -40.402  53.584 -53.939  1.00  0.00     0.721 A 
HETATM   21  N   UNL     1     -40.256  52.469 -54.615  1.00  0.00    -0.061 NA
HETATM   22  C   UNL     1     -39.995  51.505 -53.666  1.00  0.00     0.103 A 
HETATM   23  C   UNL     1     -39.981  52.052 -52.386  1.00  0.00     0.078 A 
HETATM   24  C   UNL     1     -39.758  50.132 -53.820  1.00  0.00     0.034 A 
HETATM   25  C   UNL     1     -39.742  51.308 -51.230  1.00  0.00     0.032 A 
HETATM   26  N   UNL     1     -40.243  53.377 -52.595  1.00  0.00    -0.186 N 
HETATM   27  C   UNL     1     -39.507  49.939 -51.405  1.00  0.00     0.002 A 
HETATM   28  C   UNL     1     -39.514  49.359 -52.677  1.00  0.00     0.002 A 
HETATM   29  H   UNL     1     -40.318  54.114 -51.913  1.00  0.00     0.184 HD
ENDBRANCH  18  20
ENDBRANCH  17  18
ENDBRANCH   1  16
TORSDOF 3
ENDMDL
MODEL 4
REMARK VINA RESULT:      -8.3      4.957      9.763
REMARK  3 active torsions:
REMARK  status: ('A' for Active; 'I' for Inactive)
REMARK    1  A    between atoms: C_6  and  N_7 
REMARK    2  A    between atoms: N_7  and  N_8 
REMARK    3  A    between atoms: C_9  and  C_10 
ROOT
HETATM    1  C   UNL     1     -42.902  56.853 -57.936  1.00  0.00     0.024 A 
HETATM    2  C   UNL     1     -43.132  56.716 -59.294  1.00  0.00     0.138 A 
HETATM    3 CL   UNL     1     -43.801  55.303 -60.011  1.00  0.00    -0.061 Cl
HETATM    4  N   UNL     1     -42.857  57.677 -60.210  1.00  0.00    -0.235 NA
HETATM    5  C   UNL     1     -42.331  58.836 -59.778  1.00  0.00     0.071 A 
HETATM    6  C   UNL     1     -42.059  59.071 -58.411  1.00  0.00    -0.004 A 
HETATM    7  C   UNL     1     -42.354  58.058 -57.494  1.00  0.00     0.030 A 
HETATM    8  C   UNL     1     -42.043  59.845 -60.687  1.00  0.00     0.072 A 
HETATM    9  C   UNL     1     -41.503  61.063 -60.272  1.00  0.00     0.104 A 
HETATM   10  C   UNL     1     -41.212  61.278 -58.927  1.00  0.00     0.103 A 
HETATM   11  O   UNL     1     -40.652  62.433 -58.448  1.00  0.00    -0.346 OA
HETATM   12  C   UNL     1     -40.093  63.220 -59.507  1.00  0.00     0.202 C 
HETATM   13  C   UNL     1     -41.056  63.302 -60.680  1.00  0.00     0.202 C 
HETATM   14  O   UNL     1     -41.276  62.003 -61.246  1.00  0.00    -0.346 OA
HETATM   15  C   UNL     1     -41.503  60.291 -57.993  1.00  0.00     0.053 A 
ENDROOT
BRANCH   1  16
HETATM   16  C   UNL     1     -43.213  55.791 -56.960  1.00  0.00     0.154 C 
HETATM   17  N   UNL     1     -43.447  56.090 -55.721  1.00  0.00    -0.172 NA
BRANCH  17  18
HETATM   18  N   UNL     1     -43.725  55.040 -54.902  1.00  0.00    -0.108 N 
HETATM   19  H   UNL     1     -44.684  54.773 -54.685  1.00  0.00     0.208 HD
BRANCH  18  20
HETATM   20  C   UNL     1     -42.761  54.296 -54.322  1.00  0.00     0.721 A 
HETATM   21  N   UNL     1     -41.955  53.416 -54.865  1.00  0.00    -0.061 NA
HETATM   22  C   UNL     1     -41.175  52.954 -53.827  1.00  0.00     0.103 A 
HETATM   23  C   UNL     1     -41.519  53.571 -52.628  1.00  0.00     0.078 A 
HETATM   24  C   UNL     1     -40.147  52.001 -53.830  1.00  0.00     0.034 A 
HETATM   25  C   UNL     1     -40.895  53.298 -51.410  1.00  0.00     0.032 A 
HETATM   26  N   UNL     1     -42.531  54.420 -52.978  1.00  0.00    -0.186 N 
HETATM   27  C   UNL     1     -39.871  52.343 -51.434  1.00  0.00     0.002 A 
HETATM   28  C   UNL     1     -39.501  51.705 -52.621  1.00  0.00     0.002 A 
HETATM   29  H   UNL     1     -43.051  55.049 -52.387  1.00  0.00     0.184 HD
ENDBRANCH  18  20
ENDBRANCH  17  18
ENDBRANCH   1  16
TORSDOF 3
ENDMDL
MODEL 5
REMARK VINA RESULT:      -8.3      1.717      2.046
REMARK  3 active torsions:
REMARK  status: ('A' for Active; 'I' for Inactive)
REMARK    1  A    between atoms: C_6  and  N_7 
REMARK    2  A    between atoms: N_7  and  N_8 
REMARK    3  A    between atoms: C_9  and  C_10 
ROOT
HETATM    1  C   UNL     1     -44.054  56.728 -53.858  1.00  0.00     0.024 A 
HETATM    2  C   UNL     1     -43.508  57.104 -52.642  1.00  0.00     0.138 A 
HETATM    3 CL   UNL     1     -43.967  58.525 -51.789  1.00  0.00    -0.061 Cl
HETATM    4  N   UNL     1     -42.553  56.397 -51.990  1.00  0.00    -0.235 NA
HETATM    5  C   UNL     1     -42.107  55.260 -52.552  1.00  0.00     0.071 A 
HETATM    6  C   UNL     1     -42.601  54.793 -53.790  1.00  0.00    -0.004 A 
HETATM    7  C   UNL     1     -43.585  55.548 -54.436  1.00  0.00     0.030 A 
HETATM    8  C   UNL     1     -41.134  54.507 -51.908  1.00  0.00     0.072 A 
HETATM    9  C   UNL     1     -40.654  53.319 -52.459  1.00  0.00     0.104 A 
HETATM   10  C   UNL     1     -41.126  52.878 -53.693  1.00  0.00     0.103 A 
HETATM   11  O   UNL     1     -40.680  51.741 -54.313  1.00  0.00    -0.346 OA
HETATM   12  C   UNL     1     -39.459  51.271 -53.727  1.00  0.00     0.202 C 
HETATM   13  C   UNL     1     -39.550  51.295 -52.210  1.00  0.00     0.202 C 
HETATM   14  O   UNL     1     -39.709  52.638 -51.733  1.00  0.00    -0.346 OA
HETATM   15  C   UNL     1     -42.110  53.605 -54.354  1.00  0.00     0.053 A 
ENDROOT
BRANCH   1  16
HETATM   16  C   UNL     1     -45.094  57.516 -54.546  1.00  0.00     0.154 C 
HETATM   17  N   UNL     1     -44.799  58.206 -55.603  1.00  0.00    -0.172 NA
BRANCH  17  18
HETATM   18  N   UNL     1     -45.829  58.896 -56.163  1.00  0.00    -0.108 N 
HETATM   19  H   UNL     1     -46.312  59.637 -55.656  1.00  0.00     0.208 HD
BRANCH  18  20
HETATM   20  C   UNL     1     -46.281  58.644 -57.408  1.00  0.00     0.721 A 
HETATM   21  N   UNL     1     -46.742  59.481 -58.307  1.00  0.00    -0.061 NA
HETATM   22  C   UNL     1     -47.065  58.698 -59.394  1.00  0.00     0.103 A 
HETATM   23  C   UNL     1     -46.792  57.356 -59.145  1.00  0.00     0.078 A 
HETATM   24  C   UNL     1     -47.601  59.063 -60.637  1.00  0.00     0.034 A 
HETATM   25  C   UNL     1     -47.021  56.336 -60.070  1.00  0.00     0.032 A 
HETATM   26  N   UNL     1     -46.294  57.356 -57.873  1.00  0.00    -0.186 N 
HETATM   27  C   UNL     1     -47.556  56.721 -61.304  1.00  0.00     0.002 A 
HETATM   28  C   UNL     1     -47.841  58.060 -61.586  1.00  0.00     0.002 A 
HETATM   29  H   UNL     1     -45.978  56.571 -57.326  1.00  0.00     0.184 HD
ENDBRANCH  18  20
ENDBRANCH  17  18
ENDBRANCH   1  16
TORSDOF 3
ENDMDL
MODEL 6
REMARK VINA RESULT:      -8.1      2.994      3.874
REMARK  3 active torsions:
REMARK  status: ('A' for Active; 'I' for Inactive)
REMARK    1  A    between atoms: C_6  and  N_7 
REMARK    2  A    between atoms: N_7  and  N_8 
REMARK    3  A    between atoms: C_9  and  C_10 
ROOT
HETATM    1  C   UNL     1     -42.012  57.938 -53.043  1.00  0.00     0.024 A 
HETATM    2  C   UNL     1     -41.957  58.102 -51.669  1.00  0.00     0.138 A 
HETATM    3 CL   UNL     1     -42.360  59.569 -50.866  1.00  0.00    -0.061 Cl
HETATM    4  N   UNL     1     -41.580  57.129 -50.804  1.00  0.00    -0.235 NA
HETATM    5  C   UNL     1     -41.239  55.929 -51.305  1.00  0.00     0.071 A 
HETATM    6  C   UNL     1     -41.263  55.663 -52.693  1.00  0.00    -0.004 A 
HETATM    7  C   UNL     1     -41.656  56.690 -53.556  1.00  0.00     0.030 A 
HETATM    8  C   UNL     1     -40.854  54.906 -50.448  1.00  0.00     0.072 A 
HETATM    9  C   UNL     1     -40.502  53.647 -50.934  1.00  0.00     0.104 A 
HETATM   10  C   UNL     1     -40.501  53.400 -52.305  1.00  0.00     0.103 A 
HETATM   11  O   UNL     1     -40.137  52.201 -52.859  1.00  0.00    -0.346 OA
HETATM   12  C   UNL     1     -39.441  51.379 -51.913  1.00  0.00     0.202 C 
HETATM   13  C   UNL     1     -40.156  51.383 -50.572  1.00  0.00     0.202 C 
HETATM   14  O   UNL     1     -40.159  52.699 -50.003  1.00  0.00    -0.346 OA
HETATM   15  C   UNL     1     -40.896  54.400 -53.185  1.00  0.00     0.053 A 
ENDROOT
BRANCH   1  16
HETATM   16  C   UNL     1     -42.429  59.015 -53.961  1.00  0.00     0.154 C 
HETATM   17  N   UNL     1     -41.542  59.678 -54.635  1.00  0.00    -0.172 NA
BRANCH  17  18
HETATM   18  N   UNL     1     -42.028  60.649 -55.454  1.00  0.00    -0.108 N 
HETATM   19  H   UNL     1     -42.463  61.491 -55.082  1.00  0.00     0.208 HD
BRANCH  18  20
HETATM   20  C   UNL     1     -41.977  60.558 -56.799  1.00  0.00     0.721 A 
HETATM   21  N   UNL     1     -42.306  59.552 -57.574  1.00  0.00    -0.061 NA
HETATM   22  C   UNL     1     -42.058  59.991 -58.856  1.00  0.00     0.103 A 
HETATM   23  C   UNL     1     -41.568  61.293 -58.855  1.00  0.00     0.078 A 
HETATM   24  C   UNL     1     -42.226  59.329 -60.081  1.00  0.00     0.034 A 
HETATM   25  C   UNL     1     -41.230  61.994 -60.014  1.00  0.00     0.032 A 
HETATM   26  N   UNL     1     -41.529  61.625 -57.530  1.00  0.00    -0.186 N 
HETATM   27  C   UNL     1     -41.405  61.316 -61.226  1.00  0.00     0.002 A 
HETATM   28  C   UNL     1     -41.895  60.007 -61.262  1.00  0.00     0.002 A 
HETATM   29  H   UNL     1     -41.230  62.492 -57.112  1.00  0.00     0.184 HD
ENDBRANCH  18  20
ENDBRANCH  17  18
ENDBRANCH   1  16
TORSDOF 3
ENDMDL
MODEL 7
REMARK VINA RESULT:      -8.1      4.609      6.286
REMARK  3 active torsions:
REMARK  status: ('A' for Active; 'I' for Inactive)
REMARK    1  A    between atoms: C_6  and  N_7 
REMARK    2  A    between atoms: N_7  and  N_8 
REMARK    3  A    between atoms: C_9  and  C_10 
ROOT
HETATM    1  C   UNL     1     -42.018  56.225 -52.458  1.00  0.00     0.024 A 
HETATM    2  C   UNL     1     -41.360  56.055 -51.252  1.00  0.00     0.138 A 
HETATM    3 CL   UNL     1     -41.316  57.248 -50.013  1.00  0.00    -0.061 Cl
HETATM    4  N   UNL     1     -40.677  54.934 -50.911  1.00  0.00    -0.235 NA
HETATM    5  C   UNL     1     -40.636  53.922 -51.795  1.00  0.00     0.071 A 
HETATM    6  C   UNL     1     -41.275  53.998 -53.052  1.00  0.00    -0.004 A 
HETATM    7  C   UNL     1     -41.969  55.170 -53.371  1.00  0.00     0.030 A 
HETATM    8  C   UNL     1     -39.951  52.756 -51.476  1.00  0.00     0.072 A 
HETATM    9  C   UNL     1     -39.894  51.683 -52.366  1.00  0.00     0.104 A 
HETATM   10  C   UNL     1     -40.504  51.776 -53.616  1.00  0.00     0.103 A 
HETATM   11  O   UNL     1     -40.464  50.779 -54.554  1.00  0.00    -0.346 OA
HETATM   12  C   UNL     1     -39.454  49.811 -54.244  1.00  0.00     0.202 C 
HETATM   13  C   UNL     1     -39.507  49.433 -52.773  1.00  0.00     0.202 C 
HETATM   14  O   UNL     1     -39.212  50.568 -51.948  1.00  0.00    -0.346 OA
HETATM   15  C   UNL     1     -41.208  52.926 -53.955  1.00  0.00     0.053 A 
ENDROOT
BRANCH   1  16
HETATM   16  C   UNL     1     -42.756  57.455 -52.802  1.00  0.00     0.154 C 
HETATM   17  N   UNL     1     -43.952  57.649 -52.341  1.00  0.00    -0.172 NA
BRANCH  17  18
HETATM   18  N   UNL     1     -44.546  58.815 -52.715  1.00  0.00    -0.108 N 
HETATM   19  H   UNL     1     -44.641  59.073 -53.696  1.00  0.00     0.208 HD
BRANCH  18  20
HETATM   20  C   UNL     1     -45.033  59.701 -51.824  1.00  0.00     0.721 A 
HETATM   21  N   UNL     1     -45.803  60.743 -52.029  1.00  0.00    -0.061 NA
HETATM   22  C   UNL     1     -45.996  61.297 -50.782  1.00  0.00     0.103 A 
HETATM   23  C   UNL     1     -45.328  60.572 -49.801  1.00  0.00     0.078 A 
HETATM   24  C   UNL     1     -46.735  62.428 -50.406  1.00  0.00     0.034 A 
HETATM   25  C   UNL     1     -45.347  60.903 -48.445  1.00  0.00     0.032 A 
HETATM   26  N   UNL     1     -44.725  59.562 -50.497  1.00  0.00    -0.186 N 
HETATM   27  C   UNL     1     -46.090  62.036 -48.090  1.00  0.00     0.002 A 
HETATM   28  C   UNL     1     -46.773  62.787 -49.051  1.00  0.00     0.002 A 
HETATM   29  H   UNL     1     -44.144  58.820 -50.142  1.00  0.00     0.184 HD
ENDBRANCH  18  20
ENDBRANCH  17  18
ENDBRANCH   1  16
TORSDOF 3
ENDMDL
MODEL 8
REMARK VINA RESULT:      -8.1      4.503      6.380
REMARK  3 active torsions:
REMARK  status: ('A' for Active; 'I' for Inactive)
REMARK    1  A    between atoms: C_6  and  N_7 
REMARK    2  A    between atoms: N_7  and  N_8 
REMARK    3  A    between atoms: C_9  and  C_10 
ROOT
HETATM    1  C   UNL     1     -41.820  56.388 -51.969  1.00  0.00     0.024 A 
HETATM    2  C   UNL     1     -42.162  56.315 -53.308  1.00  0.00     0.138 A 
HETATM    3 CL   UNL     1     -42.939  57.588 -54.166  1.00  0.00    -0.061 Cl
HETATM    4  N   UNL     1     -41.924  55.235 -54.093  1.00  0.00    -0.235 NA
HETATM    5  C   UNL     1     -41.319  54.169 -53.542  1.00  0.00     0.071 A 
HETATM    6  C   UNL     1     -40.931  54.147 -52.184  1.00  0.00    -0.004 A 
HETATM    7  C   UNL     1     -41.192  55.277 -51.403  1.00  0.00     0.030 A 
HETATM    8  C   UNL     1     -41.054  53.049 -54.318  1.00  0.00     0.072 A 
HETATM    9  C   UNL     1     -40.420  51.928 -53.781  1.00  0.00     0.104 A 
HETATM   10  C   UNL     1     -40.065  51.902 -52.434  1.00  0.00     0.103 A 
HETATM   11  O   UNL     1     -39.470  50.828 -51.828  1.00  0.00    -0.346 OA
HETATM   12  C   UNL     1     -39.580  49.647 -52.632  1.00  0.00     0.202 C 
HETATM   13  C   UNL     1     -39.242  49.953 -54.082  1.00  0.00     0.202 C 
HETATM   14  O   UNL     1     -40.184  50.881 -54.637  1.00  0.00    -0.346 OA
HETATM   15  C   UNL     1     -40.305  53.015 -51.637  1.00  0.00     0.053 A 
ENDROOT
BRANCH   1  16
HETATM   16  C   UNL     1     -42.088  57.578 -51.138  1.00  0.00     0.154 C 
HETATM   17  N   UNL     1     -41.129  58.398 -50.843  1.00  0.00    -0.172 NA
BRANCH  17  18
HETATM   18  N   UNL     1     -41.479  59.463 -50.073  1.00  0.00    -0.108 N 
HETATM   19  H   UNL     1     -41.002  59.668 -49.197  1.00  0.00     0.208 HD
BRANCH  18  20
HETATM   20  C   UNL     1     -42.479  60.305 -50.408  1.00  0.00     0.721 A 
HETATM   21  N   UNL     1     -42.594  61.073 -51.466  1.00  0.00    -0.061 NA
HETATM   22  C   UNL     1     -43.800  61.721 -51.308  1.00  0.00     0.103 A 
HETATM   23  C   UNL     1     -44.427  61.335 -50.127  1.00  0.00     0.078 A 
HETATM   24  C   UNL     1     -44.430  62.661 -52.136  1.00  0.00     0.034 A 
HETATM   25  C   UNL     1     -45.663  61.831 -49.710  1.00  0.00     0.032 A 
HETATM   26  N   UNL     1     -43.560  60.433 -49.579  1.00  0.00    -0.186 N 
HETATM   27  C   UNL     1     -46.275  62.768 -50.549  1.00  0.00     0.002 A 
HETATM   28  C   UNL     1     -45.673  63.178 -51.743  1.00  0.00     0.002 A 
HETATM   29  H   UNL     1     -43.653  59.923 -48.715  1.00  0.00     0.184 HD
ENDBRANCH  18  20
ENDBRANCH  17  18
ENDBRANCH   1  16
TORSDOF 3
ENDMDL
MODEL 9
REMARK VINA RESULT:      -8.1      6.048      9.740
REMARK  3 active torsions:
REMARK  status: ('A' for Active; 'I' for Inactive)
REMARK    1  A    between atoms: C_6  and  N_7 
REMARK    2  A    between atoms: N_7  and  N_8 
REMARK    3  A    between atoms: C_9  and  C_10 
ROOT
HETATM    1  C   UNL     1     -43.502  58.662 -52.384  1.00  0.00     0.024 A 
HETATM    2  C   UNL     1     -42.551  59.659 -52.518  1.00  0.00     0.138 A 
HETATM    3 CL   UNL     1     -41.227  59.574 -53.613  1.00  0.00    -0.061 Cl
HETATM    4  N   UNL     1     -42.555  60.811 -51.804  1.00  0.00    -0.235 NA
HETATM    5  C   UNL     1     -43.541  61.003 -50.911  1.00  0.00     0.071 A 
HETATM    6  C   UNL     1     -44.557  60.044 -50.700  1.00  0.00    -0.004 A 
HETATM    7  C   UNL     1     -44.522  58.867 -51.454  1.00  0.00     0.030 A 
HETATM    8  C   UNL     1     -43.580  62.175 -50.167  1.00  0.00     0.072 A 
HETATM    9  C   UNL     1     -44.593  62.410 -49.237  1.00  0.00     0.104 A 
HETATM   10  C   UNL     1     -45.577  61.448 -49.014  1.00  0.00     0.103 A 
HETATM   11  O   UNL     1     -46.584  61.593 -48.097  1.00  0.00    -0.346 OA
HETATM   12  C   UNL     1     -46.303  62.655 -47.177  1.00  0.00     0.202 C 
HETATM   13  C   UNL     1     -45.800  63.884 -47.915  1.00  0.00     0.202 C 
HETATM   14  O   UNL     1     -44.554  63.608 -48.569  1.00  0.00    -0.346 OA
HETATM   15  C   UNL     1     -45.570  60.272 -49.755  1.00  0.00     0.053 A 
ENDROOT
BRANCH   1  16
HETATM   16  C   UNL     1     -43.474  57.418 -53.176  1.00  0.00     0.154 C 
HETATM   17  N   UNL     1     -43.825  56.292 -52.637  1.00  0.00    -0.172 NA
BRANCH  17  18
HETATM   18  N   UNL     1     -43.766  55.204 -53.451  1.00  0.00    -0.108 N 
HETATM   19  H   UNL     1     -44.505  55.001 -54.123  1.00  0.00     0.208 HD
BRANCH  18  20
HETATM   20  C   UNL     1     -42.745  54.324 -53.416  1.00  0.00     0.721 A 
HETATM   21  N   UNL     1     -42.243  53.600 -54.388  1.00  0.00    -0.061 NA
HETATM   22  C   UNL     1     -41.222  52.880 -53.807  1.00  0.00     0.103 A 
HETATM   23  C   UNL     1     -41.104  53.177 -52.453  1.00  0.00     0.078 A 
HETATM   24  C   UNL     1     -40.345  51.945 -54.376  1.00  0.00     0.034 A 
HETATM   25  C   UNL     1     -40.154  52.594 -51.613  1.00  0.00     0.032 A 
HETATM   26  N   UNL     1     -42.088  54.100 -52.236  1.00  0.00    -0.186 N 
HETATM   27  C   UNL     1     -39.289  51.664 -52.199  1.00  0.00     0.002 A 
HETATM   28  C   UNL     1     -39.380  51.343 -53.557  1.00  0.00     0.002 A 
HETATM   29  H   UNL     1     -42.329  54.564 -51.375  1.00  0.00     0.184 HD
ENDBRANCH  18  20
ENDBRANCH  17  18
ENDBRANCH   1  16
TORSDOF 3
ENDMDL
MODEL 10
REMARK VINA RESULT:      -8.0     15.858     18.336
REMARK  3 active torsions:
REMARK  status: ('A' for Active; 'I' for Inactive)
REMARK    1  A    between atoms: C_6  and  N_7 
REMARK    2  A    between atoms: N_7  and  N_8 
REMARK    3  A    between atoms: C_9  and  C_10 
ROOT
HETATM    1  C   UNL     1     -36.970  40.528 -56.465  1.00  0.00     0.024 A 
HETATM    2  C   UNL     1     -36.142  41.217 -57.335  1.00  0.00     0.138 A 
HETATM    3 CL   UNL     1     -34.978  42.378 -56.826  1.00  0.00    -0.061 Cl
HETATM    4  N   UNL     1     -36.154  41.056 -58.680  1.00  0.00    -0.235 NA
HETATM    5  C   UNL     1     -37.020  40.173 -59.208  1.00  0.00     0.071 A 
HETATM    6  C   UNL     1     -37.907  39.422 -58.404  1.00  0.00    -0.004 A 
HETATM    7  C   UNL     1     -37.868  39.614 -57.019  1.00  0.00     0.030 A 
HETATM    8  C   UNL     1     -37.055  39.977 -60.582  1.00  0.00     0.072 A 
HETATM    9  C   UNL     1     -37.936  39.064 -61.162  1.00  0.00     0.104 A 
HETATM   10  C   UNL     1     -38.826  38.346 -60.366  1.00  0.00     0.103 A 
HETATM   11  O   UNL     1     -39.742  37.457 -60.864  1.00  0.00    -0.346 OA
HETATM   12  C   UNL     1     -39.908  37.617 -62.279  1.00  0.00     0.202 C 
HETATM   13  C   UNL     1     -38.558  37.745 -62.965  1.00  0.00     0.202 C 
HETATM   14  O   UNL     1     -37.877  38.928 -62.526  1.00  0.00    -0.346 OA
HETATM   15  C   UNL     1     -38.803  38.512 -58.986  1.00  0.00     0.053 A 
ENDROOT
BRANCH   1  16
HETATM   16  C   UNL     1     -36.934  40.722 -55.003  1.00  0.00     0.154 C 
HETATM   17  N   UNL     1     -36.754  41.905 -54.505  1.00  0.00    -0.172 NA
BRANCH  17  18
HETATM   18  N   UNL     1     -36.737  41.978 -53.147  1.00  0.00    -0.108 N 
HETATM   19  H   UNL     1     -37.463  42.473 -52.631  1.00  0.00     0.208 HD
BRANCH  18  20
HETATM   20  C   UNL     1     -35.765  41.415 -52.400  1.00  0.00     0.721 A 
HETATM   21  N   UNL     1     -35.871  40.702 -51.304  1.00  0.00    -0.061 NA
HETATM   22  C   UNL     1     -34.576  40.382 -50.958  1.00  0.00     0.103 A 
HETATM   23  C   UNL     1     -33.667  40.914 -51.867  1.00  0.00     0.078 A 
HETATM   24  C   UNL     1     -34.095  39.636 -49.873  1.00  0.00     0.034 A 
HETATM   25  C   UNL     1     -32.285  40.748 -51.766  1.00  0.00     0.032 A 
HETATM   26  N   UNL     1     -34.457  41.566 -52.773  1.00  0.00    -0.186 N 
HETATM   27  C   UNL     1     -31.824  40.001 -50.677  1.00  0.00     0.002 A 
HETATM   28  C   UNL     1     -32.711  39.452 -49.745  1.00  0.00     0.002 A 
HETATM   29  H   UNL     1     -34.173  42.082 -53.590  1.00  0.00     0.184 HD
ENDBRANCH  18  20
ENDBRANCH  17  18
ENDBRANCH   1  16
TORSDOF 3
ENDMDL
