MODEL 1
REMARK VINA RESULT:      -7.8      0.000      0.000
REMARK  3 active torsions:
REMARK  status: ('A' for Active; 'I' for Inactive)
REMARK    1  A    between atoms: C_4  and  N_5 
REMARK       I    between atoms: N_5  and  C_6 
REMARK    2  A    between atoms: C_6  and  C_7 
REMARK    3  A    between atoms: C_7  and  C_8 
ROOT
HETATM    1  C   UNL     1     -42.332  54.325 -51.484  1.00  0.00     0.286 C 
HETATM    2  N   UNL     1     -41.402  55.358 -52.112  1.00  0.00    -0.056 N 
HETATM    3  H   UNL     1     -41.049  55.927 -51.311  1.00  0.00     0.278 HD
HETATM    4  H   UNL     1     -40.574  54.913 -52.525  1.00  0.00     0.278 HD
HETATM    5  C   UNL     1     -42.059  56.302 -53.080  1.00  0.00     0.209 C 
HETATM    6  C   UNL     1     -43.298  56.949 -52.414  1.00  0.00     0.115 C 
HETATM    7  N   UNL     1     -44.172  55.974 -51.762  1.00  0.00    -0.353 N 
HETATM    8  C   UNL     1     -43.688  54.909 -51.040  1.00  0.00     0.249 C 
HETATM    9  O   UNL     1     -44.379  54.399 -50.165  1.00  0.00    -0.271 OA
HETATM   10  C   UNL     1     -42.381  55.569 -54.385  1.00  0.00     0.035 C 
HETATM   11  C   UNL     1     -43.134  56.479 -55.352  1.00  0.00     0.002 C 
HETATM   12  C   UNL     1     -44.397  57.045 -54.709  1.00  0.00     0.002 C 
HETATM   13  C   UNL     1     -44.084  57.800 -53.418  1.00  0.00     0.027 C 
HETATM   14  H   UNL     1     -45.055  56.315 -51.386  1.00  0.00     0.163 HD
ENDROOT
BRANCH   1  15
HETATM   15  C   UNL     1     -41.646  53.564 -50.339  1.00  0.00     0.146 C 
BRANCH  15  16
HETATM   16  C   UNL     1     -40.150  53.716 -50.388  1.00  0.00     0.224 C 
HETATM   17  N   UNL     1     -39.354  52.943 -51.168  1.00  0.00    -0.327 N 
HETATM   18  H   UNL     1     -38.376  53.200 -51.063  1.00  0.00     0.169 HD
HETATM   19  O   UNL     1     -39.630  54.643 -49.748  1.00  0.00    -0.273 OA
BRANCH  17  20
HETATM   20  C   UNL     1     -39.580  51.888 -52.078  1.00  0.00     0.034 A 
HETATM   21  C   UNL     1     -39.468  50.526 -51.805  1.00  0.00     0.029 A 
HETATM   22  C   UNL     1     -39.715  49.574 -52.803  1.00  0.00     0.002 A 
HETATM   23  C   UNL     1     -40.090  49.972 -54.082  1.00  0.00     0.000 A 
HETATM   24  C   UNL     1     -40.219  51.325 -54.367  1.00  0.00     0.002 A 
HETATM   25  C   UNL     1     -39.964  52.274 -53.373  1.00  0.00     0.029 A 
ENDBRANCH  17  20
ENDBRANCH  15  16
ENDBRANCH   1  15
TORSDOF 3
ENDMDL
MODEL 2
REMARK VINA RESULT:      -7.6      1.487      2.177
REMARK  3 active torsions:
REMARK  status: ('A' for Active; 'I' for Inactive)
REMARK    1  A    between atoms: C_4  and  N_5 
REMARK       I    between atoms: N_5  and  C_6 
REMARK    2  A    between atoms: C_6  and  C_7 
REMARK    3  A    between atoms: C_7  and  C_8 
ROOT
HETATM    1  C   UNL     1     -42.257  55.445 -51.635  1.00  0.00     0.286 C 
HETATM    2  N   UNL     1     -42.653  56.533 -50.644  1.00  0.00    -0.056 N 
HETATM    3  H   UNL     1     -43.426  56.118 -50.080  1.00  0.00     0.278 HD
HETATM    4  H   UNL     1     -41.895  56.727 -49.979  1.00  0.00     0.278 HD
HETATM    5  C   UNL     1     -43.178  57.799 -51.264  1.00  0.00     0.209 C 
HETATM    6  C   UNL     1     -44.318  57.457 -52.255  1.00  0.00     0.115 C 
HETATM    7  N   UNL     1     -43.969  56.378 -53.177  1.00  0.00    -0.353 N 
HETATM    8  C   UNL     1     -43.268  55.262 -52.784  1.00  0.00     0.249 C 
HETATM    9  O   UNL     1     -43.379  54.216 -53.414  1.00  0.00    -0.271 OA
HETATM   10  C   UNL     1     -42.028  58.582 -51.902  1.00  0.00     0.035 C 
HETATM   11  C   UNL     1     -42.546  59.825 -52.622  1.00  0.00     0.002 C 
HETATM   12  C   UNL     1     -43.610  59.464 -53.654  1.00  0.00     0.002 C 
HETATM   13  C   UNL     1     -44.775  58.703 -53.022  1.00  0.00     0.027 C 
HETATM   14  H   UNL     1     -44.632  56.163 -53.920  1.00  0.00     0.163 HD
ENDROOT
BRANCH   1  15
HETATM   15  C   UNL     1     -41.963  54.112 -50.928  1.00  0.00     0.146 C 
BRANCH  15  16
HETATM   16  C   UNL     1     -40.513  53.996 -50.542  1.00  0.00     0.224 C 
HETATM   17  N   UNL     1     -39.667  53.098 -51.107  1.00  0.00    -0.327 N 
HETATM   18  H   UNL     1     -38.733  53.177 -50.713  1.00  0.00     0.169 HD
HETATM   19  O   UNL     1     -40.053  54.811 -49.727  1.00  0.00    -0.273 OA
BRANCH  17  20
HETATM   20  C   UNL     1     -39.794  52.108 -52.103  1.00  0.00     0.034 A 
HETATM   21  C   UNL     1     -40.143  52.319 -53.436  1.00  0.00     0.029 A 
HETATM   22  C   UNL     1     -40.241  51.243 -54.329  1.00  0.00     0.002 A 
HETATM   23  C   UNL     1     -39.979  49.945 -53.903  1.00  0.00     0.000 A 
HETATM   24  C   UNL     1     -39.617  49.719 -52.582  1.00  0.00     0.002 A 
HETATM   25  C   UNL     1     -39.528  50.792 -51.690  1.00  0.00     0.029 A 
ENDBRANCH  17  20
ENDBRANCH  15  16
ENDBRANCH   1  15
TORSDOF 3
ENDMDL
MODEL 3
REMARK VINA RESULT:      -7.5      1.826      2.338
REMARK  3 active torsions:
REMARK  status: ('A' for Active; 'I' for Inactive)
REMARK    1  A    between atoms: C_4  and  N_5 
REMARK       I    between atoms: N_5  and  C_6 
REMARK    2  A    between atoms: C_6  and  C_7 
REMARK    3  A    between atoms: C_7  and  C_8 
ROOT
HETATM    1  C   UNL     1     -42.701  55.715 -51.623  1.00  0.00     0.286 C 
HETATM    2  N   UNL     1     -41.264  56.227 -51.646  1.00  0.00    -0.056 N 
HETATM    3  H   UNL     1     -40.921  56.113 -50.667  1.00  0.00     0.278 HD
HETATM    4  H   UNL     1     -40.663  55.628 -52.224  1.00  0.00     0.278 HD
HETATM    5  C   UNL     1     -41.110  57.678 -52.011  1.00  0.00     0.209 C 
HETATM    6  C   UNL     1     -42.032  58.539 -51.113  1.00  0.00     0.115 C 
HETATM    7  N   UNL     1     -43.400  58.029 -51.041  1.00  0.00    -0.353 N 
HETATM    8  C   UNL     1     -43.689  56.688 -50.950  1.00  0.00     0.249 C 
HETATM    9  O   UNL     1     -44.748  56.322 -50.451  1.00  0.00    -0.271 OA
HETATM   10  C   UNL     1     -41.366  57.867 -53.508  1.00  0.00     0.035 C 
HETATM   11  C   UNL     1     -41.310  59.344 -53.890  1.00  0.00     0.002 C 
HETATM   12  C   UNL     1     -42.283  60.170 -53.053  1.00  0.00     0.002 C 
HETATM   13  C   UNL     1     -42.020  60.006 -51.557  1.00  0.00     0.027 C 
HETATM   14  H   UNL     1     -44.087  58.596 -50.547  1.00  0.00     0.163 HD
ENDROOT
BRANCH   1  15
HETATM   15  C   UNL     1     -42.793  54.308 -51.013  1.00  0.00     0.146 C 
BRANCH  15  16
HETATM   16  C   UNL     1     -41.627  54.016 -50.108  1.00  0.00     0.224 C 
HETATM   17  N   UNL     1     -40.594  53.214 -50.469  1.00  0.00    -0.327 N 
HETATM   18  H   UNL     1     -39.907  53.144 -49.723  1.00  0.00     0.169 HD
HETATM   19  O   UNL     1     -41.569  54.600 -49.015  1.00  0.00    -0.273 OA
BRANCH  17  20
HETATM   20  C   UNL     1     -40.268  52.478 -51.627  1.00  0.00     0.034 A 
HETATM   21  C   UNL     1     -40.333  52.938 -52.942  1.00  0.00     0.029 A 
HETATM   22  C   UNL     1     -39.985  52.101 -54.010  1.00  0.00     0.002 A 
HETATM   23  C   UNL     1     -39.557  50.798 -53.778  1.00  0.00     0.000 A 
HETATM   24  C   UNL     1     -39.474  50.328 -52.473  1.00  0.00     0.002 A 
HETATM   25  C   UNL     1     -39.829  51.162 -51.409  1.00  0.00     0.029 A 
ENDBRANCH  17  20
ENDBRANCH  15  16
ENDBRANCH   1  15
TORSDOF 3
ENDMDL
MODEL 4
REMARK VINA RESULT:      -7.4      2.389      3.217
REMARK  3 active torsions:
REMARK  status: ('A' for Active; 'I' for Inactive)
REMARK    1  A    between atoms: C_4  and  N_5 
REMARK       I    between atoms: N_5  and  C_6 
REMARK    2  A    between atoms: C_6  and  C_7 
REMARK    3  A    between atoms: C_7  and  C_8 
ROOT
HETATM    1  C   UNL     1     -42.554  55.708 -52.804  1.00  0.00     0.286 C 
HETATM    2  N   UNL     1     -41.323  56.479 -53.271  1.00  0.00    -0.056 N 
HETATM    3  H   UNL     1     -40.517  55.848 -53.071  1.00  0.00     0.278 HD
HETATM    4  H   UNL     1     -41.329  56.612 -54.289  1.00  0.00     0.278 HD
HETATM    5  C   UNL     1     -41.071  57.775 -52.549  1.00  0.00     0.209 C 
HETATM    6  C   UNL     1     -41.070  57.525 -51.021  1.00  0.00     0.115 C 
HETATM    7  N   UNL     1     -42.218  56.741 -50.568  1.00  0.00    -0.353 N 
HETATM    8  C   UNL     1     -42.707  55.666 -51.271  1.00  0.00     0.249 C 
HETATM    9  O   UNL     1     -43.333  54.787 -50.688  1.00  0.00    -0.271 OA
HETATM   10  C   UNL     1     -42.091  58.825 -52.995  1.00  0.00     0.035 C 
HETATM   11  C   UNL     1     -41.919  60.122 -52.209  1.00  0.00     0.002 C 
HETATM   12  C   UNL     1     -42.001  59.874 -50.705  1.00  0.00     0.002 C 
HETATM   13  C   UNL     1     -40.970  58.844 -50.247  1.00  0.00     0.027 C 
HETATM   14  H   UNL     1     -42.335  56.619 -49.563  1.00  0.00     0.163 HD
ENDROOT
BRANCH   1  15
HETATM   15  C   UNL     1     -42.606  54.298 -53.414  1.00  0.00     0.146 C 
BRANCH  15  16
HETATM   16  C   UNL     1     -41.640  54.152 -54.558  1.00  0.00     0.224 C 
HETATM   17  N   UNL     1     -40.672  53.202 -54.591  1.00  0.00    -0.327 N 
HETATM   18  H   UNL     1     -40.125  53.266 -55.446  1.00  0.00     0.169 HD
HETATM   19  O   UNL     1     -41.788  54.881 -55.551  1.00  0.00    -0.273 OA
BRANCH  17  20
HETATM   20  C   UNL     1     -40.271  52.164 -53.723  1.00  0.00     0.034 A 
HETATM   21  C   UNL     1     -39.971  52.293 -52.368  1.00  0.00     0.029 A 
HETATM   22  C   UNL     1     -39.577  51.179 -51.614  1.00  0.00     0.002 A 
HETATM   23  C   UNL     1     -39.491  49.922 -52.203  1.00  0.00     0.000 A 
HETATM   24  C   UNL     1     -39.800  49.774 -53.548  1.00  0.00     0.002 A 
HETATM   25  C   UNL     1     -40.185  50.887 -54.302  1.00  0.00     0.029 A 
ENDBRANCH  17  20
ENDBRANCH  15  16
ENDBRANCH   1  15
TORSDOF 3
ENDMDL
MODEL 5
REMARK VINA RESULT:      -7.2      2.060      6.034
REMARK  3 active torsions:
REMARK  status: ('A' for Active; 'I' for Inactive)
REMARK    1  A    between atoms: C_4  and  N_5 
REMARK       I    between atoms: N_5  and  C_6 
REMARK    2  A    between atoms: C_6  and  C_7 
REMARK    3  A    between atoms: C_7  and  C_8 
ROOT
HETATM    1  C   UNL     1     -41.904  53.782 -51.070  1.00  0.00     0.286 C 
HETATM    2  N   UNL     1     -40.435  53.619 -50.696  1.00  0.00    -0.056 N 
HETATM    3  H   UNL     1     -39.982  54.517 -50.975  1.00  0.00     0.278 HD
HETATM    4  H   UNL     1     -40.313  53.548 -49.679  1.00  0.00     0.278 HD
HETATM    5  C   UNL     1     -39.714  52.510 -51.414  1.00  0.00     0.209 C 
HETATM    6  C   UNL     1     -39.925  52.660 -52.942  1.00  0.00     0.115 C 
HETATM    7  N   UNL     1     -41.324  52.870 -53.309  1.00  0.00    -0.353 N 
HETATM    8  C   UNL     1     -42.168  53.679 -52.585  1.00  0.00     0.249 C 
HETATM    9  O   UNL     1     -43.144  54.186 -53.127  1.00  0.00    -0.271 OA
HETATM   10  C   UNL     1     -40.166  51.155 -50.866  1.00  0.00     0.035 C 
HETATM   11  C   UNL     1     -39.522  50.009 -51.641  1.00  0.00     0.002 C 
HETATM   12  C   UNL     1     -39.806  50.123 -53.136  1.00  0.00     0.002 C 
HETATM   13  C   UNL     1     -39.336  51.464 -53.699  1.00  0.00     0.027 C 
HETATM   14  H   UNL     1     -41.551  52.881 -54.301  1.00  0.00     0.163 HD
ENDROOT
BRANCH   1  15
HETATM   15  C   UNL     1     -42.499  55.072 -50.482  1.00  0.00     0.146 C 
BRANCH  15  16
HETATM   16  C   UNL     1     -41.455  55.894 -49.776  1.00  0.00     0.224 C 
HETATM   17  N   UNL     1     -40.957  57.049 -50.284  1.00  0.00    -0.327 N 
HETATM   18  H   UNL     1     -40.265  57.455 -49.659  1.00  0.00     0.169 HD
HETATM   19  O   UNL     1     -41.094  55.542 -48.643  1.00  0.00    -0.273 OA
BRANCH  17  20
HETATM   20  C   UNL     1     -41.187  57.797 -51.458  1.00  0.00     0.034 A 
HETATM   21  C   UNL     1     -41.022  57.347 -52.767  1.00  0.00     0.029 A 
HETATM   22  C   UNL     1     -41.280  58.196 -53.852  1.00  0.00     0.002 A 
HETATM   23  C   UNL     1     -41.717  59.500 -53.642  1.00  0.00     0.000 A 
HETATM   24  C   UNL     1     -41.899  59.959 -52.344  1.00  0.00     0.002 A 
HETATM   25  C   UNL     1     -41.633  59.114 -51.262  1.00  0.00     0.029 A 
ENDBRANCH  17  20
ENDBRANCH  15  16
ENDBRANCH   1  15
TORSDOF 3
ENDMDL
MODEL 6
REMARK VINA RESULT:      -7.1     13.678     16.582
REMARK  3 active torsions:
REMARK  status: ('A' for Active; 'I' for Inactive)
REMARK    1  A    between atoms: C_4  and  N_5 
REMARK       I    between atoms: N_5  and  C_6 
REMARK    2  A    between atoms: C_6  and  C_7 
REMARK    3  A    between atoms: C_7  and  C_8 
ROOT
HETATM    1  C   UNL     1     -34.214  40.700 -53.884  1.00  0.00     0.286 C 
HETATM    2  N   UNL     1     -32.695  40.798 -53.791  1.00  0.00    -0.056 N 
HETATM    3  H   UNL     1     -32.343  40.445 -54.708  1.00  0.00     0.278 HD
HETATM    4  H   UNL     1     -32.386  41.776 -53.731  1.00  0.00     0.278 HD
HETATM    5  C   UNL     1     -32.067  39.956 -52.714  1.00  0.00     0.209 C 
HETATM    6  C   UNL     1     -32.559  38.494 -52.846  1.00  0.00     0.115 C 
HETATM    7  N   UNL     1     -34.010  38.389 -52.989  1.00  0.00    -0.353 N 
HETATM    8  C   UNL     1     -34.745  39.258 -53.762  1.00  0.00     0.249 C 
HETATM    9  O   UNL     1     -35.826  38.905 -54.221  1.00  0.00    -0.271 OA
HETATM   10  C   UNL     1     -32.348  40.573 -51.341  1.00  0.00     0.035 C 
HETATM   11  C   UNL     1     -31.803  39.689 -50.223  1.00  0.00     0.002 C 
HETATM   12  C   UNL     1     -32.360  38.271 -50.316  1.00  0.00     0.002 C 
HETATM   13  C   UNL     1     -32.064  37.637 -51.675  1.00  0.00     0.027 C 
HETATM   14  H   UNL     1     -34.415  37.455 -52.985  1.00  0.00     0.163 HD
ENDROOT
BRANCH   1  15
HETATM   15  C   UNL     1     -34.751  41.391 -55.148  1.00  0.00     0.146 C 
BRANCH  15  16
HETATM   16  C   UNL     1     -35.993  42.190 -54.858  1.00  0.00     0.224 C 
HETATM   17  N   UNL     1     -37.031  42.283 -55.728  1.00  0.00    -0.327 N 
HETATM   18  H   UNL     1     -37.774  42.865 -55.349  1.00  0.00     0.169 HD
HETATM   19  O   UNL     1     -36.106  42.720 -53.743  1.00  0.00    -0.273 OA
BRANCH  17  20
HETATM   20  C   UNL     1     -37.302  41.756 -57.008  1.00  0.00     0.034 A 
HETATM   21  C   UNL     1     -36.922  42.316 -58.227  1.00  0.00     0.029 A 
HETATM   22  C   UNL     1     -37.261  41.693 -59.436  1.00  0.00     0.002 A 
HETATM   23  C   UNL     1     -37.972  40.498 -59.441  1.00  0.00     0.000 A 
HETATM   24  C   UNL     1     -38.346  39.920 -58.235  1.00  0.00     0.002 A 
HETATM   25  C   UNL     1     -38.015  40.546 -57.029  1.00  0.00     0.029 A 
ENDBRANCH  17  20
ENDBRANCH  15  16
ENDBRANCH   1  15
TORSDOF 3
ENDMDL
MODEL 7
REMARK VINA RESULT:      -7.1     13.784     15.429
REMARK  3 active torsions:
REMARK  status: ('A' for Active; 'I' for Inactive)
REMARK    1  A    between atoms: C_4  and  N_5 
REMARK       I    between atoms: N_5  and  C_6 
REMARK    2  A    between atoms: C_6  and  C_7 
REMARK    3  A    between atoms: C_7  and  C_8 
ROOT
HETATM    1  C   UNL     1     -36.264  40.692 -54.966  1.00  0.00     0.286 C 
HETATM    2  N   UNL     1     -37.418  41.613 -55.346  1.00  0.00    -0.056 N 
HETATM    3  H   UNL     1     -38.228  41.281 -54.778  1.00  0.00     0.278 HD
HETATM    4  H   UNL     1     -37.242  42.578 -55.044  1.00  0.00     0.278 HD
HETATM    5  C   UNL     1     -37.829  41.555 -56.792  1.00  0.00     0.209 C 
HETATM    6  C   UNL     1     -38.086  40.083 -57.200  1.00  0.00     0.115 C 
HETATM    7  N   UNL     1     -37.010  39.181 -56.794  1.00  0.00    -0.353 N 
HETATM    8  C   UNL     1     -36.375  39.282 -55.578  1.00  0.00     0.249 C 
HETATM    9  O   UNL     1     -35.832  38.298 -55.088  1.00  0.00    -0.271 OA
HETATM   10  C   UNL     1     -36.780  42.255 -57.659  1.00  0.00     0.035 C 
HETATM   11  C   UNL     1     -37.124  42.130 -59.141  1.00  0.00     0.002 C 
HETATM   12  C   UNL     1     -37.294  40.669 -59.549  1.00  0.00     0.002 C 
HETATM   13  C   UNL     1     -38.357  39.968 -58.704  1.00  0.00     0.027 C 
HETATM   14  H   UNL     1     -37.063  38.215 -57.112  1.00  0.00     0.163 HD
ENDROOT
BRANCH   1  15
HETATM   15  C   UNL     1     -36.065  40.629 -53.443  1.00  0.00     0.146 C 
BRANCH  15  16
HETATM   16  C   UNL     1     -35.494  41.912 -52.903  1.00  0.00     0.224 C 
HETATM   17  N   UNL     1     -34.529  41.949 -51.950  1.00  0.00    -0.327 N 
HETATM   18  H   UNL     1     -34.277  42.907 -51.721  1.00  0.00     0.169 HD
HETATM   19  O   UNL     1     -35.866  42.982 -53.410  1.00  0.00    -0.273 OA
BRANCH  17  20
HETATM   20  C   UNL     1     -33.811  40.972 -51.229  1.00  0.00     0.034 A 
HETATM   21  C   UNL     1     -34.314  40.161 -50.213  1.00  0.00     0.029 A 
HETATM   22  C   UNL     1     -33.490  39.229 -49.568  1.00  0.00     0.002 A 
HETATM   23  C   UNL     1     -32.157  39.087 -49.939  1.00  0.00     0.000 A 
HETATM   24  C   UNL     1     -31.643  39.877 -50.959  1.00  0.00     0.002 A 
HETATM   25  C   UNL     1     -32.464  40.813 -51.596  1.00  0.00     0.029 A 
ENDBRANCH  17  20
ENDBRANCH  15  16
ENDBRANCH   1  15
TORSDOF 3
ENDMDL
MODEL 8
REMARK VINA RESULT:      -7.0      2.897      6.645
REMARK  3 active torsions:
REMARK  status: ('A' for Active; 'I' for Inactive)
REMARK    1  A    between atoms: C_4  and  N_5 
REMARK       I    between atoms: N_5  and  C_6 
REMARK    2  A    between atoms: C_6  and  C_7 
REMARK    3  A    between atoms: C_7  and  C_8 
ROOT
HETATM    1  C   UNL     1     -41.628  56.143 -54.088  1.00  0.00     0.286 C 
HETATM    2  N   UNL     1     -42.353  54.821 -54.323  1.00  0.00    -0.056 N 
HETATM    3  H   UNL     1     -43.338  54.996 -54.027  1.00  0.00     0.278 HD
HETATM    4  H   UNL     1     -42.398  54.593 -55.323  1.00  0.00     0.278 HD
HETATM    5  C   UNL     1     -41.838  53.661 -53.516  1.00  0.00     0.209 C 
HETATM    6  C   UNL     1     -41.790  54.051 -52.018  1.00  0.00     0.115 C 
HETATM    7  N   UNL     1     -41.144  55.342 -51.785  1.00  0.00    -0.353 N 
HETATM    8  C   UNL     1     -41.342  56.431 -52.601  1.00  0.00     0.249 C 
HETATM    9  O   UNL     1     -41.177  57.563 -52.161  1.00  0.00    -0.271 OA
HETATM   10  C   UNL     1     -40.489  53.199 -54.070  1.00  0.00     0.035 C 
HETATM   11  C   UNL     1     -39.898  52.083 -53.213  1.00  0.00     0.002 C 
HETATM   12  C   UNL     1     -39.779  52.510 -51.753  1.00  0.00     0.002 C 
HETATM   13  C   UNL     1     -41.127  52.951 -51.183  1.00  0.00     0.027 C 
HETATM   14  H   UNL     1     -40.990  55.620 -50.817  1.00  0.00     0.163 HD
ENDROOT
BRANCH   1  15
HETATM   15  C   UNL     1     -42.358  57.318 -54.758  1.00  0.00     0.146 C 
BRANCH  15  16
HETATM   16  C   UNL     1     -43.741  56.930 -55.205  1.00  0.00     0.224 C 
HETATM   17  N   UNL     1     -44.105  56.867 -56.511  1.00  0.00    -0.327 N 
HETATM   18  H   UNL     1     -45.077  56.586 -56.607  1.00  0.00     0.169 HD
HETATM   19  O   UNL     1     -44.562  56.576 -54.345  1.00  0.00    -0.273 OA
BRANCH  17  20
HETATM   20  C   UNL     1     -43.443  57.093 -57.736  1.00  0.00     0.034 A 
HETATM   21  C   UNL     1     -43.016  58.325 -58.227  1.00  0.00     0.029 A 
HETATM   22  C   UNL     1     -42.373  58.416 -59.469  1.00  0.00     0.002 A 
HETATM   23  C   UNL     1     -42.137  57.275 -60.229  1.00  0.00     0.000 A 
HETATM   24  C   UNL     1     -42.544  56.037 -59.747  1.00  0.00     0.002 A 
HETATM   25  C   UNL     1     -43.194  55.949 -58.513  1.00  0.00     0.029 A 
ENDBRANCH  17  20
ENDBRANCH  15  16
ENDBRANCH   1  15
TORSDOF 3
ENDMDL
MODEL 9
REMARK VINA RESULT:      -6.9     13.694     15.352
REMARK  3 active torsions:
REMARK  status: ('A' for Active; 'I' for Inactive)
REMARK    1  A    between atoms: C_4  and  N_5 
REMARK       I    between atoms: N_5  and  C_6 
REMARK    2  A    between atoms: C_6  and  C_7 
REMARK    3  A    between atoms: C_7  and  C_8 
ROOT
HETATM    1  C   UNL     1     -36.969  41.247 -53.334  1.00  0.00     0.286 C 
HETATM    2  N   UNL     1     -36.948  39.997 -54.207  1.00  0.00    -0.056 N 
HETATM    3  H   UNL     1     -36.174  39.412 -53.825  1.00  0.00     0.278 HD
HETATM    4  H   UNL     1     -37.804  39.442 -54.086  1.00  0.00     0.278 HD
HETATM    5  C   UNL     1     -36.653  40.241 -55.662  1.00  0.00     0.209 C 
HETATM    6  C   UNL     1     -35.356  41.077 -55.794  1.00  0.00     0.115 C 
HETATM    7  N   UNL     1     -35.341  42.251 -54.923  1.00  0.00    -0.353 N 
HETATM    8  C   UNL     1     -35.814  42.223 -53.632  1.00  0.00     0.249 C 
HETATM    9  O   UNL     1     -35.395  43.031 -52.810  1.00  0.00    -0.271 OA
HETATM   10  C   UNL     1     -37.865  40.884 -56.339  1.00  0.00     0.035 C 
HETATM   11  C   UNL     1     -37.560  41.229 -57.794  1.00  0.00     0.002 C 
HETATM   12  C   UNL     1     -36.327  42.122 -57.905  1.00  0.00     0.002 C 
HETATM   13  C   UNL     1     -35.105  41.478 -57.252  1.00  0.00     0.027 C 
HETATM   14  H   UNL     1     -34.563  42.900 -55.025  1.00  0.00     0.163 HD
ENDROOT
BRANCH   1  15
HETATM   15  C   UNL     1     -37.036  40.895 -51.840  1.00  0.00     0.146 C 
BRANCH  15  16
HETATM   16  C   UNL     1     -36.915  39.412 -51.612  1.00  0.00     0.224 C 
HETATM   17  N   UNL     1     -35.733  38.799 -51.352  1.00  0.00    -0.327 N 
HETATM   18  H   UNL     1     -35.860  37.798 -51.227  1.00  0.00     0.169 HD
HETATM   19  O   UNL     1     -37.953  38.734 -51.582  1.00  0.00    -0.273 OA
BRANCH  17  20
HETATM   20  C   UNL     1     -34.399  39.236 -51.212  1.00  0.00     0.034 A 
HETATM   21  C   UNL     1     -33.533  39.583 -52.247  1.00  0.00     0.029 A 
HETATM   22  C   UNL     1     -32.222  39.997 -51.974  1.00  0.00     0.002 A 
HETATM   23  C   UNL     1     -31.766  40.083 -50.662  1.00  0.00     0.000 A 
HETATM   24  C   UNL     1     -32.621  39.754 -49.619  1.00  0.00     0.002 A 
HETATM   25  C   UNL     1     -33.925  39.332 -49.893  1.00  0.00     0.029 A 
ENDBRANCH  17  20
ENDBRANCH  15  16
ENDBRANCH   1  15
TORSDOF 3
ENDMDL
MODEL 10
REMARK VINA RESULT:      -6.9     13.588     16.485
REMARK  3 active torsions:
REMARK  status: ('A' for Active; 'I' for Inactive)
REMARK    1  A    between atoms: C_4  and  N_5 
REMARK       I    between atoms: N_5  and  C_6 
REMARK    2  A    between atoms: C_6  and  C_7 
REMARK    3  A    between atoms: C_7  and  C_8 
ROOT
HETATM    1  C   UNL     1     -34.743  39.912 -54.002  1.00  0.00     0.286 C 
HETATM    2  N   UNL     1     -33.697  40.898 -54.510  1.00  0.00    -0.056 N 
HETATM    3  H   UNL     1     -34.229  41.580 -55.094  1.00  0.00     0.278 HD
HETATM    4  H   UNL     1     -33.293  41.445 -53.741  1.00  0.00     0.278 HD
HETATM    5  C   UNL     1     -32.626  40.299 -55.380  1.00  0.00     0.209 C 
HETATM    6  C   UNL     1     -33.281  39.488 -56.525  1.00  0.00     0.115 C 
HETATM    7  N   UNL     1     -34.323  38.576 -56.056  1.00  0.00    -0.353 N 
HETATM    8  C   UNL     1     -35.226  38.919 -55.078  1.00  0.00     0.249 C 
HETATM    9  O   UNL     1     -36.315  38.358 -55.026  1.00  0.00    -0.271 OA
HETATM   10  C   UNL     1     -31.660  39.476 -54.524  1.00  0.00     0.035 C 
HETATM   11  C   UNL     1     -30.617  38.779 -55.393  1.00  0.00     0.002 C 
HETATM   12  C   UNL     1     -31.277  37.917 -56.467  1.00  0.00     0.002 C 
HETATM   13  C   UNL     1     -32.225  38.735 -57.342  1.00  0.00     0.027 C 
HETATM   14  H   UNL     1     -34.732  37.940 -56.739  1.00  0.00     0.163 HD
ENDROOT
BRANCH   1  15
HETATM   15  C   UNL     1     -35.923  40.631 -53.330  1.00  0.00     0.146 C 
BRANCH  15  16
HETATM   16  C   UNL     1     -35.952  42.095 -53.677  1.00  0.00     0.224 C 
HETATM   17  N   UNL     1     -36.336  42.558 -54.892  1.00  0.00    -0.327 N 
HETATM   18  H   UNL     1     -36.288  43.574 -54.929  1.00  0.00     0.169 HD
HETATM   19  O   UNL     1     -35.689  42.917 -52.786  1.00  0.00    -0.273 OA
BRANCH  17  20
HETATM   20  C   UNL     1     -36.784  41.957 -56.087  1.00  0.00     0.034 A 
HETATM   21  C   UNL     1     -36.110  41.945 -57.307  1.00  0.00     0.029 A 
HETATM   22  C   UNL     1     -36.669  41.314 -58.427  1.00  0.00     0.002 A 
HETATM   23  C   UNL     1     -37.902  40.676 -58.337  1.00  0.00     0.000 A 
HETATM   24  C   UNL     1     -38.580  40.666 -57.125  1.00  0.00     0.002 A 
HETATM   25  C   UNL     1     -38.026  41.304 -56.011  1.00  0.00     0.029 A 
ENDBRANCH  17  20
ENDBRANCH  15  16
ENDBRANCH   1  15
TORSDOF 3
ENDMDL
