MODEL 1
REMARK VINA RESULT:      -8.0      0.000      0.000
REMARK  6 active torsions:
REMARK  status: ('A' for Active; 'I' for Inactive)
REMARK    1  A    between atoms: C_2  and  C_3 
REMARK    2  A    between atoms: C_7  and  C_8 
REMARK       I    between atoms: C_8  and  N_9 
REMARK    3  A    between atoms: N_9  and  C_10 
REMARK    4  A    between atoms: C_13  and  C_14 
REMARK       I    between atoms: C_14  and  N_15 
REMARK    5  A    between atoms: N_15  and  C_16 
REMARK    6  A    between atoms: C_16  and  C_17 
ROOT
HETATM    1  C   UNL     1     -43.852  58.464 -51.736  1.00  0.00     0.035 A 
HETATM    2  C   UNL     1     -44.541  58.066 -52.884  1.00  0.00     0.030 A 
HETATM    3  C   UNL     1     -44.116  56.955 -53.625  1.00  0.00     0.019 A 
HETATM    4  C   UNL     1     -42.995  56.225 -53.218  1.00  0.00     0.032 A 
HETATM    5  C   UNL     1     -42.280  56.643 -52.092  1.00  0.00     0.019 A 
HETATM    6  C   UNL     1     -42.707  57.752 -51.356  1.00  0.00     0.030 A 
ENDROOT
BRANCH   1   7
HETATM    7  N   UNL     1     -44.236  59.542 -50.914  1.00  0.00    -0.322 N 
HETATM    8  C   UNL     1     -45.342  59.631 -50.091  1.00  0.00     0.274 C 
HETATM    9  O   UNL     1     -46.206  58.770 -49.968  1.00  0.00    -0.266 OA
HETATM   10  H   UNL     1     -43.603  60.329 -50.902  1.00  0.00     0.169 HD
BRANCH   8  11
HETATM   11  C   UNL     1     -45.420  60.856 -49.329  1.00  0.00     0.120 A 
HETATM   12  N   UNL     1     -46.266  61.867 -49.702  1.00  0.00    -0.273 N 
HETATM   13  N   UNL     1     -46.235  62.938 -48.892  1.00  0.00    -0.179 NA
HETATM   14  H   UNL     1     -46.889  61.873 -50.503  1.00  0.00     0.189 HD
HETATM   15  C   UNL     1     -45.334  62.612 -47.960  1.00  0.00     0.056 A 
HETATM   16  C   UNL     1     -44.795  61.323 -48.188  1.00  0.00     0.065 A 
BRANCH  15  17
HETATM   17  C   UNL     1     -45.011  63.561 -46.856  1.00  0.00     0.056 C 
HETATM   18  C   UNL     1     -45.375  63.002 -45.489  1.00  0.00     0.011 C 
ENDBRANCH  15  17
ENDBRANCH   8  11
ENDBRANCH   1   7
BRANCH   4  19
HETATM   19  C   UNL     1     -42.532  55.001 -53.927  1.00  0.00     0.251 C 
HETATM   20  N   UNL     1     -41.177  54.760 -53.913  1.00  0.00    -0.353 N 
HETATM   21  H   UNL     1     -40.546  55.375 -53.420  1.00  0.00     0.163 HD
HETATM   22  O   UNL     1     -43.335  54.300 -54.532  1.00  0.00    -0.268 OA
BRANCH  20  23
HETATM   23  C   UNL     1     -40.602  53.663 -54.659  1.00  0.00     0.161 C 
BRANCH  23  24
HETATM   24  C   UNL     1     -40.267  52.497 -53.761  1.00  0.00    -0.040 A 
HETATM   25  C   UNL     1     -40.077  51.216 -54.303  1.00  0.00     0.012 A 
HETATM   26  C   UNL     1     -39.740  50.141 -53.477  1.00  0.00     0.043 A 
HETATM   27  C   UNL     1     -39.587  50.345 -52.111  1.00  0.00     0.116 A 
HETATM   28  F   UNL     1     -39.266  49.312 -51.322  1.00  0.00    -0.206 F 
HETATM   29  C   UNL     1     -39.756  51.606 -51.554  1.00  0.00     0.043 A 
HETATM   30  C   UNL     1     -40.086  52.682 -52.378  1.00  0.00     0.012 A 
ENDBRANCH  23  24
ENDBRANCH  20  23
ENDBRANCH   4  19
TORSDOF 6
ENDMDL
MODEL 2
REMARK VINA RESULT:      -7.8      3.639     10.776
REMARK  6 active torsions:
REMARK  status: ('A' for Active; 'I' for Inactive)
REMARK    1  A    between atoms: C_2  and  C_3 
REMARK    2  A    between atoms: C_7  and  C_8 
REMARK       I    between atoms: C_8  and  N_9 
REMARK    3  A    between atoms: N_9  and  C_10 
REMARK    4  A    between atoms: C_13  and  C_14 
REMARK       I    between atoms: C_14  and  N_15 
REMARK    5  A    between atoms: N_15  and  C_16 
REMARK    6  A    between atoms: C_16  and  C_17 
ROOT
HETATM    1  C   UNL     1     -42.158  56.672 -51.535  1.00  0.00     0.035 A 
HETATM    2  C   UNL     1     -41.391  57.796 -51.219  1.00  0.00     0.030 A 
HETATM    3  C   UNL     1     -42.002  59.036 -50.987  1.00  0.00     0.019 A 
HETATM    4  C   UNL     1     -43.392  59.163 -51.067  1.00  0.00     0.032 A 
HETATM    5  C   UNL     1     -44.160  58.050 -51.421  1.00  0.00     0.019 A 
HETATM    6  C   UNL     1     -43.547  56.814 -51.651  1.00  0.00     0.030 A 
ENDROOT
BRANCH   1   7
HETATM    7  N   UNL     1     -41.629  55.383 -51.742  1.00  0.00    -0.322 N 
HETATM    8  C   UNL     1     -40.985  54.898 -52.865  1.00  0.00     0.274 C 
HETATM    9  O   UNL     1     -40.796  55.527 -53.900  1.00  0.00    -0.266 OA
HETATM   10  H   UNL     1     -41.700  54.751 -50.958  1.00  0.00     0.169 HD
BRANCH   8  11
HETATM   11  C   UNL     1     -40.506  53.541 -52.738  1.00  0.00     0.120 A 
HETATM   12  N   UNL     1     -39.986  53.084 -51.556  1.00  0.00    -0.273 N 
HETATM   13  N   UNL     1     -39.592  51.801 -51.588  1.00  0.00    -0.179 NA
HETATM   14  H   UNL     1     -39.881  53.610 -50.695  1.00  0.00     0.189 HD
HETATM   15  C   UNL     1     -39.863  51.411 -52.838  1.00  0.00     0.056 A 
HETATM   16  C   UNL     1     -40.433  52.461 -53.597  1.00  0.00     0.065 A 
BRANCH  15  17
HETATM   17  C   UNL     1     -39.564  50.017 -53.277  1.00  0.00     0.056 C 
HETATM   18  C   UNL     1     -39.843  49.807 -54.758  1.00  0.00     0.011 C 
ENDBRANCH  15  17
ENDBRANCH   8  11
ENDBRANCH   1   7
BRANCH   4  19
HETATM   19  C   UNL     1     -44.101  60.437 -50.772  1.00  0.00     0.251 C 
HETATM   20  N   UNL     1     -44.575  60.592 -49.489  1.00  0.00    -0.353 N 
HETATM   21  H   UNL     1     -44.418  59.881 -48.789  1.00  0.00     0.163 HD
HETATM   22  O   UNL     1     -44.288  61.258 -51.662  1.00  0.00    -0.268 OA
BRANCH  20  23
HETATM   23  C   UNL     1     -45.373  61.739 -49.116  1.00  0.00     0.161 C 
BRANCH  23  24
HETATM   24  C   UNL     1     -45.227  62.064 -47.649  1.00  0.00    -0.040 A 
HETATM   25  C   UNL     1     -44.958  61.046 -46.721  1.00  0.00     0.012 A 
HETATM   26  C   UNL     1     -44.795  61.348 -45.367  1.00  0.00     0.043 A 
HETATM   27  C   UNL     1     -44.896  62.666 -44.940  1.00  0.00     0.116 A 
HETATM   28  F   UNL     1     -44.741  62.953 -43.641  1.00  0.00    -0.206 F 
HETATM   29  C   UNL     1     -45.147  63.692 -45.842  1.00  0.00     0.043 A 
HETATM   30  C   UNL     1     -45.303  63.394 -47.196  1.00  0.00     0.012 A 
ENDBRANCH  23  24
ENDBRANCH  20  23
ENDBRANCH   4  19
TORSDOF 6
ENDMDL
MODEL 3
REMARK VINA RESULT:      -7.7      3.659      4.317
REMARK  6 active torsions:
REMARK  status: ('A' for Active; 'I' for Inactive)
REMARK    1  A    between atoms: C_2  and  C_3 
REMARK    2  A    between atoms: C_7  and  C_8 
REMARK       I    between atoms: C_8  and  N_9 
REMARK    3  A    between atoms: N_9  and  C_10 
REMARK    4  A    between atoms: C_13  and  C_14 
REMARK       I    between atoms: C_14  and  N_15 
REMARK    5  A    between atoms: N_15  and  C_16 
REMARK    6  A    between atoms: C_16  and  C_17 
ROOT
HETATM    1  C   UNL     1     -42.345  58.573 -51.342  1.00  0.00     0.035 A 
HETATM    2  C   UNL     1     -41.167  58.449 -50.603  1.00  0.00     0.030 A 
HETATM    3  C   UNL     1     -40.770  57.205 -50.093  1.00  0.00     0.019 A 
HETATM    4  C   UNL     1     -41.550  56.068 -50.325  1.00  0.00     0.032 A 
HETATM    5  C   UNL     1     -42.749  56.195 -51.031  1.00  0.00     0.019 A 
HETATM    6  C   UNL     1     -43.142  57.438 -51.538  1.00  0.00     0.030 A 
ENDROOT
BRANCH   1   7
HETATM    7  N   UNL     1     -42.795  59.776 -51.922  1.00  0.00    -0.322 N 
HETATM    8  C   UNL     1     -42.329  60.393 -53.068  1.00  0.00     0.274 C 
HETATM    9  O   UNL     1     -41.401  59.993 -53.761  1.00  0.00    -0.266 OA
HETATM   10  H   UNL     1     -43.576  60.218 -51.460  1.00  0.00     0.169 HD
BRANCH   8  11
HETATM   11  C   UNL     1     -43.046  61.594 -53.431  1.00  0.00     0.120 A 
HETATM   12  N   UNL     1     -42.689  62.322 -54.534  1.00  0.00    -0.273 N 
HETATM   13  N   UNL     1     -43.452  63.406 -54.749  1.00  0.00    -0.179 NA
HETATM   14  H   UNL     1     -41.930  62.119 -55.177  1.00  0.00     0.189 HD
HETATM   15  C   UNL     1     -44.336  63.382 -53.746  1.00  0.00     0.056 A 
HETATM   16  C   UNL     1     -44.124  62.272 -52.894  1.00  0.00     0.065 A 
BRANCH  15  17
HETATM   17  C   UNL     1     -45.378  64.443 -53.631  1.00  0.00     0.056 C 
HETATM   18  C   UNL     1     -46.548  64.010 -52.760  1.00  0.00     0.011 C 
ENDBRANCH  15  17
ENDBRANCH   8  11
ENDBRANCH   1   7
BRANCH   4  19
HETATM   19  C   UNL     1     -41.149  54.711 -49.863  1.00  0.00     0.251 C 
HETATM   20  N   UNL     1     -40.460  53.935 -50.768  1.00  0.00    -0.353 N 
HETATM   21  H   UNL     1     -40.223  54.291 -51.682  1.00  0.00     0.163 HD
HETATM   22  O   UNL     1     -41.482  54.316 -48.752  1.00  0.00    -0.268 OA
BRANCH  20  23
HETATM   23  C   UNL     1     -40.116  52.562 -50.469  1.00  0.00     0.161 C 
BRANCH  23  24
HETATM   24  C   UNL     1     -39.972  51.741 -51.728  1.00  0.00    -0.040 A 
HETATM   25  C   UNL     1     -39.644  50.378 -51.651  1.00  0.00     0.012 A 
HETATM   26  C   UNL     1     -39.538  49.609 -52.812  1.00  0.00     0.043 A 
HETATM   27  C   UNL     1     -39.762  50.200 -54.050  1.00  0.00     0.116 A 
HETATM   28  F   UNL     1     -39.658  49.461 -55.163  1.00  0.00    -0.206 F 
HETATM   29  C   UNL     1     -40.102  51.543 -54.150  1.00  0.00     0.043 A 
HETATM   30  C   UNL     1     -40.216  52.310 -52.991  1.00  0.00     0.012 A 
ENDBRANCH  23  24
ENDBRANCH  20  23
ENDBRANCH   4  19
TORSDOF 6
ENDMDL
MODEL 4
REMARK VINA RESULT:      -7.6     17.263     20.037
REMARK  6 active torsions:
REMARK  status: ('A' for Active; 'I' for Inactive)
REMARK    1  A    between atoms: C_2  and  C_3 
REMARK    2  A    between atoms: C_7  and  C_8 
REMARK       I    between atoms: C_8  and  N_9 
REMARK    3  A    between atoms: N_9  and  C_10 
REMARK    4  A    between atoms: C_13  and  C_14 
REMARK       I    between atoms: C_14  and  N_15 
REMARK    5  A    between atoms: N_15  and  C_16 
REMARK    6  A    between atoms: C_16  and  C_17 
ROOT
HETATM    1  C   UNL     1     -34.041  40.381 -51.255  1.00  0.00     0.035 A 
HETATM    2  C   UNL     1     -33.967  39.676 -52.458  1.00  0.00     0.030 A 
HETATM    3  C   UNL     1     -34.512  40.210 -53.635  1.00  0.00     0.019 A 
HETATM    4  C   UNL     1     -35.134  41.462 -53.618  1.00  0.00     0.032 A 
HETATM    5  C   UNL     1     -35.244  42.153 -52.408  1.00  0.00     0.019 A 
HETATM    6  C   UNL     1     -34.700  41.618 -51.237  1.00  0.00     0.030 A 
ENDROOT
BRANCH   1   7
HETATM    7  N   UNL     1     -33.486  39.936 -50.039  1.00  0.00    -0.322 N 
HETATM    8  C   UNL     1     -32.150  39.849 -49.696  1.00  0.00     0.274 C 
HETATM    9  O   UNL     1     -31.210  40.124 -50.433  1.00  0.00    -0.266 OA
HETATM   10  H   UNL     1     -34.150  39.685 -49.321  1.00  0.00     0.169 HD
BRANCH   8  11
HETATM   11  C   UNL     1     -31.910  39.405 -48.343  1.00  0.00     0.120 A 
HETATM   12  N   UNL     1     -32.669  38.414 -47.780  1.00  0.00    -0.273 N 
HETATM   13  N   UNL     1     -32.323  38.103 -46.520  1.00  0.00    -0.179 NA
HETATM   14  H   UNL     1     -33.436  37.914 -48.217  1.00  0.00     0.189 HD
HETATM   15  C   UNL     1     -31.302  38.924 -46.254  1.00  0.00     0.056 A 
HETATM   16  C   UNL     1     -31.006  39.759 -47.358  1.00  0.00     0.065 A 
BRANCH  15  17
HETATM   17  C   UNL     1     -30.626  38.885 -44.925  1.00  0.00     0.056 C 
HETATM   18  C   UNL     1     -30.113  40.252 -44.498  1.00  0.00     0.011 C 
ENDBRANCH  15  17
ENDBRANCH   8  11
ENDBRANCH   1   7
BRANCH   4  19
HETATM   19  C   UNL     1     -35.675  42.107 -54.845  1.00  0.00     0.251 C 
HETATM   20  N   UNL     1     -37.019  41.934 -55.087  1.00  0.00    -0.353 N 
HETATM   21  H   UNL     1     -37.599  41.418 -54.442  1.00  0.00     0.163 HD
HETATM   22  O   UNL     1     -34.924  42.702 -55.608  1.00  0.00    -0.268 OA
BRANCH  20  23
HETATM   23  C   UNL     1     -37.632  42.422 -56.302  1.00  0.00     0.161 C 
BRANCH  23  24
HETATM   24  C   UNL     1     -37.605  41.379 -57.394  1.00  0.00    -0.040 A 
HETATM   25  C   UNL     1     -38.029  40.067 -57.132  1.00  0.00     0.012 A 
HETATM   26  C   UNL     1     -38.031  39.108 -58.147  1.00  0.00     0.043 A 
HETATM   27  C   UNL     1     -37.615  39.460 -59.425  1.00  0.00     0.116 A 
HETATM   28  F   UNL     1     -37.617  38.538 -60.397  1.00  0.00    -0.206 F 
HETATM   29  C   UNL     1     -37.205  40.755 -59.712  1.00  0.00     0.043 A 
HETATM   30  C   UNL     1     -37.209  41.717 -58.701  1.00  0.00     0.012 A 
ENDBRANCH  23  24
ENDBRANCH  20  23
ENDBRANCH   4  19
TORSDOF 6
ENDMDL
MODEL 5
REMARK VINA RESULT:      -7.2     17.769     20.400
REMARK  6 active torsions:
REMARK  status: ('A' for Active; 'I' for Inactive)
REMARK    1  A    between atoms: C_2  and  C_3 
REMARK    2  A    between atoms: C_7  and  C_8 
REMARK       I    between atoms: C_8  and  N_9 
REMARK    3  A    between atoms: N_9  and  C_10 
REMARK    4  A    between atoms: C_13  and  C_14 
REMARK       I    between atoms: C_14  and  N_15 
REMARK    5  A    between atoms: N_15  and  C_16 
REMARK    6  A    between atoms: C_16  and  C_17 
ROOT
HETATM    1  C   UNL     1     -35.169  39.990 -52.308  1.00  0.00     0.035 A 
HETATM    2  C   UNL     1     -33.949  40.460 -51.817  1.00  0.00     0.030 A 
HETATM    3  C   UNL     1     -33.458  40.020 -50.579  1.00  0.00     0.019 A 
HETATM    4  C   UNL     1     -34.186  39.099 -49.821  1.00  0.00     0.032 A 
HETATM    5  C   UNL     1     -35.425  38.655 -50.291  1.00  0.00     0.019 A 
HETATM    6  C   UNL     1     -35.911  39.096 -51.526  1.00  0.00     0.030 A 
ENDROOT
BRANCH   1   7
HETATM    7  N   UNL     1     -35.712  40.348 -53.557  1.00  0.00    -0.322 N 
HETATM    8  C   UNL     1     -36.129  41.598 -53.976  1.00  0.00     0.274 C 
HETATM    9  O   UNL     1     -36.119  42.615 -53.292  1.00  0.00    -0.266 OA
HETATM   10  H   UNL     1     -35.770  39.604 -54.238  1.00  0.00     0.169 HD
BRANCH   8  11
HETATM   11  C   UNL     1     -36.588  41.645 -55.345  1.00  0.00     0.120 A 
HETATM   12  N   UNL     1     -37.605  40.835 -55.777  1.00  0.00    -0.273 N 
HETATM   13  N   UNL     1     -37.927  40.997 -57.070  1.00  0.00    -0.179 NA
HETATM   14  H   UNL     1     -38.115  40.153 -55.224  1.00  0.00     0.189 HD
HETATM   15  C   UNL     1     -37.087  41.946 -57.495  1.00  0.00     0.056 A 
HETATM   16  C   UNL     1     -36.229  42.383 -56.457  1.00  0.00     0.065 A 
BRANCH  15  17
HETATM   17  C   UNL     1     -37.132  42.417 -58.910  1.00  0.00     0.056 C 
HETATM   18  C   UNL     1     -37.346  41.275 -59.892  1.00  0.00     0.011 C 
ENDBRANCH  15  17
ENDBRANCH   8  11
ENDBRANCH   1   7
BRANCH   4  19
HETATM   19  C   UNL     1     -33.689  38.549 -48.531  1.00  0.00     0.251 C 
HETATM   20  N   UNL     1     -32.326  38.395 -48.415  1.00  0.00    -0.353 N 
HETATM   21  H   UNL     1     -31.707  38.670 -49.164  1.00  0.00     0.163 HD
HETATM   22  O   UNL     1     -34.482  38.206 -47.662  1.00  0.00    -0.268 OA
BRANCH  20  23
HETATM   23  C   UNL     1     -31.737  37.769 -47.251  1.00  0.00     0.161 C 
BRANCH  23  24
HETATM   24  C   UNL     1     -31.148  38.792 -46.310  1.00  0.00    -0.040 A 
HETATM   25  C   UNL     1     -31.250  38.620 -44.921  1.00  0.00     0.012 A 
HETATM   26  C   UNL     1     -30.681  39.551 -44.049  1.00  0.00     0.043 A 
HETATM   27  C   UNL     1     -30.007  40.652 -44.563  1.00  0.00     0.116 A 
HETATM   28  F   UNL     1     -29.464  41.544 -43.724  1.00  0.00    -0.206 F 
HETATM   29  C   UNL     1     -29.881  40.836 -45.934  1.00  0.00     0.043 A 
HETATM   30  C   UNL     1     -30.442  39.904 -46.807  1.00  0.00     0.012 A 
ENDBRANCH  23  24
ENDBRANCH  20  23
ENDBRANCH   4  19
TORSDOF 6
ENDMDL
MODEL 6
REMARK VINA RESULT:      -7.2      6.953     10.354
REMARK  6 active torsions:
REMARK  status: ('A' for Active; 'I' for Inactive)
REMARK    1  A    between atoms: C_2  and  C_3 
REMARK    2  A    between atoms: C_7  and  C_8 
REMARK       I    between atoms: C_8  and  N_9 
REMARK    3  A    between atoms: N_9  and  C_10 
REMARK    4  A    between atoms: C_13  and  C_14 
REMARK       I    between atoms: C_14  and  N_15 
REMARK    5  A    between atoms: N_15  and  C_16 
REMARK    6  A    between atoms: C_16  and  C_17 
ROOT
HETATM    1  C   UNL     1     -42.359  55.686 -55.740  1.00  0.00     0.035 A 
HETATM    2  C   UNL     1     -42.865  55.155 -56.929  1.00  0.00     0.030 A 
HETATM    3  C   UNL     1     -43.171  55.991 -58.012  1.00  0.00     0.019 A 
HETATM    4  C   UNL     1     -42.967  57.371 -57.916  1.00  0.00     0.032 A 
HETATM    5  C   UNL     1     -42.497  57.910 -56.715  1.00  0.00     0.019 A 
HETATM    6  C   UNL     1     -42.193  57.073 -55.637  1.00  0.00     0.030 A 
ENDROOT
BRANCH   1   7
HETATM    7  N   UNL     1     -41.989  54.914 -54.621  1.00  0.00    -0.322 N 
HETATM    8  C   UNL     1     -40.774  54.303 -54.374  1.00  0.00     0.274 C 
HETATM    9  O   UNL     1     -39.809  54.313 -55.130  1.00  0.00    -0.266 OA
HETATM   10  H   UNL     1     -42.689  54.829 -53.898  1.00  0.00     0.169 HD
BRANCH   8  11
HETATM   11  C   UNL     1     -40.694  53.629 -53.099  1.00  0.00     0.120 A 
HETATM   12  N   UNL     1     -41.229  54.190 -51.969  1.00  0.00    -0.273 N 
HETATM   13  N   UNL     1     -41.086  53.443 -50.863  1.00  0.00    -0.179 NA
HETATM   14  H   UNL     1     -41.707  55.083 -51.902  1.00  0.00     0.189 HD
HETATM   15  C   UNL     1     -40.432  52.358 -51.288  1.00  0.00     0.056 A 
HETATM   16  C   UNL     1     -40.162  52.425 -52.676  1.00  0.00     0.065 A 
BRANCH  15  17
HETATM   17  C   UNL     1     -40.078  51.266 -50.336  1.00  0.00     0.056 C 
HETATM   18  C   UNL     1     -39.626  50.001 -51.051  1.00  0.00     0.011 C 
ENDBRANCH  15  17
ENDBRANCH   8  11
ENDBRANCH   1   7
BRANCH   4  19
HETATM   19  C   UNL     1     -43.214  58.301 -59.052  1.00  0.00     0.251 C 
HETATM   20  N   UNL     1     -42.424  59.426 -59.105  1.00  0.00    -0.353 N 
HETATM   21  H   UNL     1     -41.701  59.585 -58.419  1.00  0.00     0.163 HD
HETATM   22  O   UNL     1     -44.120  58.075 -59.845  1.00  0.00    -0.268 OA
BRANCH  20  23
HETATM   23  C   UNL     1     -42.646  60.453 -60.099  1.00  0.00     0.161 C 
BRANCH  23  24
HETATM   24  C   UNL     1     -41.516  61.454 -60.125  1.00  0.00    -0.040 A 
HETATM   25  C   UNL     1     -40.848  61.800 -58.940  1.00  0.00     0.012 A 
HETATM   26  C   UNL     1     -39.784  62.704 -58.966  1.00  0.00     0.043 A 
HETATM   27  C   UNL     1     -39.384  63.260 -60.175  1.00  0.00     0.116 A 
HETATM   28  F   UNL     1     -38.365  64.129 -60.197  1.00  0.00    -0.206 F 
HETATM   29  C   UNL     1     -40.020  62.922 -61.363  1.00  0.00     0.043 A 
HETATM   30  C   UNL     1     -41.078  62.013 -61.340  1.00  0.00     0.012 A 
ENDBRANCH  23  24
ENDBRANCH  20  23
ENDBRANCH   4  19
TORSDOF 6
ENDMDL
MODEL 7
REMARK VINA RESULT:      -7.1     17.672     20.586
REMARK  6 active torsions:
REMARK  status: ('A' for Active; 'I' for Inactive)
REMARK    1  A    between atoms: C_2  and  C_3 
REMARK    2  A    between atoms: C_7  and  C_8 
REMARK       I    between atoms: C_8  and  N_9 
REMARK    3  A    between atoms: N_9  and  C_10 
REMARK    4  A    between atoms: C_13  and  C_14 
REMARK       I    between atoms: C_14  and  N_15 
REMARK    5  A    between atoms: N_15  and  C_16 
REMARK    6  A    between atoms: C_16  and  C_17 
ROOT
HETATM    1  C   UNL     1     -36.724  40.382 -57.331  1.00  0.00     0.035 A 
HETATM    2  C   UNL     1     -35.406  40.706 -57.000  1.00  0.00     0.030 A 
HETATM    3  C   UNL     1     -35.096  41.242 -55.742  1.00  0.00     0.019 A 
HETATM    4  C   UNL     1     -36.105  41.454 -54.798  1.00  0.00     0.032 A 
HETATM    5  C   UNL     1     -37.430  41.167 -55.139  1.00  0.00     0.019 A 
HETATM    6  C   UNL     1     -37.736  40.633 -56.395  1.00  0.00     0.030 A 
ENDROOT
BRANCH   1   7
HETATM    7  N   UNL     1     -37.115  39.803 -58.554  1.00  0.00    -0.322 N 
HETATM    8  C   UNL     1     -37.327  40.436 -59.764  1.00  0.00     0.274 C 
HETATM    9  O   UNL     1     -37.236  41.642 -59.959  1.00  0.00    -0.266 OA
HETATM   10  H   UNL     1     -37.217  38.798 -58.549  1.00  0.00     0.169 HD
BRANCH   8  11
HETATM   11  C   UNL     1     -37.667  39.545 -60.850  1.00  0.00     0.120 A 
HETATM   12  N   UNL     1     -36.821  39.374 -61.913  1.00  0.00    -0.273 N 
HETATM   13  N   UNL     1     -37.267  38.510 -62.839  1.00  0.00    -0.179 NA
HETATM   14  H   UNL     1     -35.921  39.824 -62.053  1.00  0.00     0.189 HD
HETATM   15  C   UNL     1     -38.448  38.107 -62.361  1.00  0.00     0.056 A 
HETATM   16  C   UNL     1     -38.746  38.725 -61.123  1.00  0.00     0.065 A 
BRANCH  15  17
HETATM   17  C   UNL     1     -39.274  37.121 -63.117  1.00  0.00     0.056 C 
HETATM   18  C   UNL     1     -40.702  37.604 -63.324  1.00  0.00     0.011 C 
ENDBRANCH  15  17
ENDBRANCH   8  11
ENDBRANCH   1   7
BRANCH   4  19
HETATM   19  C   UNL     1     -35.830  41.962 -53.427  1.00  0.00     0.251 C 
HETATM   20  N   UNL     1     -34.627  41.593 -52.867  1.00  0.00    -0.353 N 
HETATM   21  H   UNL     1     -33.966  41.032 -53.383  1.00  0.00     0.163 HD
HETATM   22  O   UNL     1     -36.676  42.620 -52.833  1.00  0.00    -0.268 OA
BRANCH  20  23
HETATM   23  C   UNL     1     -34.299  41.936 -51.501  1.00  0.00     0.161 C 
BRANCH  23  24
HETATM   24  C   UNL     1     -34.188  40.706 -50.632  1.00  0.00    -0.040 A 
HETATM   25  C   UNL     1     -32.954  40.345 -50.068  1.00  0.00     0.012 A 
HETATM   26  C   UNL     1     -32.855  39.223 -49.242  1.00  0.00     0.043 A 
HETATM   27  C   UNL     1     -33.988  38.464 -48.975  1.00  0.00     0.116 A 
HETATM   28  F   UNL     1     -33.890  37.388 -48.183  1.00  0.00    -0.206 F 
HETATM   29  C   UNL     1     -35.222  38.810 -49.510  1.00  0.00     0.043 A 
HETATM   30  C   UNL     1     -35.325  39.934 -50.330  1.00  0.00     0.012 A 
ENDBRANCH  23  24
ENDBRANCH  20  23
ENDBRANCH   4  19
TORSDOF 6
ENDMDL
MODEL 8
REMARK VINA RESULT:      -7.0      5.253      7.935
REMARK  6 active torsions:
REMARK  status: ('A' for Active; 'I' for Inactive)
REMARK    1  A    between atoms: C_2  and  C_3 
REMARK    2  A    between atoms: C_7  and  C_8 
REMARK       I    between atoms: C_8  and  N_9 
REMARK    3  A    between atoms: N_9  and  C_10 
REMARK    4  A    between atoms: C_13  and  C_14 
REMARK       I    between atoms: C_14  and  N_15 
REMARK    5  A    between atoms: N_15  and  C_16 
REMARK    6  A    between atoms: C_16  and  C_17 
ROOT
HETATM    1  C   UNL     1     -42.748  57.567 -56.829  1.00  0.00     0.035 A 
HETATM    2  C   UNL     1     -42.956  58.148 -55.577  1.00  0.00     0.030 A 
HETATM    3  C   UNL     1     -42.856  57.382 -54.406  1.00  0.00     0.019 A 
HETATM    4  C   UNL     1     -42.541  56.023 -54.480  1.00  0.00     0.032 A 
HETATM    5  C   UNL     1     -42.370  55.428 -55.733  1.00  0.00     0.019 A 
HETATM    6  C   UNL     1     -42.470  56.195 -56.898  1.00  0.00     0.030 A 
ENDROOT
BRANCH   1   7
HETATM    7  N   UNL     1     -42.789  58.272 -58.048  1.00  0.00    -0.322 N 
HETATM    8  C   UNL     1     -43.840  58.369 -58.939  1.00  0.00     0.274 C 
HETATM    9  O   UNL     1     -44.926  57.812 -58.818  1.00  0.00    -0.266 OA
HETATM   10  H   UNL     1     -41.957  58.797 -58.277  1.00  0.00     0.169 HD
BRANCH   8  11
HETATM   11  C   UNL     1     -43.581  59.221 -60.076  1.00  0.00     0.120 A 
HETATM   12  N   UNL     1     -44.556  59.477 -61.004  1.00  0.00    -0.273 N 
HETATM   13  N   UNL     1     -44.171  60.293 -61.998  1.00  0.00    -0.179 NA
HETATM   14  H   UNL     1     -45.506  59.119 -61.001  1.00  0.00     0.189 HD
HETATM   15  C   UNL     1     -42.897  60.576 -61.707  1.00  0.00     0.056 A 
HETATM   16  C   UNL     1     -42.480  59.931 -60.518  1.00  0.00     0.065 A 
BRANCH  15  17
HETATM   17  C   UNL     1     -42.101  61.475 -62.592  1.00  0.00     0.056 C 
HETATM   18  C   UNL     1     -42.712  62.864 -62.704  1.00  0.00     0.011 C 
ENDBRANCH  15  17
ENDBRANCH   8  11
ENDBRANCH   1   7
BRANCH   4  19
HETATM   19  C   UNL     1     -42.361  55.173 -53.271  1.00  0.00     0.251 C 
HETATM   20  N   UNL     1     -41.071  55.022 -52.816  1.00  0.00    -0.353 N 
HETATM   21  H   UNL     1     -40.302  55.491 -53.271  1.00  0.00     0.163 HD
HETATM   22  O   UNL     1     -43.324  54.605 -52.770  1.00  0.00    -0.268 OA
BRANCH  20  23
HETATM   23  C   UNL     1     -40.763  54.133 -51.717  1.00  0.00     0.161 C 
BRANCH  23  24
HETATM   24  C   UNL     1     -40.357  52.764 -52.208  1.00  0.00    -0.040 A 
HETATM   25  C   UNL     1     -40.367  52.471 -53.581  1.00  0.00     0.012 A 
HETATM   26  C   UNL     1     -39.966  51.215 -54.039  1.00  0.00     0.043 A 
HETATM   27  C   UNL     1     -39.550  50.252 -53.128  1.00  0.00     0.116 A 
HETATM   28  F   UNL     1     -39.167  49.047 -53.570  1.00  0.00    -0.206 F 
HETATM   29  C   UNL     1     -39.517  50.523 -51.766  1.00  0.00     0.043 A 
HETATM   30  C   UNL     1     -39.911  51.780 -51.307  1.00  0.00     0.012 A 
ENDBRANCH  23  24
ENDBRANCH  20  23
ENDBRANCH   4  19
TORSDOF 6
ENDMDL
MODEL 9
REMARK VINA RESULT:      -7.0      6.491     10.309
REMARK  6 active torsions:
REMARK  status: ('A' for Active; 'I' for Inactive)
REMARK    1  A    between atoms: C_2  and  C_3 
REMARK    2  A    between atoms: C_7  and  C_8 
REMARK       I    between atoms: C_8  and  N_9 
REMARK    3  A    between atoms: N_9  and  C_10 
REMARK    4  A    between atoms: C_13  and  C_14 
REMARK       I    between atoms: C_14  and  N_15 
REMARK    5  A    between atoms: N_15  and  C_16 
REMARK    6  A    between atoms: C_16  and  C_17 
ROOT
HETATM    1  C   UNL     1     -42.176  56.008 -55.119  1.00  0.00     0.035 A 
HETATM    2  C   UNL     1     -42.132  57.384 -54.883  1.00  0.00     0.030 A 
HETATM    3  C   UNL     1     -42.656  58.287 -55.819  1.00  0.00     0.019 A 
HETATM    4  C   UNL     1     -43.234  57.818 -57.003  1.00  0.00     0.032 A 
HETATM    5  C   UNL     1     -43.245  56.444 -57.260  1.00  0.00     0.019 A 
HETATM    6  C   UNL     1     -42.722  55.547 -56.323  1.00  0.00     0.030 A 
ENDROOT
BRANCH   1   7
HETATM    7  N   UNL     1     -41.711  55.033 -54.214  1.00  0.00    -0.322 N 
HETATM    8  C   UNL     1     -40.579  54.246 -54.320  1.00  0.00     0.274 C 
HETATM    9  O   UNL     1     -39.797  54.253 -55.263  1.00  0.00    -0.266 OA
HETATM   10  H   UNL     1     -42.255  54.925 -53.371  1.00  0.00     0.169 HD
BRANCH   8  11
HETATM   11  C   UNL     1     -40.349  53.379 -53.188  1.00  0.00     0.120 A 
HETATM   12  N   UNL     1     -40.492  53.839 -51.906  1.00  0.00    -0.273 N 
HETATM   13  N   UNL     1     -40.254  52.916 -50.960  1.00  0.00    -0.179 NA
HETATM   14  H   UNL     1     -40.755  54.778 -51.623  1.00  0.00     0.189 HD
HETATM   15  C   UNL     1     -39.942  51.817 -51.653  1.00  0.00     0.056 A 
HETATM   16  C   UNL     1     -39.985  52.053 -53.048  1.00  0.00     0.065 A 
BRANCH  15  17
HETATM   17  C   UNL     1     -39.606  50.547 -50.946  1.00  0.00     0.056 C 
HETATM   18  C   UNL     1     -39.599  49.349 -51.884  1.00  0.00     0.011 C 
ENDBRANCH  15  17
ENDBRANCH   8  11
ENDBRANCH   1   7
BRANCH   4  19
HETATM   19  C   UNL     1     -43.860  58.723 -58.005  1.00  0.00     0.251 C 
HETATM   20  N   UNL     1     -45.236  58.745 -58.034  1.00  0.00    -0.353 N 
HETATM   21  H   UNL     1     -45.778  58.192 -57.386  1.00  0.00     0.163 HD
HETATM   22  O   UNL     1     -43.159  59.355 -58.786  1.00  0.00    -0.268 OA
BRANCH  20  23
HETATM   23  C   UNL     1     -45.953  59.502 -59.037  1.00  0.00     0.161 C 
BRANCH  23  24
HETATM   24  C   UNL     1     -46.718  58.597 -59.973  1.00  0.00    -0.040 A 
HETATM   25  C   UNL     1     -47.552  59.142 -60.962  1.00  0.00     0.012 A 
HETATM   26  C   UNL     1     -48.239  58.308 -61.847  1.00  0.00     0.043 A 
HETATM   27  C   UNL     1     -48.090  56.930 -61.748  1.00  0.00     0.116 A 
HETATM   28  F   UNL     1     -48.751  56.132 -62.597  1.00  0.00    -0.206 F 
HETATM   29  C   UNL     1     -47.260  56.368 -60.787  1.00  0.00     0.043 A 
HETATM   30  C   UNL     1     -46.567  57.200 -59.906  1.00  0.00     0.012 A 
ENDBRANCH  23  24
ENDBRANCH  20  23
ENDBRANCH   4  19
TORSDOF 6
ENDMDL
MODEL 10
REMARK VINA RESULT:      -6.9      4.926      7.511
REMARK  6 active torsions:
REMARK  status: ('A' for Active; 'I' for Inactive)
REMARK    1  A    between atoms: C_2  and  C_3 
REMARK    2  A    between atoms: C_7  and  C_8 
REMARK       I    between atoms: C_8  and  N_9 
REMARK    3  A    between atoms: N_9  and  C_10 
REMARK    4  A    between atoms: C_13  and  C_14 
REMARK       I    between atoms: C_14  and  N_15 
REMARK    5  A    between atoms: N_15  and  C_16 
REMARK    6  A    between atoms: C_16  and  C_17 
ROOT
HETATM    1  C   UNL     1     -44.197  57.170 -56.197  1.00  0.00     0.035 A 
HETATM    2  C   UNL     1     -42.997  56.463 -56.303  1.00  0.00     0.030 A 
HETATM    3  C   UNL     1     -42.362  55.957 -55.160  1.00  0.00     0.019 A 
HETATM    4  C   UNL     1     -42.928  56.152 -53.896  1.00  0.00     0.032 A 
HETATM    5  C   UNL     1     -44.108  56.892 -53.782  1.00  0.00     0.019 A 
HETATM    6  C   UNL     1     -44.738  57.395 -54.925  1.00  0.00     0.030 A 
ENDROOT
BRANCH   1   7
HETATM    7  N   UNL     1     -44.919  57.676 -57.296  1.00  0.00    -0.322 N 
HETATM    8  C   UNL     1     -44.780  58.905 -57.913  1.00  0.00     0.274 C 
HETATM    9  O   UNL     1     -44.002  59.787 -57.567  1.00  0.00    -0.266 OA
HETATM   10  H   UNL     1     -45.596  57.045 -57.701  1.00  0.00     0.169 HD
BRANCH   8  11
HETATM   11  C   UNL     1     -45.638  59.097 -59.059  1.00  0.00     0.120 A 
HETATM   12  N   UNL     1     -45.193  59.765 -60.169  1.00  0.00    -0.273 N 
HETATM   13  N   UNL     1     -46.099  59.857 -61.156  1.00  0.00    -0.179 NA
HETATM   14  H   UNL     1     -44.275  60.176 -60.304  1.00  0.00     0.189 HD
HETATM   15  C   UNL     1     -47.173  59.228 -60.668  1.00  0.00     0.056 A 
HETATM   16  C   UNL     1     -46.938  58.737 -59.361  1.00  0.00     0.065 A 
BRANCH  15  17
HETATM   17  C   UNL     1     -48.417  59.112 -61.483  1.00  0.00     0.056 C 
HETATM   18  C   UNL     1     -48.492  57.792 -62.236  1.00  0.00     0.011 C 
ENDBRANCH  15  17
ENDBRANCH   8  11
ENDBRANCH   1   7
BRANCH   4  19
HETATM   19  C   UNL     1     -42.333  55.587 -52.654  1.00  0.00     0.251 C 
HETATM   20  N   UNL     1     -41.177  54.857 -52.806  1.00  0.00    -0.353 N 
HETATM   21  H   UNL     1     -40.750  54.743 -53.714  1.00  0.00     0.163 HD
HETATM   22  O   UNL     1     -42.903  55.732 -51.579  1.00  0.00    -0.268 OA
BRANCH  20  23
HETATM   23  C   UNL     1     -40.571  54.169 -51.687  1.00  0.00     0.161 C 
BRANCH  23  24
HETATM   24  C   UNL     1     -40.237  52.738 -52.030  1.00  0.00    -0.040 A 
HETATM   25  C   UNL     1     -40.191  52.322 -53.370  1.00  0.00     0.012 A 
HETATM   26  C   UNL     1     -39.855  51.005 -53.691  1.00  0.00     0.043 A 
HETATM   27  C   UNL     1     -39.561  50.103 -52.675  1.00  0.00     0.116 A 
HETATM   28  F   UNL     1     -39.241  48.840 -52.985  1.00  0.00    -0.206 F 
HETATM   29  C   UNL     1     -39.585  50.495 -51.342  1.00  0.00     0.043 A 
HETATM   30  C   UNL     1     -39.914  51.812 -51.020  1.00  0.00     0.012 A 
ENDBRANCH  23  24
ENDBRANCH  20  23
ENDBRANCH   4  19
TORSDOF 6
ENDMDL
