MODEL 1
REMARK VINA RESULT:      -7.9      0.000      0.000
REMARK  7 active torsions:
REMARK  status: ('A' for Active; 'I' for Inactive)
REMARK    1  A    between atoms: O_2  and  C_3 
REMARK    2  A    between atoms: C_4  and  O_5 
REMARK    3  A    between atoms: C_8  and  C_9 
REMARK    4  A    between atoms: N_10  and  N_11 
REMARK    5  A    between atoms: C_22  and  C_23 
REMARK       I    between atoms: C_23  and  N_24 
REMARK    6  A    between atoms: N_24  and  C_25 
REMARK    7  A    between atoms: C_32  and  N_33 
ROOT
HETATM    1  N   UNL     1     -43.965  57.314 -53.882  1.00  0.00    -0.197 N 
HETATM    2  C   UNL     1     -43.014  56.318 -53.998  1.00  0.00     0.183 A 
HETATM    3  C   UNL     1     -42.238  56.617 -55.106  1.00  0.00     0.125 A 
HETATM    4  N   UNL     1     -41.260  55.776 -55.542  1.00  0.00    -0.242 NA
HETATM    5  C   UNL     1     -41.111  54.664 -54.802  1.00  0.00     0.086 A 
HETATM    6  C   UNL     1     -41.927  54.373 -53.676  1.00  0.00     0.088 A 
HETATM    7  N   UNL     1     -42.905  55.192 -53.253  1.00  0.00    -0.225 NA
HETATM    8  C   UNL     1     -40.119  53.763 -55.169  1.00  0.00     0.034 A 
HETATM    9  C   UNL     1     -39.916  52.575 -54.466  1.00  0.00     0.002 A 
HETATM   10  C   UNL     1     -40.721  52.283 -53.374  1.00  0.00     0.002 A 
HETATM   11  C   UNL     1     -41.716  53.185 -52.990  1.00  0.00     0.034 A 
HETATM   12  C   UNL     1     -42.692  57.837 -55.671  1.00  0.00     0.110 C 
HETATM   13  C   UNL     1     -43.702  58.295 -54.839  1.00  0.00     0.143 C 
ENDROOT
BRANCH   1  14
HETATM   14  N   UNL     1     -44.982  57.340 -52.967  1.00  0.00    -0.176 NA
HETATM   15  C   UNL     1     -44.675  57.739 -51.767  1.00  0.00     0.150 C 
BRANCH  15  16
HETATM   16  C   UNL     1     -43.421  58.339 -51.251  1.00  0.00    -0.014 A 
HETATM   17  C   UNL     1     -43.361  59.729 -51.125  1.00  0.00     0.052 A 
HETATM   18  C   UNL     1     -42.184  60.341 -50.680  1.00  0.00     0.102 A 
HETATM   19  C   UNL     1     -41.053  59.549 -50.385  1.00  0.00     0.101 A 
HETATM   20  C   UNL     1     -41.124  58.158 -50.527  1.00  0.00     0.040 A 
HETATM   21  C   UNL     1     -42.302  57.553 -50.971  1.00  0.00     0.016 A 
BRANCH  18  22
HETATM   22  O   UNL     1     -42.025  61.695 -50.524  1.00  0.00    -0.353 OA
HETATM   23  C   UNL     1     -43.193  62.481 -50.335  1.00  0.00     0.210 C 
ENDBRANCH  18  22
BRANCH  19  24
HETATM   24  O   UNL     1     -39.938  60.228 -49.960  1.00  0.00    -0.353 OA
HETATM   25  C   UNL     1     -38.671  59.730 -50.362  1.00  0.00     0.210 C 
ENDBRANCH  19  24
ENDBRANCH  15  16
ENDBRANCH   1  14
BRANCH  13  26
HETATM   26  N   UNL     1     -44.430  59.441 -54.898  1.00  0.00    -0.383 N 
HETATM   27  H   UNL     1     -44.461  60.036 -54.065  1.00  0.00     0.157 HD
HETATM   28  H   UNL     1     -45.287  59.461 -55.448  1.00  0.00     0.157 HD
ENDBRANCH  13  26
BRANCH  12  29
HETATM   29  C   UNL     1     -42.277  58.457 -56.921  1.00  0.00     0.258 C 
HETATM   30  N   UNL     1     -42.194  57.571 -57.980  1.00  0.00    -0.352 N 
HETATM   31  H   UNL     1     -42.320  56.593 -57.730  1.00  0.00     0.163 HD
HETATM   32  O   UNL     1     -42.138  59.670 -57.053  1.00  0.00    -0.267 OA
BRANCH  30  33
HETATM   33  C   UNL     1     -42.689  57.966 -59.290  1.00  0.00     0.084 C 
HETATM   34  C   UNL     1     -42.602  56.798 -60.280  1.00  0.00     0.025 C 
HETATM   35  C   UNL     1     -43.586  55.670 -59.957  1.00  0.00     0.002 C 
HETATM   36  C   UNL     1     -45.017  56.178 -59.792  1.00  0.00     0.000 C 
HETATM   37  C   UNL     1     -45.113  57.343 -58.813  1.00  0.00     0.002 C 
HETATM   38  C   UNL     1     -44.142  58.466 -59.185  1.00  0.00     0.025 C 
ENDBRANCH  30  33
ENDBRANCH  12  29
TORSDOF 7
ENDMDL
MODEL 2
REMARK VINA RESULT:      -7.9     17.224     20.497
REMARK  7 active torsions:
REMARK  status: ('A' for Active; 'I' for Inactive)
REMARK    1  A    between atoms: O_2  and  C_3 
REMARK    2  A    between atoms: C_4  and  O_5 
REMARK    3  A    between atoms: C_8  and  C_9 
REMARK    4  A    between atoms: N_10  and  N_11 
REMARK    5  A    between atoms: C_22  and  C_23 
REMARK       I    between atoms: C_23  and  N_24 
REMARK    6  A    between atoms: N_24  and  C_25 
REMARK    7  A    between atoms: C_32  and  N_33 
ROOT
HETATM    1  N   UNL     1     -35.916  41.632 -56.266  1.00  0.00    -0.197 N 
HETATM    2  C   UNL     1     -34.786  40.882 -56.002  1.00  0.00     0.183 A 
HETATM    3  C   UNL     1     -35.001  40.222 -54.804  1.00  0.00     0.125 A 
HETATM    4  N   UNL     1     -34.032  39.463 -54.221  1.00  0.00    -0.242 NA
HETATM    5  C   UNL     1     -32.882  39.401 -54.912  1.00  0.00     0.086 A 
HETATM    6  C   UNL     1     -32.680  40.097 -56.135  1.00  0.00     0.088 A 
HETATM    7  N   UNL     1     -33.627  40.862 -56.703  1.00  0.00    -0.225 NA
HETATM    8  C   UNL     1     -31.849  38.630 -54.395  1.00  0.00     0.034 A 
HETATM    9  C   UNL     1     -30.616  38.533 -55.041  1.00  0.00     0.002 A 
HETATM   10  C   UNL     1     -30.412  39.223 -56.228  1.00  0.00     0.002 A 
HETATM   11  C   UNL     1     -31.446  39.995 -56.763  1.00  0.00     0.034 A 
HETATM   12  C   UNL     1     -36.300  40.540 -54.329  1.00  0.00     0.110 C 
HETATM   13  C   UNL     1     -36.880  41.340 -55.301  1.00  0.00     0.143 C 
ENDROOT
BRANCH   1  14
HETATM   14  N   UNL     1     -36.067  42.499 -57.314  1.00  0.00    -0.176 NA
HETATM   15  C   UNL     1     -36.490  41.991 -58.435  1.00  0.00     0.150 C 
BRANCH  15  16
HETATM   16  C   UNL     1     -37.004  40.634 -58.734  1.00  0.00    -0.014 A 
HETATM   17  C   UNL     1     -36.110  39.691 -59.248  1.00  0.00     0.052 A 
HETATM   18  C   UNL     1     -36.561  38.409 -59.583  1.00  0.00     0.102 A 
HETATM   19  C   UNL     1     -37.926  38.084 -59.422  1.00  0.00     0.101 A 
HETATM   20  C   UNL     1     -38.813  39.042 -58.918  1.00  0.00     0.040 A 
HETATM   21  C   UNL     1     -38.356  40.320 -58.585  1.00  0.00     0.016 A 
BRANCH  18  22
HETATM   22  O   UNL     1     -35.764  37.415 -60.093  1.00  0.00    -0.353 OA
HETATM   23  C   UNL     1     -34.848  37.763 -61.122  1.00  0.00     0.210 C 
ENDBRANCH  18  22
BRANCH  19  24
HETATM   24  O   UNL     1     -38.286  36.808 -59.780  1.00  0.00    -0.353 OA
HETATM   25  C   UNL     1     -39.189  36.658 -60.864  1.00  0.00     0.210 C 
ENDBRANCH  19  24
ENDBRANCH  15  16
ENDBRANCH   1  14
BRANCH  13  26
HETATM   26  N   UNL     1     -38.130  41.871 -55.365  1.00  0.00    -0.383 N 
HETATM   27  H   UNL     1     -38.434  42.285 -56.250  1.00  0.00     0.157 HD
HETATM   28  H   UNL     1     -38.521  42.327 -54.543  1.00  0.00     0.157 HD
ENDBRANCH  13  26
BRANCH  12  29
HETATM   29  C   UNL     1     -36.896  40.198 -53.046  1.00  0.00     0.258 C 
HETATM   30  N   UNL     1     -36.060  39.466 -52.223  1.00  0.00    -0.352 N 
HETATM   31  H   UNL     1     -35.191  39.165 -52.656  1.00  0.00     0.163 HD
HETATM   32  O   UNL     1     -37.987  40.628 -52.679  1.00  0.00    -0.267 OA
BRANCH  30  33
HETATM   33  C   UNL     1     -35.994  39.777 -50.802  1.00  0.00     0.084 C 
HETATM   34  C   UNL     1     -35.210  38.699 -50.045  1.00  0.00     0.025 C 
HETATM   35  C   UNL     1     -33.716  38.702 -50.383  1.00  0.00     0.002 C 
HETATM   36  C   UNL     1     -33.088  40.086 -50.228  1.00  0.00     0.000 C 
HETATM   37  C   UNL     1     -33.865  41.165 -50.973  1.00  0.00     0.002 C 
HETATM   38  C   UNL     1     -35.345  41.158 -50.586  1.00  0.00     0.025 C 
ENDBRANCH  30  33
ENDBRANCH  12  29
TORSDOF 7
ENDMDL
MODEL 3
REMARK VINA RESULT:      -7.6      2.254      5.517
REMARK  7 active torsions:
REMARK  status: ('A' for Active; 'I' for Inactive)
REMARK    1  A    between atoms: O_2  and  C_3 
REMARK    2  A    between atoms: C_4  and  O_5 
REMARK    3  A    between atoms: C_8  and  C_9 
REMARK    4  A    between atoms: N_10  and  N_11 
REMARK    5  A    between atoms: C_22  and  C_23 
REMARK       I    between atoms: C_23  and  N_24 
REMARK    6  A    between atoms: N_24  and  C_25 
REMARK    7  A    between atoms: C_32  and  N_33 
ROOT
HETATM    1  N   UNL     1     -44.681  58.816 -54.889  1.00  0.00    -0.197 N 
HETATM    2  C   UNL     1     -43.983  59.675 -55.716  1.00  0.00     0.183 A 
HETATM    3  C   UNL     1     -43.192  58.896 -56.545  1.00  0.00     0.125 A 
HETATM    4  N   UNL     1     -42.313  59.452 -57.424  1.00  0.00    -0.242 NA
HETATM    5  C   UNL     1     -42.300  60.795 -57.425  1.00  0.00     0.086 A 
HETATM    6  C   UNL     1     -43.111  61.574 -56.556  1.00  0.00     0.088 A 
HETATM    7  N   UNL     1     -43.966  61.029 -55.674  1.00  0.00    -0.225 NA
HETATM    8  C   UNL     1     -41.443  61.440 -58.308  1.00  0.00     0.034 A 
HETATM    9  C   UNL     1     -41.354  62.831 -58.354  1.00  0.00     0.002 A 
HETATM   10  C   UNL     1     -42.136  63.593 -57.497  1.00  0.00     0.002 A 
HETATM   11  C   UNL     1     -43.007  62.957 -56.609  1.00  0.00     0.034 A 
HETATM   12  C   UNL     1     -43.426  57.527 -56.252  1.00  0.00     0.110 C 
HETATM   13  C   UNL     1     -44.421  57.505 -55.287  1.00  0.00     0.143 C 
ENDROOT
BRANCH   1  14
HETATM   14  N   UNL     1     -45.504  59.195 -53.864  1.00  0.00    -0.176 NA
HETATM   15  C   UNL     1     -44.963  59.279 -52.683  1.00  0.00     0.150 C 
BRANCH  15  16
HETATM   16  C   UNL     1     -43.540  59.191 -52.276  1.00  0.00    -0.014 A 
HETATM   17  C   UNL     1     -43.041  57.942 -51.897  1.00  0.00     0.052 A 
HETATM   18  C   UNL     1     -41.715  57.821 -51.467  1.00  0.00     0.102 A 
HETATM   19  C   UNL     1     -40.895  58.969 -51.394  1.00  0.00     0.101 A 
HETATM   20  C   UNL     1     -41.412  60.215 -51.765  1.00  0.00     0.040 A 
HETATM   21  C   UNL     1     -42.737  60.330 -52.194  1.00  0.00     0.016 A 
BRANCH  18  22
HETATM   22  O   UNL     1     -41.131  56.642 -51.075  1.00  0.00    -0.353 OA
HETATM   23  C   UNL     1     -41.580  56.052 -49.863  1.00  0.00     0.210 C 
ENDBRANCH  18  22
BRANCH  19  24
HETATM   24  O   UNL     1     -39.609  58.762 -50.957  1.00  0.00    -0.353 OA
HETATM   25  C   UNL     1     -38.980  59.815 -50.242  1.00  0.00     0.210 C 
ENDBRANCH  19  24
ENDBRANCH  15  16
ENDBRANCH   1  14
BRANCH  13  26
HETATM   26  N   UNL     1     -45.048  56.449 -54.703  1.00  0.00    -0.383 N 
HETATM   27  H   UNL     1     -44.517  55.881 -54.038  1.00  0.00     0.157 HD
HETATM   28  H   UNL     1     -45.737  55.921 -55.236  1.00  0.00     0.157 HD
ENDBRANCH  13  26
BRANCH  12  29
HETATM   29  C   UNL     1     -42.715  56.365 -56.765  1.00  0.00     0.258 C 
HETATM   30  N   UNL     1     -41.849  55.796 -55.849  1.00  0.00    -0.352 N 
HETATM   31  H   UNL     1     -41.734  56.321 -54.986  1.00  0.00     0.163 HD
HETATM   32  O   UNL     1     -42.957  55.862 -57.859  1.00  0.00    -0.267 OA
BRANCH  30  33
HETATM   33  C   UNL     1     -41.775  54.347 -55.732  1.00  0.00     0.084 C 
HETATM   34  C   UNL     1     -40.448  53.920 -55.092  1.00  0.00     0.025 C 
HETATM   35  C   UNL     1     -40.350  54.308 -53.613  1.00  0.00     0.002 C 
HETATM   36  C   UNL     1     -41.557  53.833 -52.807  1.00  0.00     0.000 C 
HETATM   37  C   UNL     1     -42.880  54.248 -53.439  1.00  0.00     0.002 C 
HETATM   38  C   UNL     1     -42.960  53.815 -54.905  1.00  0.00     0.025 C 
ENDBRANCH  30  33
ENDBRANCH  12  29
TORSDOF 7
ENDMDL
MODEL 4
REMARK VINA RESULT:      -7.6      2.519      7.450
REMARK  7 active torsions:
REMARK  status: ('A' for Active; 'I' for Inactive)
REMARK    1  A    between atoms: O_2  and  C_3 
REMARK    2  A    between atoms: C_4  and  O_5 
REMARK    3  A    between atoms: C_8  and  C_9 
REMARK    4  A    between atoms: N_10  and  N_11 
REMARK    5  A    between atoms: C_22  and  C_23 
REMARK       I    between atoms: C_23  and  N_24 
REMARK    6  A    between atoms: N_24  and  C_25 
REMARK    7  A    between atoms: C_32  and  N_33 
ROOT
HETATM    1  N   UNL     1     -42.388  59.042 -54.181  1.00  0.00    -0.197 N 
HETATM    2  C   UNL     1     -42.173  57.689 -54.001  1.00  0.00     0.183 A 
HETATM    3  C   UNL     1     -42.985  57.279 -52.957  1.00  0.00     0.125 A 
HETATM    4  N   UNL     1     -42.942  56.006 -52.475  1.00  0.00    -0.242 NA
HETATM    5  C   UNL     1     -42.070  55.201 -53.104  1.00  0.00     0.086 A 
HETATM    6  C   UNL     1     -41.237  55.648 -54.166  1.00  0.00     0.088 A 
HETATM    7  N   UNL     1     -41.264  56.907 -54.633  1.00  0.00    -0.225 NA
HETATM    8  C   UNL     1     -41.979  53.879 -52.685  1.00  0.00     0.034 A 
HETATM    9  C   UNL     1     -41.083  52.987 -53.272  1.00  0.00     0.002 A 
HETATM   10  C   UNL     1     -40.259  53.425 -54.300  1.00  0.00     0.002 A 
HETATM   11  C   UNL     1     -40.346  54.749 -54.736  1.00  0.00     0.034 A 
HETATM   12  C   UNL     1     -43.745  58.387 -52.500  1.00  0.00     0.110 C 
HETATM   13  C   UNL     1     -43.424  59.445 -53.337  1.00  0.00     0.143 C 
ENDROOT
BRANCH   1  14
HETATM   14  N   UNL     1     -41.710  59.845 -55.057  1.00  0.00    -0.176 NA
HETATM   15  C   UNL     1     -42.107  59.821 -56.296  1.00  0.00     0.150 C 
BRANCH  15  16
HETATM   16  C   UNL     1     -43.299  59.184 -56.905  1.00  0.00    -0.014 A 
HETATM   17  C   UNL     1     -43.126  57.966 -57.569  1.00  0.00     0.052 A 
HETATM   18  C   UNL     1     -44.216  57.349 -58.192  1.00  0.00     0.102 A 
HETATM   19  C   UNL     1     -45.482  57.975 -58.169  1.00  0.00     0.101 A 
HETATM   20  C   UNL     1     -45.638  59.201 -57.511  1.00  0.00     0.040 A 
HETATM   21  C   UNL     1     -44.545  59.811 -56.890  1.00  0.00     0.016 A 
BRANCH  18  22
HETATM   22  O   UNL     1     -44.150  56.155 -58.868  1.00  0.00    -0.353 OA
HETATM   23  C   UNL     1     -42.980  55.889 -59.628  1.00  0.00     0.210 C 
ENDBRANCH  18  22
BRANCH  19  24
HETATM   24  O   UNL     1     -46.495  57.305 -58.810  1.00  0.00    -0.353 OA
HETATM   25  C   UNL     1     -46.963  57.839 -60.039  1.00  0.00     0.210 C 
ENDBRANCH  19  24
ENDBRANCH  15  16
ENDBRANCH   1  14
BRANCH  13  26
HETATM   26  N   UNL     1     -43.910  60.714 -53.367  1.00  0.00    -0.383 N 
HETATM   27  H   UNL     1     -43.954  61.235 -52.488  1.00  0.00     0.157 HD
HETATM   28  H   UNL     1     -44.657  60.947 -54.020  1.00  0.00     0.157 HD
ENDBRANCH  13  26
BRANCH  12  29
HETATM   29  C   UNL     1     -44.613  58.462 -51.335  1.00  0.00     0.258 C 
HETATM   30  N   UNL     1     -44.448  59.617 -50.593  1.00  0.00    -0.352 N 
HETATM   31  H   UNL     1     -43.672  60.206 -50.885  1.00  0.00     0.163 HD
HETATM   32  O   UNL     1     -45.497  57.640 -51.105  1.00  0.00    -0.267 OA
BRANCH  30  33
HETATM   33  C   UNL     1     -45.617  60.310 -50.069  1.00  0.00     0.084 C 
HETATM   34  C   UNL     1     -45.517  60.470 -48.547  1.00  0.00     0.025 C 
HETATM   35  C   UNL     1     -44.419  61.451 -48.124  1.00  0.00     0.002 C 
HETATM   36  C   UNL     1     -44.534  62.796 -48.837  1.00  0.00     0.000 C 
HETATM   37  C   UNL     1     -44.640  62.646 -50.351  1.00  0.00     0.002 C 
HETATM   38  C   UNL     1     -45.767  61.688 -50.740  1.00  0.00     0.025 C 
ENDBRANCH  30  33
ENDBRANCH  12  29
TORSDOF 7
ENDMDL
MODEL 5
REMARK VINA RESULT:      -7.6      3.363      8.290
REMARK  7 active torsions:
REMARK  status: ('A' for Active; 'I' for Inactive)
REMARK    1  A    between atoms: O_2  and  C_3 
REMARK    2  A    between atoms: C_4  and  O_5 
REMARK    3  A    between atoms: C_8  and  C_9 
REMARK    4  A    between atoms: N_10  and  N_11 
REMARK    5  A    between atoms: C_22  and  C_23 
REMARK       I    between atoms: C_23  and  N_24 
REMARK    6  A    between atoms: N_24  and  C_25 
REMARK    7  A    between atoms: C_32  and  N_33 
ROOT
HETATM    1  N   UNL     1     -43.341  57.008 -59.439  1.00  0.00    -0.197 N 
HETATM    2  C   UNL     1     -42.664  58.212 -59.417  1.00  0.00     0.183 A 
HETATM    3  C   UNL     1     -42.232  58.417 -58.116  1.00  0.00     0.125 A 
HETATM    4  N   UNL     1     -41.602  59.565 -57.744  1.00  0.00    -0.242 NA
HETATM    5  C   UNL     1     -41.427  60.452 -58.738  1.00  0.00     0.086 A 
HETATM    6  C   UNL     1     -41.890  60.225 -60.063  1.00  0.00     0.088 A 
HETATM    7  N   UNL     1     -42.528  59.101 -60.430  1.00  0.00    -0.225 NA
HETATM    8  C   UNL     1     -40.774  61.643 -58.445  1.00  0.00     0.034 A 
HETATM    9  C   UNL     1     -40.574  62.623 -59.416  1.00  0.00     0.002 A 
HETATM   10  C   UNL     1     -41.037  62.410 -60.707  1.00  0.00     0.002 A 
HETATM   11  C   UNL     1     -41.688  61.213 -61.017  1.00  0.00     0.034 A 
HETATM   12  C   UNL     1     -42.618  57.306 -57.322  1.00  0.00     0.110 C 
HETATM   13  C   UNL     1     -43.221  56.405 -58.187  1.00  0.00     0.143 C 
ENDROOT
BRANCH   1  14
HETATM   14  N   UNL     1     -44.001  56.488 -60.519  1.00  0.00    -0.176 NA
HETATM   15  C   UNL     1     -45.258  56.806 -60.642  1.00  0.00     0.150 C 
BRANCH  15  16
HETATM   16  C   UNL     1     -46.073  57.786 -59.887  1.00  0.00    -0.014 A 
HETATM   17  C   UNL     1     -46.206  59.074 -60.413  1.00  0.00     0.052 A 
HETATM   18  C   UNL     1     -46.934  60.043 -59.713  1.00  0.00     0.102 A 
HETATM   19  C   UNL     1     -47.509  59.720 -58.465  1.00  0.00     0.101 A 
HETATM   20  C   UNL     1     -47.357  58.430 -57.944  1.00  0.00     0.040 A 
HETATM   21  C   UNL     1     -46.630  57.467 -58.648  1.00  0.00     0.016 A 
BRANCH  18  22
HETATM   22  O   UNL     1     -47.122  61.333 -60.145  1.00  0.00    -0.353 OA
HETATM   23  C   UNL     1     -47.915  61.534 -61.305  1.00  0.00     0.210 C 
ENDBRANCH  18  22
BRANCH  19  24
HETATM   24  O   UNL     1     -48.201  60.730 -57.843  1.00  0.00    -0.353 OA
HETATM   25  C   UNL     1     -49.612  60.604 -57.755  1.00  0.00     0.210 C 
ENDBRANCH  19  24
ENDBRANCH  15  16
ENDBRANCH   1  14
BRANCH  13  26
HETATM   26  N   UNL     1     -43.718  55.163 -57.947  1.00  0.00    -0.383 N 
HETATM   27  H   UNL     1     -44.282  54.720 -58.677  1.00  0.00     0.157 HD
HETATM   28  H   UNL     1     -44.001  54.912 -57.001  1.00  0.00     0.157 HD
ENDBRANCH  13  26
BRANCH  12  29
HETATM   29  C   UNL     1     -42.510  57.153 -55.879  1.00  0.00     0.258 C 
HETATM   30  N   UNL     1     -42.043  55.912 -55.485  1.00  0.00    -0.352 N 
HETATM   31  H   UNL     1     -41.945  55.234 -56.237  1.00  0.00     0.163 HD
HETATM   32  O   UNL     1     -42.693  58.078 -55.092  1.00  0.00    -0.267 OA
BRANCH  30  33
HETATM   33  C   UNL     1     -41.070  55.817 -54.406  1.00  0.00     0.084 C 
HETATM   34  C   UNL     1     -41.733  55.309 -53.120  1.00  0.00     0.025 C 
HETATM   35  C   UNL     1     -42.164  53.842 -53.214  1.00  0.00     0.002 C 
HETATM   36  C   UNL     1     -41.029  52.930 -53.675  1.00  0.00     0.000 C 
HETATM   37  C   UNL     1     -40.361  53.432 -54.950  1.00  0.00     0.002 C 
HETATM   38  C   UNL     1     -39.911  54.887 -54.811  1.00  0.00     0.025 C 
ENDBRANCH  30  33
ENDBRANCH  12  29
TORSDOF 7
ENDMDL
MODEL 6
REMARK VINA RESULT:      -7.3      2.509      7.889
REMARK  7 active torsions:
REMARK  status: ('A' for Active; 'I' for Inactive)
REMARK    1  A    between atoms: O_2  and  C_3 
REMARK    2  A    between atoms: C_4  and  O_5 
REMARK    3  A    between atoms: C_8  and  C_9 
REMARK    4  A    between atoms: N_10  and  N_11 
REMARK    5  A    between atoms: C_22  and  C_23 
REMARK       I    between atoms: C_23  and  N_24 
REMARK    6  A    between atoms: N_24  and  C_25 
REMARK    7  A    between atoms: C_32  and  N_33 
ROOT
HETATM    1  N   UNL     1     -42.938  59.158 -57.556  1.00  0.00    -0.197 N 
HETATM    2  C   UNL     1     -43.004  58.077 -56.698  1.00  0.00     0.183 A 
HETATM    3  C   UNL     1     -43.809  58.447 -55.633  1.00  0.00     0.125 A 
HETATM    4  N   UNL     1     -44.005  57.625 -54.565  1.00  0.00    -0.242 NA
HETATM    5  C   UNL     1     -43.373  56.442 -54.649  1.00  0.00     0.086 A 
HETATM    6  C   UNL     1     -42.542  56.089 -55.746  1.00  0.00     0.088 A 
HETATM    7  N   UNL     1     -42.332  56.905 -56.793  1.00  0.00    -0.225 NA
HETATM    8  C   UNL     1     -43.537  55.537 -53.607  1.00  0.00     0.034 A 
HETATM    9  C   UNL     1     -42.897  54.298 -53.609  1.00  0.00     0.002 A 
HETATM   10  C   UNL     1     -42.074  53.957 -54.673  1.00  0.00     0.002 A 
HETATM   11  C   UNL     1     -41.907  54.855 -55.730  1.00  0.00     0.034 A 
HETATM   12  C   UNL     1     -44.279  59.769 -55.847  1.00  0.00     0.110 C 
HETATM   13  C   UNL     1     -43.800  60.150 -57.090  1.00  0.00     0.143 C 
ENDROOT
BRANCH   1  14
HETATM   14  N   UNL     1     -42.167  59.229 -58.685  1.00  0.00    -0.176 NA
HETATM   15  C   UNL     1     -42.643  58.655 -59.752  1.00  0.00     0.150 C 
BRANCH  15  16
HETATM   16  C   UNL     1     -43.979  58.064 -60.004  1.00  0.00    -0.014 A 
HETATM   17  C   UNL     1     -44.075  56.673 -60.100  1.00  0.00     0.052 A 
HETATM   18  C   UNL     1     -45.309  56.076 -60.377  1.00  0.00     0.102 A 
HETATM   19  C   UNL     1     -46.448  56.885 -60.583  1.00  0.00     0.101 A 
HETATM   20  C   UNL     1     -46.335  58.277 -60.496  1.00  0.00     0.040 A 
HETATM   21  C   UNL     1     -45.099  58.868 -60.219  1.00  0.00     0.016 A 
BRANCH  18  22
HETATM   22  O   UNL     1     -45.507  54.722 -60.491  1.00  0.00    -0.353 OA
HETATM   23  C   UNL     1     -44.755  53.869 -59.641  1.00  0.00     0.210 C 
ENDBRANCH  18  22
BRANCH  19  24
HETATM   24  O   UNL     1     -47.618  56.219 -60.855  1.00  0.00    -0.353 OA
HETATM   25  C   UNL     1     -48.335  56.597 -62.020  1.00  0.00     0.210 C 
ENDBRANCH  19  24
ENDBRANCH  15  16
ENDBRANCH   1  14
BRANCH  13  26
HETATM   26  N   UNL     1     -44.004  61.297 -57.791  1.00  0.00    -0.383 N 
HETATM   27  H   UNL     1     -44.904  61.422 -58.262  1.00  0.00     0.157 HD
HETATM   28  H   UNL     1     -43.222  61.729 -58.281  1.00  0.00     0.157 HD
ENDBRANCH  13  26
BRANCH  12  29
HETATM   29  C   UNL     1     -45.026  60.616 -54.929  1.00  0.00     0.258 C 
HETATM   30  N   UNL     1     -45.564  59.932 -53.855  1.00  0.00    -0.352 N 
HETATM   31  H   UNL     1     -45.469  58.921 -53.901  1.00  0.00     0.163 HD
HETATM   32  O   UNL     1     -45.066  61.840 -55.030  1.00  0.00    -0.267 OA
BRANCH  30  33
HETATM   33  C   UNL     1     -45.507  60.520 -52.524  1.00  0.00     0.084 C 
HETATM   34  C   UNL     1     -46.072  59.554 -51.477  1.00  0.00     0.025 C 
HETATM   35  C   UNL     1     -45.182  58.327 -51.259  1.00  0.00     0.002 C 
HETATM   36  C   UNL     1     -43.731  58.705 -50.968  1.00  0.00     0.000 C 
HETATM   37  C   UNL     1     -43.163  59.671 -52.001  1.00  0.00     0.002 C 
HETATM   38  C   UNL     1     -44.057  60.901 -52.169  1.00  0.00     0.025 C 
ENDBRANCH  30  33
ENDBRANCH  12  29
TORSDOF 7
ENDMDL
MODEL 7
REMARK VINA RESULT:      -7.3      3.031      7.503
REMARK  7 active torsions:
REMARK  status: ('A' for Active; 'I' for Inactive)
REMARK    1  A    between atoms: O_2  and  C_3 
REMARK    2  A    between atoms: C_4  and  O_5 
REMARK    3  A    between atoms: C_8  and  C_9 
REMARK    4  A    between atoms: N_10  and  N_11 
REMARK    5  A    between atoms: C_22  and  C_23 
REMARK       I    between atoms: C_23  and  N_24 
REMARK    6  A    between atoms: N_24  and  C_25 
REMARK    7  A    between atoms: C_32  and  N_33 
ROOT
HETATM    1  N   UNL     1     -42.074  59.420 -57.441  1.00  0.00    -0.197 N 
HETATM    2  C   UNL     1     -42.275  59.560 -56.081  1.00  0.00     0.183 A 
HETATM    3  C   UNL     1     -42.425  58.287 -55.555  1.00  0.00     0.125 A 
HETATM    4  N   UNL     1     -42.725  58.087 -54.242  1.00  0.00    -0.242 NA
HETATM    5  C   UNL     1     -42.841  59.213 -53.519  1.00  0.00     0.086 A 
HETATM    6  C   UNL     1     -42.694  60.509 -54.083  1.00  0.00     0.088 A 
HETATM    7  N   UNL     1     -42.417  60.712 -55.382  1.00  0.00    -0.225 NA
HETATM    8  C   UNL     1     -43.126  59.094 -52.164  1.00  0.00     0.034 A 
HETATM    9  C   UNL     1     -43.284  60.216 -51.351  1.00  0.00     0.002 A 
HETATM   10  C   UNL     1     -43.155  61.483 -51.903  1.00  0.00     0.002 A 
HETATM   11  C   UNL     1     -42.860  61.616 -53.261  1.00  0.00     0.034 A 
HETATM   12  C   UNL     1     -42.282  57.337 -56.599  1.00  0.00     0.110 C 
HETATM   13  C   UNL     1     -41.973  58.061 -57.740  1.00  0.00     0.143 C 
ENDROOT
BRANCH   1  14
HETATM   14  N   UNL     1     -41.972  60.448 -58.338  1.00  0.00    -0.176 NA
HETATM   15  C   UNL     1     -43.084  60.874 -58.865  1.00  0.00     0.150 C 
BRANCH  15  16
HETATM   16  C   UNL     1     -44.489  60.539 -58.531  1.00  0.00    -0.014 A 
HETATM   17  C   UNL     1     -45.105  59.506 -59.242  1.00  0.00     0.052 A 
HETATM   18  C   UNL     1     -46.442  59.183 -58.987  1.00  0.00     0.102 A 
HETATM   19  C   UNL     1     -47.170  59.922 -58.030  1.00  0.00     0.101 A 
HETATM   20  C   UNL     1     -46.544  60.963 -57.334  1.00  0.00     0.040 A 
HETATM   21  C   UNL     1     -45.208  61.280 -57.593  1.00  0.00     0.016 A 
BRANCH  18  22
HETATM   22  O   UNL     1     -47.136  58.187 -59.630  1.00  0.00    -0.353 OA
HETATM   23  C   UNL     1     -46.594  56.875 -59.594  1.00  0.00     0.210 C 
ENDBRANCH  18  22
BRANCH  19  24
HETATM   24  O   UNL     1     -48.478  59.544 -57.845  1.00  0.00    -0.353 OA
HETATM   25  C   UNL     1     -49.458  60.569 -57.788  1.00  0.00     0.210 C 
ENDBRANCH  19  24
ENDBRANCH  15  16
ENDBRANCH   1  14
BRANCH  13  26
HETATM   26  N   UNL     1     -41.684  57.632 -58.996  1.00  0.00    -0.383 N 
HETATM   27  H   UNL     1     -42.463  57.375 -59.609  1.00  0.00     0.157 HD
HETATM   28  H   UNL     1     -40.840  57.085 -59.155  1.00  0.00     0.157 HD
ENDBRANCH  13  26
BRANCH  12  29
HETATM   29  C   UNL     1     -42.508  55.900 -56.543  1.00  0.00     0.258 C 
HETATM   30  N   UNL     1     -41.861  55.278 -55.490  1.00  0.00    -0.352 N 
HETATM   31  H   UNL     1     -41.228  55.875 -54.964  1.00  0.00     0.163 HD
HETATM   32  O   UNL     1     -43.298  55.317 -57.280  1.00  0.00    -0.267 OA
BRANCH  30  33
HETATM   33  C   UNL     1     -42.553  54.249 -54.727  1.00  0.00     0.084 C 
HETATM   34  C   UNL     1     -41.669  53.008 -54.561  1.00  0.00     0.025 C 
HETATM   35  C   UNL     1     -40.468  53.252 -53.642  1.00  0.00     0.002 C 
HETATM   36  C   UNL     1     -40.877  53.851 -52.298  1.00  0.00     0.000 C 
HETATM   37  C   UNL     1     -41.761  55.082 -52.454  1.00  0.00     0.002 C 
HETATM   38  C   UNL     1     -42.969  54.794 -53.347  1.00  0.00     0.025 C 
ENDBRANCH  30  33
ENDBRANCH  12  29
TORSDOF 7
ENDMDL
MODEL 8
REMARK VINA RESULT:      -7.2      3.402      8.107
REMARK  7 active torsions:
REMARK  status: ('A' for Active; 'I' for Inactive)
REMARK    1  A    between atoms: O_2  and  C_3 
REMARK    2  A    between atoms: C_4  and  O_5 
REMARK    3  A    between atoms: C_8  and  C_9 
REMARK    4  A    between atoms: N_10  and  N_11 
REMARK    5  A    between atoms: C_22  and  C_23 
REMARK       I    between atoms: C_23  and  N_24 
REMARK    6  A    between atoms: N_24  and  C_25 
REMARK    7  A    between atoms: C_32  and  N_33 
ROOT
HETATM    1  N   UNL     1     -43.279  56.871 -59.123  1.00  0.00    -0.197 N 
HETATM    2  C   UNL     1     -42.640  58.093 -59.213  1.00  0.00     0.183 A 
HETATM    3  C   UNL     1     -42.186  58.414 -57.945  1.00  0.00     0.125 A 
HETATM    4  N   UNL     1     -41.585  59.608 -57.681  1.00  0.00    -0.242 NA
HETATM    5  C   UNL     1     -41.460  60.416 -58.746  1.00  0.00     0.086 A 
HETATM    6  C   UNL     1     -41.944  60.070 -60.037  1.00  0.00     0.088 A 
HETATM    7  N   UNL     1     -42.554  58.901 -60.297  1.00  0.00    -0.225 NA
HETATM    8  C   UNL     1     -40.839  61.646 -58.565  1.00  0.00     0.034 A 
HETATM    9  C   UNL     1     -40.691  62.550 -59.616  1.00  0.00     0.002 A 
HETATM   10  C   UNL     1     -41.176  62.220 -60.874  1.00  0.00     0.002 A 
HETATM   11  C   UNL     1     -41.795  60.984 -61.071  1.00  0.00     0.034 A 
HETATM   12  C   UNL     1     -42.519  57.360 -57.055  1.00  0.00     0.110 C 
HETATM   13  C   UNL     1     -43.112  56.375 -57.830  1.00  0.00     0.143 C 
ENDROOT
BRANCH   1  14
HETATM   14  N   UNL     1     -43.945  56.246 -60.142  1.00  0.00    -0.176 NA
HETATM   15  C   UNL     1     -45.194  56.575 -60.309  1.00  0.00     0.150 C 
BRANCH  15  16
HETATM   16  C   UNL     1     -45.990  57.653 -59.676  1.00  0.00    -0.014 A 
HETATM   17  C   UNL     1     -46.070  58.884 -60.332  1.00  0.00     0.052 A 
HETATM   18  C   UNL     1     -46.778  59.942 -59.751  1.00  0.00     0.102 A 
HETATM   19  C   UNL     1     -47.388  59.766 -58.490  1.00  0.00     0.101 A 
HETATM   20  C   UNL     1     -47.289  58.531 -57.838  1.00  0.00     0.040 A 
HETATM   21  C   UNL     1     -46.581  57.479 -58.423  1.00  0.00     0.016 A 
BRANCH  18  22
HETATM   22  O   UNL     1     -46.915  61.186 -60.315  1.00  0.00    -0.353 OA
HETATM   23  C   UNL     1     -45.740  61.962 -60.499  1.00  0.00     0.210 C 
ENDBRANCH  18  22
BRANCH  19  24
HETATM   24  O   UNL     1     -48.058  60.856 -57.989  1.00  0.00    -0.353 OA
HETATM   25  C   UNL     1     -49.452  60.722 -57.758  1.00  0.00     0.210 C 
ENDBRANCH  19  24
ENDBRANCH  15  16
ENDBRANCH   1  14
BRANCH  13  26
HETATM   26  N   UNL     1     -43.563  55.142 -57.480  1.00  0.00    -0.383 N 
HETATM   27  H   UNL     1     -42.878  54.389 -57.376  1.00  0.00     0.157 HD
HETATM   28  H   UNL     1     -44.470  54.827 -57.821  1.00  0.00     0.157 HD
ENDBRANCH  13  26
BRANCH  12  29
HETATM   29  C   UNL     1     -42.374  57.327 -55.607  1.00  0.00     0.258 C 
HETATM   30  N   UNL     1     -42.301  58.581 -55.028  1.00  0.00    -0.352 N 
HETATM   31  H   UNL     1     -42.243  59.353 -55.687  1.00  0.00     0.163 HD
HETATM   32  O   UNL     1     -42.441  56.291 -54.951  1.00  0.00    -0.267 OA
BRANCH  30  33
HETATM   33  C   UNL     1     -43.023  58.847 -53.792  1.00  0.00     0.084 C 
HETATM   34  C   UNL     1     -42.588  60.186 -53.185  1.00  0.00     0.025 C 
HETATM   35  C   UNL     1     -43.041  61.390 -54.017  1.00  0.00     0.002 C 
HETATM   36  C   UNL     1     -44.537  61.356 -54.322  1.00  0.00     0.000 C 
HETATM   37  C   UNL     1     -44.979  60.025 -54.920  1.00  0.00     0.002 C 
HETATM   38  C   UNL     1     -44.542  58.847 -54.048  1.00  0.00     0.025 C 
ENDBRANCH  30  33
ENDBRANCH  12  29
TORSDOF 7
ENDMDL
MODEL 9
REMARK VINA RESULT:      -7.1      2.805      6.920
REMARK  7 active torsions:
REMARK  status: ('A' for Active; 'I' for Inactive)
REMARK    1  A    between atoms: O_2  and  C_3 
REMARK    2  A    between atoms: C_4  and  O_5 
REMARK    3  A    between atoms: C_8  and  C_9 
REMARK    4  A    between atoms: N_10  and  N_11 
REMARK    5  A    between atoms: C_22  and  C_23 
REMARK       I    between atoms: C_23  and  N_24 
REMARK    6  A    between atoms: N_24  and  C_25 
REMARK    7  A    between atoms: C_32  and  N_33 
ROOT
HETATM    1  N   UNL     1     -44.937  59.968 -56.435  1.00  0.00    -0.197 N 
HETATM    2  C   UNL     1     -44.771  58.813 -57.174  1.00  0.00     0.183 A 
HETATM    3  C   UNL     1     -43.778  58.069 -56.559  1.00  0.00     0.125 A 
HETATM    4  N   UNL     1     -43.317  56.907 -57.098  1.00  0.00    -0.242 NA
HETATM    5  C   UNL     1     -43.917  56.548 -58.245  1.00  0.00     0.086 A 
HETATM    6  C   UNL     1     -44.927  57.333 -58.864  1.00  0.00     0.088 A 
HETATM    7  N   UNL     1     -45.371  58.490 -58.346  1.00  0.00    -0.225 NA
HETATM    8  C   UNL     1     -43.518  55.362 -58.849  1.00  0.00     0.034 A 
HETATM    9  C   UNL     1     -44.076  54.932 -60.052  1.00  0.00     0.002 A 
HETATM   10  C   UNL     1     -45.052  55.704 -60.666  1.00  0.00     0.002 A 
HETATM   11  C   UNL     1     -45.468  56.895 -60.065  1.00  0.00     0.034 A 
HETATM   12  C   UNL     1     -43.339  58.757 -55.398  1.00  0.00     0.110 C 
HETATM   13  C   UNL     1     -44.139  59.885 -55.293  1.00  0.00     0.143 C 
ENDROOT
BRANCH   1  14
HETATM   14  N   UNL     1     -45.763  61.009 -56.761  1.00  0.00    -0.176 NA
HETATM   15  C   UNL     1     -45.218  62.008 -57.394  1.00  0.00     0.150 C 
BRANCH  15  16
HETATM   16  C   UNL     1     -43.863  62.143 -57.979  1.00  0.00    -0.014 A 
HETATM   17  C   UNL     1     -43.609  61.517 -59.202  1.00  0.00     0.052 A 
HETATM   18  C   UNL     1     -42.332  61.586 -59.771  1.00  0.00     0.102 A 
HETATM   19  C   UNL     1     -41.300  62.267 -59.091  1.00  0.00     0.101 A 
HETATM   20  C   UNL     1     -41.565  62.879 -57.860  1.00  0.00     0.040 A 
HETATM   21  C   UNL     1     -42.842  62.807 -57.297  1.00  0.00     0.016 A 
BRANCH  18  22
HETATM   22  O   UNL     1     -41.983  61.006 -60.965  1.00  0.00    -0.353 OA
HETATM   23  C   UNL     1     -41.993  59.588 -61.040  1.00  0.00     0.210 C 
ENDBRANCH  18  22
BRANCH  19  24
HETATM   24  O   UNL     1     -40.076  62.282 -59.715  1.00  0.00    -0.353 OA
HETATM   25  C   UNL     1     -39.431  63.537 -59.869  1.00  0.00     0.210 C 
ENDBRANCH  19  24
ENDBRANCH  15  16
ENDBRANCH   1  14
BRANCH  13  26
HETATM   26  N   UNL     1     -44.170  60.848 -54.335  1.00  0.00    -0.383 N 
HETATM   27  H   UNL     1     -44.777  61.659 -54.485  1.00  0.00     0.157 HD
HETATM   28  H   UNL     1     -43.321  61.062 -53.814  1.00  0.00     0.157 HD
ENDBRANCH  13  26
BRANCH  12  29
HETATM   29  C   UNL     1     -42.218  58.430 -54.530  1.00  0.00     0.258 C 
HETATM   30  N   UNL     1     -42.271  57.148 -54.013  1.00  0.00    -0.352 N 
HETATM   31  H   UNL     1     -43.132  56.644 -54.210  1.00  0.00     0.163 HD
HETATM   32  O   UNL     1     -41.253  59.174 -54.374  1.00  0.00    -0.267 OA
BRANCH  30  33
HETATM   33  C   UNL     1     -41.058  56.345 -53.951  1.00  0.00     0.084 C 
HETATM   34  C   UNL     1     -40.964  55.606 -52.611  1.00  0.00     0.025 C 
HETATM   35  C   UNL     1     -42.016  54.502 -52.466  1.00  0.00     0.002 C 
HETATM   36  C   UNL     1     -42.019  53.542 -53.653  1.00  0.00     0.000 C 
HETATM   37  C   UNL     1     -42.107  54.270 -54.990  1.00  0.00     0.002 C 
HETATM   38  C   UNL     1     -41.021  55.340 -55.117  1.00  0.00     0.025 C 
ENDBRANCH  30  33
ENDBRANCH  12  29
TORSDOF 7
ENDMDL
MODEL 10
REMARK VINA RESULT:      -6.8     16.952     19.635
REMARK  7 active torsions:
REMARK  status: ('A' for Active; 'I' for Inactive)
REMARK    1  A    between atoms: O_2  and  C_3 
REMARK    2  A    between atoms: C_4  and  O_5 
REMARK    3  A    between atoms: C_8  and  C_9 
REMARK    4  A    between atoms: N_10  and  N_11 
REMARK    5  A    between atoms: C_22  and  C_23 
REMARK       I    between atoms: C_23  and  N_24 
REMARK    6  A    between atoms: N_24  and  C_25 
REMARK    7  A    between atoms: C_32  and  N_33 
ROOT
HETATM    1  N   UNL     1     -35.396  41.208 -51.382  1.00  0.00    -0.197 N 
HETATM    2  C   UNL     1     -36.194  40.175 -50.929  1.00  0.00     0.183 A 
HETATM    3  C   UNL     1     -37.243  40.044 -51.824  1.00  0.00     0.125 A 
HETATM    4  N   UNL     1     -38.259  39.162 -51.611  1.00  0.00    -0.242 NA
HETATM    5  C   UNL     1     -38.140  38.436 -50.486  1.00  0.00     0.086 A 
HETATM    6  C   UNL     1     -37.060  38.597 -49.577  1.00  0.00     0.088 A 
HETATM    7  N   UNL     1     -36.066  39.479 -49.774  1.00  0.00    -0.225 NA
HETATM    8  C   UNL     1     -39.126  37.498 -50.206  1.00  0.00     0.034 A 
HETATM    9  C   UNL     1     -39.086  36.722 -49.048  1.00  0.00     0.002 A 
HETATM   10  C   UNL     1     -38.040  36.887 -48.151  1.00  0.00     0.002 A 
HETATM   11  C   UNL     1     -37.038  37.821 -48.426  1.00  0.00     0.034 A 
HETATM   12  C   UNL     1     -37.079  40.988 -52.870  1.00  0.00     0.110 C 
HETATM   13  C   UNL     1     -35.877  41.633 -52.621  1.00  0.00     0.143 C 
ENDROOT
BRANCH   1  14
HETATM   14  N   UNL     1     -34.304  41.714 -50.729  1.00  0.00    -0.176 NA
HETATM   15  C   UNL     1     -33.168  41.118 -50.948  1.00  0.00     0.150 C 
BRANCH  15  16
HETATM   16  C   UNL     1     -32.815  40.065 -51.929  1.00  0.00    -0.014 A 
HETATM   17  C   UNL     1     -32.260  40.462 -53.149  1.00  0.00     0.052 A 
HETATM   18  C   UNL     1     -31.948  39.504 -54.120  1.00  0.00     0.102 A 
HETATM   19  C   UNL     1     -32.221  38.141 -53.871  1.00  0.00     0.101 A 
HETATM   20  C   UNL     1     -32.789  37.759 -52.650  1.00  0.00     0.040 A 
HETATM   21  C   UNL     1     -33.097  38.720 -51.684  1.00  0.00     0.016 A 
BRANCH  18  22
HETATM   22  O   UNL     1     -31.402  39.792 -55.346  1.00  0.00    -0.353 OA
HETATM   23  C   UNL     1     -32.264  40.309 -56.350  1.00  0.00     0.210 C 
ENDBRANCH  18  22
BRANCH  19  24
HETATM   24  O   UNL     1     -31.890  37.268 -54.879  1.00  0.00    -0.353 OA
HETATM   25  C   UNL     1     -32.953  36.658 -55.596  1.00  0.00     0.210 C 
ENDBRANCH  19  24
ENDBRANCH  15  16
ENDBRANCH   1  14
BRANCH  13  26
HETATM   26  N   UNL     1     -35.229  42.584 -53.345  1.00  0.00    -0.383 N 
HETATM   27  H   UNL     1     -34.718  43.312 -52.838  1.00  0.00     0.157 HD
HETATM   28  H   UNL     1     -35.631  42.902 -54.225  1.00  0.00     0.157 HD
ENDBRANCH  13  26
BRANCH  12  29
HETATM   29  C   UNL     1     -38.008  41.312 -53.943  1.00  0.00     0.258 C 
HETATM   30  N   UNL     1     -37.388  41.601 -55.145  1.00  0.00    -0.352 N 
HETATM   31  H   UNL     1     -36.374  41.663 -55.099  1.00  0.00     0.163 HD
HETATM   32  O   UNL     1     -39.226  41.212 -53.826  1.00  0.00    -0.267 OA
BRANCH  30  33
HETATM   33  C   UNL     1     -37.944  41.079 -56.385  1.00  0.00     0.084 C 
HETATM   34  C   UNL     1     -37.433  41.879 -57.589  1.00  0.00     0.025 C 
HETATM   35  C   UNL     1     -35.941  41.662 -57.858  1.00  0.00     0.002 C 
HETATM   36  C   UNL     1     -35.578  40.182 -57.956  1.00  0.00     0.000 C 
HETATM   37  C   UNL     1     -36.086  39.377 -56.765  1.00  0.00     0.002 C 
HETATM   38  C   UNL     1     -37.586  39.589 -56.546  1.00  0.00     0.025 C 
ENDBRANCH  30  33
ENDBRANCH  12  29
TORSDOF 7
ENDMDL
