MODEL 1
REMARK VINA RESULT:      -7.7      0.000      0.000
REMARK  3 active torsions:
REMARK  status: ('A' for Active; 'I' for Inactive)
REMARK    1  A    between atoms: C_4  and  N_5 
REMARK       I    between atoms: N_5  and  C_6 
REMARK    2  A    between atoms: C_6  and  C_7 
REMARK    3  A    between atoms: C_7  and  C_8 
ROOT
HETATM    1  C   UNL     1     -42.633  55.913 -55.477  1.00  0.00     0.286 C 
HETATM    2  N   UNL     1     -43.267  55.169 -56.659  1.00  0.00    -0.056 N 
HETATM    3  H   UNL     1     -42.816  54.245 -56.756  1.00  0.00     0.278 HD
HETATM    4  H   UNL     1     -44.257  54.992 -56.445  1.00  0.00     0.278 HD
HETATM    5  C   UNL     1     -43.157  55.866 -57.993  1.00  0.00     0.209 C 
HETATM    6  C   UNL     1     -43.606  57.332 -57.860  1.00  0.00     0.115 C 
HETATM    7  N   UNL     1     -42.896  58.021 -56.797  1.00  0.00    -0.353 N 
HETATM    8  C   UNL     1     -42.562  57.447 -55.603  1.00  0.00     0.249 C 
HETATM    9  O   UNL     1     -42.138  58.145 -54.686  1.00  0.00    -0.271 OA
HETATM   10  C   UNL     1     -44.003  55.134 -59.030  1.00  0.00     0.035 C 
HETATM   11  C   UNL     1     -43.877  55.825 -60.389  1.00  0.00     0.002 C 
HETATM   12  C   UNL     1     -44.188  57.321 -60.316  1.00  0.00     0.002 C 
HETATM   13  C   UNL     1     -43.412  58.034 -59.207  1.00  0.00     0.027 C 
HETATM   14  H   UNL     1     -42.878  59.039 -56.790  1.00  0.00     0.163 HD
ENDROOT
BRANCH   1  15
HETATM   15  C   UNL     1     -41.252  55.357 -55.113  1.00  0.00     0.146 C 
BRANCH  15  16
HETATM   16  C   UNL     1     -41.423  54.110 -54.286  1.00  0.00     0.224 C 
HETATM   17  N   UNL     1     -40.237  53.483 -53.975  1.00  0.00    -0.327 N 
HETATM   18  H   UNL     1     -39.371  54.006 -54.093  1.00  0.00     0.169 HD
HETATM   19  O   UNL     1     -42.565  53.691 -54.113  1.00  0.00    -0.273 OA
BRANCH  17  20
HETATM   20  C   UNL     1     -40.067  52.155 -53.527  1.00  0.00     0.034 A 
HETATM   21  C   UNL     1     -40.146  51.033 -54.355  1.00  0.00     0.029 A 
HETATM   22  C   UNL     1     -39.908  49.754 -53.840  1.00  0.00     0.002 A 
HETATM   23  C   UNL     1     -39.593  49.586 -52.494  1.00  0.00     0.000 A 
HETATM   24  C   UNL     1     -39.520  50.697 -51.659  1.00  0.00     0.002 A 
HETATM   25  C   UNL     1     -39.755  51.975 -52.174  1.00  0.00     0.029 A 
ENDBRANCH  17  20
ENDBRANCH  15  16
ENDBRANCH   1  15
TORSDOF 3
ENDMDL
MODEL 2
REMARK VINA RESULT:      -7.7      2.729      3.789
REMARK  3 active torsions:
REMARK  status: ('A' for Active; 'I' for Inactive)
REMARK    1  A    between atoms: C_4  and  N_5 
REMARK       I    between atoms: N_5  and  C_6 
REMARK    2  A    between atoms: C_6  and  C_7 
REMARK    3  A    between atoms: C_7  and  C_8 
ROOT
HETATM    1  C   UNL     1     -42.011  55.949 -50.994  1.00  0.00     0.286 C 
HETATM    2  N   UNL     1     -42.674  55.028 -52.026  1.00  0.00    -0.056 N 
HETATM    3  H   UNL     1     -42.402  54.052 -51.830  1.00  0.00     0.278 HD
HETATM    4  H   UNL     1     -43.694  55.078 -51.905  1.00  0.00     0.278 HD
HETATM    5  C   UNL     1     -42.322  55.314 -53.465  1.00  0.00     0.209 C 
HETATM    6  C   UNL     1     -42.492  56.814 -53.761  1.00  0.00     0.115 C 
HETATM    7  N   UNL     1     -41.756  57.638 -52.820  1.00  0.00    -0.353 N 
HETATM    8  C   UNL     1     -41.638  57.360 -51.488  1.00  0.00     0.249 C 
HETATM    9  O   UNL     1     -41.167  58.200 -50.726  1.00  0.00    -0.271 OA
HETATM   10  C   UNL     1     -43.202  54.477 -54.389  1.00  0.00     0.035 C 
HETATM   11  C   UNL     1     -42.834  54.748 -55.848  1.00  0.00     0.002 C 
HETATM   12  C   UNL     1     -42.859  56.239 -56.191  1.00  0.00     0.002 C 
HETATM   13  C   UNL     1     -42.056  57.088 -55.204  1.00  0.00     0.027 C 
HETATM   14  H   UNL     1     -41.544  58.604 -53.065  1.00  0.00     0.163 HD
ENDROOT
BRANCH   1  15
HETATM   15  C   UNL     1     -40.796  55.295 -50.326  1.00  0.00     0.146 C 
BRANCH  15  16
HETATM   16  C   UNL     1     -40.816  53.815 -50.607  1.00  0.00     0.224 C 
HETATM   17  N   UNL     1     -39.856  53.408 -51.507  1.00  0.00    -0.327 N 
HETATM   18  H   UNL     1     -39.085  54.043 -51.708  1.00  0.00     0.169 HD
HETATM   19  O   UNL     1     -41.752  53.160 -50.157  1.00  0.00    -0.273 OA
BRANCH  17  20
HETATM   20  C   UNL     1     -39.822  52.194 -52.228  1.00  0.00     0.034 A 
HETATM   21  C   UNL     1     -39.519  50.955 -51.660  1.00  0.00     0.029 A 
HETATM   22  C   UNL     1     -39.564  49.791 -52.434  1.00  0.00     0.002 A 
HETATM   23  C   UNL     1     -39.907  49.857 -53.783  1.00  0.00     0.000 A 
HETATM   24  C   UNL     1     -40.203  51.088 -54.360  1.00  0.00     0.002 A 
HETATM   25  C   UNL     1     -40.162  52.251 -53.585  1.00  0.00     0.029 A 
ENDBRANCH  17  20
ENDBRANCH  15  16
ENDBRANCH   1  15
TORSDOF 3
ENDMDL
MODEL 3
REMARK VINA RESULT:      -7.5      2.297      7.503
REMARK  3 active torsions:
REMARK  status: ('A' for Active; 'I' for Inactive)
REMARK    1  A    between atoms: C_4  and  N_5 
REMARK       I    between atoms: N_5  and  C_6 
REMARK    2  A    between atoms: C_6  and  C_7 
REMARK    3  A    between atoms: C_7  and  C_8 
ROOT
HETATM    1  C   UNL     1     -40.825  54.088 -51.236  1.00  0.00     0.286 C 
HETATM    2  N   UNL     1     -40.413  53.573 -52.621  1.00  0.00    -0.056 N 
HETATM    3  H   UNL     1     -41.038  53.985 -53.333  1.00  0.00     0.278 HD
HETATM    4  H   UNL     1     -39.465  53.913 -52.831  1.00  0.00     0.278 HD
HETATM    5  C   UNL     1     -40.461  52.075 -52.793  1.00  0.00     0.209 C 
HETATM    6  C   UNL     1     -39.731  51.387 -51.625  1.00  0.00     0.115 C 
HETATM    7  N   UNL     1     -40.234  51.830 -50.337  1.00  0.00    -0.353 N 
HETATM    8  C   UNL     1     -40.606  53.115 -50.061  1.00  0.00     0.249 C 
HETATM    9  O   UNL     1     -40.836  53.451 -48.902  1.00  0.00    -0.271 OA
HETATM   10  C   UNL     1     -39.831  51.687 -54.127  1.00  0.00     0.035 C 
HETATM   11  C   UNL     1     -39.897  50.170 -54.314  1.00  0.00     0.002 C 
HETATM   12  C   UNL     1     -39.299  49.408 -53.129  1.00  0.00     0.002 C 
HETATM   13  C   UNL     1     -39.860  49.870 -51.784  1.00  0.00     0.027 C 
HETATM   14  H   UNL     1     -40.056  51.261 -49.512  1.00  0.00     0.163 HD
ENDROOT
BRANCH   1  15
HETATM   15  C   UNL     1     -42.265  54.612 -51.215  1.00  0.00     0.146 C 
BRANCH  15  16
HETATM   16  C   UNL     1     -42.445  55.608 -52.330  1.00  0.00     0.224 C 
HETATM   17  N   UNL     1     -43.288  55.176 -53.330  1.00  0.00    -0.327 N 
HETATM   18  H   UNL     1     -43.894  54.381 -53.138  1.00  0.00     0.169 HD
HETATM   19  O   UNL     1     -41.724  56.602 -52.330  1.00  0.00    -0.273 OA
BRANCH  17  20
HETATM   20  C   UNL     1     -43.397  55.698 -54.638  1.00  0.00     0.034 A 
HETATM   21  C   UNL     1     -43.981  56.930 -54.942  1.00  0.00     0.029 A 
HETATM   22  C   UNL     1     -43.997  57.399 -56.260  1.00  0.00     0.002 A 
HETATM   23  C   UNL     1     -43.436  56.640 -57.284  1.00  0.00     0.000 A 
HETATM   24  C   UNL     1     -42.859  55.408 -56.992  1.00  0.00     0.002 A 
HETATM   25  C   UNL     1     -42.840  54.940 -55.675  1.00  0.00     0.029 A 
ENDBRANCH  17  20
ENDBRANCH  15  16
ENDBRANCH   1  15
TORSDOF 3
ENDMDL
MODEL 4
REMARK VINA RESULT:      -7.1      1.803      7.149
REMARK  3 active torsions:
REMARK  status: ('A' for Active; 'I' for Inactive)
REMARK    1  A    between atoms: C_4  and  N_5 
REMARK       I    between atoms: N_5  and  C_6 
REMARK    2  A    between atoms: C_6  and  C_7 
REMARK    3  A    between atoms: C_7  and  C_8 
ROOT
HETATM    1  C   UNL     1     -41.768  56.854 -53.450  1.00  0.00     0.286 C 
HETATM    2  N   UNL     1     -41.079  55.842 -54.375  1.00  0.00    -0.056 N 
HETATM    3  H   UNL     1     -41.546  55.856 -55.296  1.00  0.00     0.278 HD
HETATM    4  H   UNL     1     -40.109  56.146 -54.532  1.00  0.00     0.278 HD
HETATM    5  C   UNL     1     -41.088  54.414 -53.888  1.00  0.00     0.209 C 
HETATM    6  C   UNL     1     -40.612  54.353 -52.426  1.00  0.00     0.115 C 
HETATM    7  N   UNL     1     -41.369  55.251 -51.573  1.00  0.00    -0.353 N 
HETATM    8  C   UNL     1     -41.792  56.493 -51.952  1.00  0.00     0.249 C 
HETATM    9  O   UNL     1     -42.256  57.264 -51.117  1.00  0.00    -0.271 OA
HETATM   10  C   UNL     1     -40.197  53.557 -54.782  1.00  0.00     0.035 C 
HETATM   11  C   UNL     1     -40.219  52.104 -54.305  1.00  0.00     0.002 C 
HETATM   12  C   UNL     1     -39.876  51.972 -52.819  1.00  0.00     0.002 C 
HETATM   13  C   UNL     1     -40.702  52.906 -51.934  1.00  0.00     0.027 C 
HETATM   14  H   UNL     1     -41.363  55.102 -50.565  1.00  0.00     0.163 HD
ENDROOT
BRANCH   1  15
HETATM   15  C   UNL     1     -43.183  57.205 -53.923  1.00  0.00     0.146 C 
BRANCH  15  16
HETATM   16  C   UNL     1     -43.125  57.658 -55.359  1.00  0.00     0.224 C 
HETATM   17  N   UNL     1     -43.988  56.979 -56.190  1.00  0.00    -0.327 N 
HETATM   18  H   UNL     1     -44.739  56.437 -55.766  1.00  0.00     0.169 HD
HETATM   19  O   UNL     1     -42.234  58.442 -55.676  1.00  0.00    -0.273 OA
BRANCH  17  20
HETATM   20  C   UNL     1     -43.941  56.916 -57.600  1.00  0.00     0.034 A 
HETATM   21  C   UNL     1     -44.642  57.779 -58.445  1.00  0.00     0.029 A 
HETATM   22  C   UNL     1     -44.495  57.685 -59.833  1.00  0.00     0.002 A 
HETATM   23  C   UNL     1     -43.651  56.725 -60.387  1.00  0.00     0.000 A 
HETATM   24  C   UNL     1     -42.955  55.855 -59.554  1.00  0.00     0.002 A 
HETATM   25  C   UNL     1     -43.099  55.951 -58.167  1.00  0.00     0.029 A 
ENDBRANCH  17  20
ENDBRANCH  15  16
ENDBRANCH   1  15
TORSDOF 3
ENDMDL
MODEL 5
REMARK VINA RESULT:      -7.1      2.004      7.403
REMARK  3 active torsions:
REMARK  status: ('A' for Active; 'I' for Inactive)
REMARK    1  A    between atoms: C_4  and  N_5 
REMARK       I    between atoms: N_5  and  C_6 
REMARK    2  A    between atoms: C_6  and  C_7 
REMARK    3  A    between atoms: C_7  and  C_8 
ROOT
HETATM    1  C   UNL     1     -41.326  55.632 -52.521  1.00  0.00     0.286 C 
HETATM    2  N   UNL     1     -40.740  54.558 -53.447  1.00  0.00    -0.056 N 
HETATM    3  H   UNL     1     -41.302  54.516 -54.312  1.00  0.00     0.278 HD
HETATM    4  H   UNL     1     -39.792  54.845 -53.726  1.00  0.00     0.278 HD
HETATM    5  C   UNL     1     -40.696  53.164 -52.871  1.00  0.00     0.209 C 
HETATM    6  C   UNL     1     -40.066  53.194 -51.467  1.00  0.00     0.115 C 
HETATM    7  N   UNL     1     -40.729  54.149 -50.598  1.00  0.00    -0.353 N 
HETATM    8  C   UNL     1     -41.190  55.367 -51.009  1.00  0.00     0.249 C 
HETATM    9  O   UNL     1     -41.562  56.194 -50.181  1.00  0.00    -0.271 OA
HETATM   10  C   UNL     1     -39.905  52.246 -53.798  1.00  0.00     0.035 C 
HETATM   11  C   UNL     1     -39.876  50.827 -53.228  1.00  0.00     0.002 C 
HETATM   12  C   UNL     1     -39.376  50.787 -51.782  1.00  0.00     0.002 C 
HETATM   13  C   UNL     1     -40.103  51.782 -50.876  1.00  0.00     0.027 C 
HETATM   14  H   UNL     1     -40.614  54.066 -49.589  1.00  0.00     0.163 HD
ENDROOT
BRANCH   1  15
HETATM   15  C   UNL     1     -42.783  55.961 -52.863  1.00  0.00     0.146 C 
BRANCH  15  16
HETATM   16  C   UNL     1     -43.059  55.564 -54.289  1.00  0.00     0.224 C 
HETATM   17  N   UNL     1     -42.843  56.575 -55.198  1.00  0.00    -0.327 N 
HETATM   18  H   UNL     1     -42.301  57.384 -54.899  1.00  0.00     0.169 HD
HETATM   19  O   UNL     1     -43.589  54.473 -54.487  1.00  0.00    -0.273 OA
BRANCH  17  20
HETATM   20  C   UNL     1     -43.319  56.644 -56.526  1.00  0.00     0.034 A 
HETATM   21  C   UNL     1     -42.984  55.728 -57.526  1.00  0.00     0.029 A 
HETATM   22  C   UNL     1     -43.545  55.836 -58.802  1.00  0.00     0.002 A 
HETATM   23  C   UNL     1     -44.440  56.864 -59.092  1.00  0.00     0.000 A 
HETATM   24  C   UNL     1     -44.774  57.787 -58.105  1.00  0.00     0.002 A 
HETATM   25  C   UNL     1     -44.216  57.677 -56.828  1.00  0.00     0.029 A 
ENDBRANCH  17  20
ENDBRANCH  15  16
ENDBRANCH   1  15
TORSDOF 3
ENDMDL
MODEL 6
REMARK VINA RESULT:      -7.0      2.256      7.994
REMARK  3 active torsions:
REMARK  status: ('A' for Active; 'I' for Inactive)
REMARK    1  A    between atoms: C_4  and  N_5 
REMARK       I    between atoms: N_5  and  C_6 
REMARK    2  A    between atoms: C_6  and  C_7 
REMARK    3  A    between atoms: C_7  and  C_8 
ROOT
HETATM    1  C   UNL     1     -41.813  54.021 -54.005  1.00  0.00     0.286 C 
HETATM    2  N   UNL     1     -42.399  54.738 -52.782  1.00  0.00    -0.056 N 
HETATM    3  H   UNL     1     -42.669  55.697 -53.052  1.00  0.00     0.278 HD
HETATM    4  H   UNL     1     -43.264  54.258 -52.501  1.00  0.00     0.278 HD
HETATM    5  C   UNL     1     -41.475  54.847 -51.594  1.00  0.00     0.209 C 
HETATM    6  C   UNL     1     -40.857  53.473 -51.280  1.00  0.00     0.115 C 
HETATM    7  N   UNL     1     -40.220  52.887 -52.445  1.00  0.00    -0.353 N 
HETATM    8  C   UNL     1     -40.714  52.980 -53.715  1.00  0.00     0.249 C 
HETATM    9  O   UNL     1     -40.227  52.299 -54.613  1.00  0.00    -0.271 OA
HETATM   10  C   UNL     1     -42.242  55.383 -50.389  1.00  0.00     0.035 C 
HETATM   11  C   UNL     1     -41.304  55.515 -49.189  1.00  0.00     0.002 C 
HETATM   12  C   UNL     1     -40.553  54.217 -48.887  1.00  0.00     0.002 C 
HETATM   13  C   UNL     1     -39.867  53.628 -50.121  1.00  0.00     0.027 C 
HETATM   14  H   UNL     1     -39.537  52.143 -52.316  1.00  0.00     0.163 HD
ENDROOT
BRANCH   1  15
HETATM   15  C   UNL     1     -41.329  55.002 -55.078  1.00  0.00     0.146 C 
BRANCH  15  16
HETATM   16  C   UNL     1     -42.508  55.467 -55.890  1.00  0.00     0.224 C 
HETATM   17  N   UNL     1     -42.254  55.548 -57.242  1.00  0.00    -0.327 N 
HETATM   18  H   UNL     1     -41.430  55.074 -57.606  1.00  0.00     0.169 HD
HETATM   19  O   UNL     1     -43.496  55.875 -55.284  1.00  0.00    -0.273 OA
BRANCH  17  20
HETATM   20  C   UNL     1     -43.003  56.252 -58.210  1.00  0.00     0.034 A 
HETATM   21  C   UNL     1     -43.116  57.643 -58.252  1.00  0.00     0.029 A 
HETATM   22  C   UNL     1     -43.833  58.265 -59.280  1.00  0.00     0.002 A 
HETATM   23  C   UNL     1     -44.446  57.501 -60.271  1.00  0.00     0.000 A 
HETATM   24  C   UNL     1     -44.346  56.114 -60.233  1.00  0.00     0.002 A 
HETATM   25  C   UNL     1     -43.628  55.493 -59.208  1.00  0.00     0.029 A 
ENDBRANCH  17  20
ENDBRANCH  15  16
ENDBRANCH   1  15
TORSDOF 3
ENDMDL
MODEL 7
REMARK VINA RESULT:      -7.0      1.996      7.721
REMARK  3 active torsions:
REMARK  status: ('A' for Active; 'I' for Inactive)
REMARK    1  A    between atoms: C_4  and  N_5 
REMARK       I    between atoms: N_5  and  C_6 
REMARK    2  A    between atoms: C_6  and  C_7 
REMARK    3  A    between atoms: C_7  and  C_8 
ROOT
HETATM    1  C   UNL     1     -41.718  55.394 -55.714  1.00  0.00     0.286 C 
HETATM    2  N   UNL     1     -40.806  54.170 -55.559  1.00  0.00    -0.056 N 
HETATM    3  H   UNL     1     -41.040  53.482 -56.293  1.00  0.00     0.278 HD
HETATM    4  H   UNL     1     -39.834  54.459 -55.727  1.00  0.00     0.278 HD
HETATM    5  C   UNL     1     -40.900  53.460 -54.231  1.00  0.00     0.209 C 
HETATM    6  C   UNL     1     -40.786  54.477 -53.081  1.00  0.00     0.115 C 
HETATM    7  N   UNL     1     -41.745  55.558 -53.219  1.00  0.00    -0.353 N 
HETATM    8  C   UNL     1     -42.092  56.127 -54.411  1.00  0.00     0.249 C 
HETATM    9  O   UNL     1     -42.758  57.158 -54.428  1.00  0.00    -0.271 OA
HETATM   10  C   UNL     1     -39.802  52.405 -54.130  1.00  0.00     0.035 C 
HETATM   11  C   UNL     1     -39.907  51.669 -52.793  1.00  0.00     0.002 C 
HETATM   12  C   UNL     1     -39.926  52.626 -51.598  1.00  0.00     0.002 C 
HETATM   13  C   UNL     1     -40.960  53.742 -51.749  1.00  0.00     0.027 C 
HETATM   14  H   UNL     1     -41.976  56.124 -52.404  1.00  0.00     0.163 HD
ENDROOT
BRANCH   1  15
HETATM   15  C   UNL     1     -42.986  55.077 -56.515  1.00  0.00     0.146 C 
BRANCH  15  16
HETATM   16  C   UNL     1     -43.009  55.923 -57.760  1.00  0.00     0.224 C 
HETATM   17  N   UNL     1     -42.089  56.947 -57.752  1.00  0.00    -0.327 N 
HETATM   18  H   UNL     1     -41.332  56.909 -57.071  1.00  0.00     0.169 HD
HETATM   19  O   UNL     1     -43.920  55.736 -58.562  1.00  0.00    -0.273 OA
BRANCH  17  20
HETATM   20  C   UNL     1     -42.080  58.093 -58.577  1.00  0.00     0.034 A 
HETATM   21  C   UNL     1     -42.169  59.402 -58.099  1.00  0.00     0.029 A 
HETATM   22  C   UNL     1     -42.096  60.485 -58.982  1.00  0.00     0.002 A 
HETATM   23  C   UNL     1     -41.939  60.268 -60.349  1.00  0.00     0.000 A 
HETATM   24  C   UNL     1     -41.857  58.967 -60.836  1.00  0.00     0.002 A 
HETATM   25  C   UNL     1     -41.926  57.885 -59.954  1.00  0.00     0.029 A 
ENDBRANCH  17  20
ENDBRANCH  15  16
ENDBRANCH   1  15
TORSDOF 3
ENDMDL
MODEL 8
REMARK VINA RESULT:      -6.9      3.768      5.584
REMARK  3 active torsions:
REMARK  status: ('A' for Active; 'I' for Inactive)
REMARK    1  A    between atoms: C_4  and  N_5 
REMARK       I    between atoms: N_5  and  C_6 
REMARK    2  A    between atoms: C_6  and  C_7 
REMARK    3  A    between atoms: C_7  and  C_8 
ROOT
HETATM    1  C   UNL     1     -43.847  57.573 -53.083  1.00  0.00     0.286 C 
HETATM    2  N   UNL     1     -42.476  58.113 -53.512  1.00  0.00    -0.056 N 
HETATM    3  H   UNL     1     -42.090  57.501 -54.249  1.00  0.00     0.278 HD
HETATM    4  H   UNL     1     -42.605  59.040 -53.938  1.00  0.00     0.278 HD
HETATM    5  C   UNL     1     -41.446  58.201 -52.414  1.00  0.00     0.209 C 
HETATM    6  C   UNL     1     -42.043  58.911 -51.186  1.00  0.00     0.115 C 
HETATM    7  N   UNL     1     -43.284  58.293 -50.755  1.00  0.00    -0.353 N 
HETATM    8  C   UNL     1     -44.230  57.799 -51.608  1.00  0.00     0.249 C 
HETATM    9  O   UNL     1     -45.332  57.470 -51.177  1.00  0.00    -0.271 OA
HETATM   10  C   UNL     1     -40.213  58.944 -52.921  1.00  0.00     0.035 C 
HETATM   11  C   UNL     1     -39.156  59.017 -51.816  1.00  0.00     0.002 C 
HETATM   12  C   UNL     1     -39.710  59.600 -50.515  1.00  0.00     0.002 C 
HETATM   13  C   UNL     1     -41.003  58.920 -50.063  1.00  0.00     0.027 C 
HETATM   14  H   UNL     1     -43.624  58.467 -49.811  1.00  0.00     0.163 HD
ENDROOT
BRANCH   1  15
HETATM   15  C   UNL     1     -44.030  56.096 -53.448  1.00  0.00     0.146 C 
BRANCH  15  16
HETATM   16  C   UNL     1     -43.004  55.275 -52.712  1.00  0.00     0.224 C 
HETATM   17  N   UNL     1     -42.033  54.739 -53.528  1.00  0.00    -0.327 N 
HETATM   18  H   UNL     1     -41.929  55.119 -54.467  1.00  0.00     0.169 HD
HETATM   19  O   UNL     1     -43.212  55.028 -51.527  1.00  0.00    -0.273 OA
BRANCH  17  20
HETATM   20  C   UNL     1     -41.155  53.675 -53.224  1.00  0.00     0.034 A 
HETATM   21  C   UNL     1     -40.509  53.521 -51.996  1.00  0.00     0.029 A 
HETATM   22  C   UNL     1     -39.699  52.405 -51.757  1.00  0.00     0.002 A 
HETATM   23  C   UNL     1     -39.524  51.439 -52.745  1.00  0.00     0.000 A 
HETATM   24  C   UNL     1     -40.157  51.588 -53.975  1.00  0.00     0.002 A 
HETATM   25  C   UNL     1     -40.969  52.701 -54.213  1.00  0.00     0.029 A 
ENDBRANCH  17  20
ENDBRANCH  15  16
ENDBRANCH   1  15
TORSDOF 3
ENDMDL
MODEL 9
REMARK VINA RESULT:      -6.9     13.900     15.707
REMARK  3 active torsions:
REMARK  status: ('A' for Active; 'I' for Inactive)
REMARK    1  A    between atoms: C_4  and  N_5 
REMARK       I    between atoms: N_5  and  C_6 
REMARK    2  A    between atoms: C_6  and  C_7 
REMARK    3  A    between atoms: C_7  and  C_8 
ROOT
HETATM    1  C   UNL     1     -37.222  41.235 -53.234  1.00  0.00     0.286 C 
HETATM    2  N   UNL     1     -38.065  40.797 -54.439  1.00  0.00    -0.056 N 
HETATM    3  H   UNL     1     -38.357  39.815 -54.306  1.00  0.00     0.278 HD
HETATM    4  H   UNL     1     -38.927  41.358 -54.461  1.00  0.00     0.278 HD
HETATM    5  C   UNL     1     -37.373  40.883 -55.776  1.00  0.00     0.209 C 
HETATM    6  C   UNL     1     -36.715  42.265 -55.940  1.00  0.00     0.115 C 
HETATM    7  N   UNL     1     -35.843  42.584 -54.825  1.00  0.00    -0.353 N 
HETATM    8  C   UNL     1     -36.114  42.266 -53.524  1.00  0.00     0.249 C 
HETATM    9  O   UNL     1     -35.428  42.737 -52.622  1.00  0.00    -0.271 OA
HETATM   10  C   UNL     1     -38.376  40.627 -56.896  1.00  0.00     0.035 C 
HETATM   11  C   UNL     1     -37.673  40.693 -58.253  1.00  0.00     0.002 C 
HETATM   12  C   UNL     1     -36.889  41.993 -58.443  1.00  0.00     0.002 C 
HETATM   13  C   UNL     1     -35.957  42.300 -57.270  1.00  0.00     0.027 C 
HETATM   14  H   UNL     1     -35.137  43.311 -54.937  1.00  0.00     0.163 HD
ENDROOT
BRANCH   1  15
HETATM   15  C   UNL     1     -36.636  40.043 -52.470  1.00  0.00     0.146 C 
BRANCH  15  16
HETATM   16  C   UNL     1     -35.640  39.333 -53.350  1.00  0.00     0.224 C 
HETATM   17  N   UNL     1     -34.376  39.878 -53.307  1.00  0.00    -0.327 N 
HETATM   18  H   UNL     1     -34.150  40.513 -52.543  1.00  0.00     0.169 HD
HETATM   19  O   UNL     1     -36.066  38.476 -54.120  1.00  0.00    -0.273 OA
BRANCH  17  20
HETATM   20  C   UNL     1     -33.331  39.681 -54.236  1.00  0.00     0.034 A 
HETATM   21  C   UNL     1     -33.255  40.320 -55.476  1.00  0.00     0.029 A 
HETATM   22  C   UNL     1     -32.154  40.111 -56.314  1.00  0.00     0.002 A 
HETATM   23  C   UNL     1     -31.124  39.259 -55.922  1.00  0.00     0.000 A 
HETATM   24  C   UNL     1     -31.195  38.611 -54.693  1.00  0.00     0.002 A 
HETATM   25  C   UNL     1     -32.293  38.822 -53.854  1.00  0.00     0.029 A 
ENDBRANCH  17  20
ENDBRANCH  15  16
ENDBRANCH   1  15
TORSDOF 3
ENDMDL
MODEL 10
REMARK VINA RESULT:      -6.9      3.344      4.392
REMARK  3 active torsions:
REMARK  status: ('A' for Active; 'I' for Inactive)
REMARK    1  A    between atoms: C_4  and  N_5 
REMARK       I    between atoms: N_5  and  C_6 
REMARK    2  A    between atoms: C_6  and  C_7 
REMARK    3  A    between atoms: C_7  and  C_8 
ROOT
HETATM    1  C   UNL     1     -44.940  57.921 -52.901  1.00  0.00     0.286 C 
HETATM    2  N   UNL     1     -44.624  56.472 -53.293  1.00  0.00    -0.056 N 
HETATM    3  H   UNL     1     -44.264  55.970 -52.465  1.00  0.00     0.278 HD
HETATM    4  H   UNL     1     -45.500  56.004 -53.562  1.00  0.00     0.278 HD
HETATM    5  C   UNL     1     -43.607  56.310 -54.395  1.00  0.00     0.209 C 
HETATM    6  C   UNL     1     -43.970  57.216 -55.585  1.00  0.00     0.115 C 
HETATM    7  N   UNL     1     -44.152  58.597 -55.176  1.00  0.00    -0.353 N 
HETATM    8  C   UNL     1     -44.745  58.978 -54.005  1.00  0.00     0.249 C 
HETATM    9  O   UNL     1     -45.035  60.156 -53.820  1.00  0.00    -0.271 OA
HETATM   10  C   UNL     1     -43.544  54.848 -54.830  1.00  0.00     0.035 C 
HETATM   11  C   UNL     1     -42.498  54.676 -55.933  1.00  0.00     0.002 C 
HETATM   12  C   UNL     1     -42.719  55.636 -57.104  1.00  0.00     0.002 C 
HETATM   13  C   UNL     1     -42.883  57.089 -56.656  1.00  0.00     0.027 C 
HETATM   14  H   UNL     1     -44.105  59.334 -55.878  1.00  0.00     0.163 HD
ENDROOT
BRANCH   1  15
HETATM   15  C   UNL     1     -44.201  58.354 -51.630  1.00  0.00     0.146 C 
BRANCH  15  16
HETATM   16  C   UNL     1     -43.768  57.129 -50.869  1.00  0.00     0.224 C 
HETATM   17  N   UNL     1     -42.404  56.940 -50.851  1.00  0.00    -0.327 N 
HETATM   18  H   UNL     1     -41.806  57.723 -51.110  1.00  0.00     0.169 HD
HETATM   19  O   UNL     1     -44.641  56.351 -50.492  1.00  0.00    -0.273 OA
BRANCH  17  20
HETATM   20  C   UNL     1     -41.712  55.750 -50.535  1.00  0.00     0.034 A 
HETATM   21  C   UNL     1     -41.277  55.415 -49.251  1.00  0.00     0.029 A 
HETATM   22  C   UNL     1     -40.648  54.189 -49.014  1.00  0.00     0.002 A 
HETATM   23  C   UNL     1     -40.443  53.290 -50.058  1.00  0.00     0.000 A 
HETATM   24  C   UNL     1     -40.865  53.618 -51.343  1.00  0.00     0.002 A 
HETATM   25  C   UNL     1     -41.497  54.842 -51.579  1.00  0.00     0.029 A 
ENDBRANCH  17  20
ENDBRANCH  15  16
ENDBRANCH   1  15
TORSDOF 3
ENDMDL
