MODEL 1
REMARK VINA RESULT:      -8.1      0.000      0.000
REMARK  4 active torsions:
REMARK  status: ('A' for Active; 'I' for Inactive)
REMARK    1  A    between atoms: O_2  and  C_3 
REMARK    2  A    between atoms: C_5  and  O_6 
REMARK    3  A    between atoms: C_8  and  C_9 
REMARK    4  A    between atoms: C_20  and  N_21 
ROOT
HETATM    1  C   UNL     1     -41.435  54.700 -54.319  1.00  0.00    -0.022 A 
HETATM    2  C   UNL     1     -41.344  56.029 -53.883  1.00  0.00     0.031 A 
HETATM    3  C   UNL     1     -42.034  57.073 -54.531  1.00  0.00     0.059 A 
HETATM    4  C   UNL     1     -42.850  56.786 -55.636  1.00  0.00     0.050 A 
HETATM    5  N   UNL     1     -43.709  57.683 -56.305  1.00  0.00    -0.324 N 
HETATM    6  C   UNL     1     -44.363  58.763 -55.786  1.00  0.00     0.247 C 
HETATM    7  O   UNL     1     -45.314  59.255 -56.400  1.00  0.00    -0.271 OA
HETATM    8  C   UNL     1     -44.081  59.185 -54.357  1.00  0.00     0.210 C 
HETATM    9  N   UNL     1     -42.672  59.421 -54.141  1.00  0.00    -0.332 N 
HETATM   10  C   UNL     1     -41.709  58.444 -54.064  1.00  0.00     0.256 C 
HETATM   11  O   UNL     1     -40.591  58.680 -53.615  1.00  0.00    -0.267 OA
HETATM   12  C   UNL     1     -44.745  60.547 -54.060  1.00  0.00     0.217 C 
HETATM   13  C   UNL     1     -43.732  61.266 -53.174  1.00  0.00     0.055 C 
HETATM   14  C   UNL     1     -42.404  60.792 -53.741  1.00  0.00     0.129 C 
HETATM   15  C   UNL     1     -42.863  55.477 -56.135  1.00  0.00     0.031 A 
HETATM   16  C   UNL     1     -42.172  54.451 -55.483  1.00  0.00     0.014 A 
HETATM   17  H   UNL     1     -44.095  57.379 -57.194  1.00  0.00     0.169 HD
ENDROOT
BRANCH   1  18
HETATM   18  C   UNL     1     -40.773  53.602 -53.585  1.00  0.00     0.008 A 
HETATM   19  C   UNL     1     -40.750  53.547 -52.171  1.00  0.00     0.082 A 
HETATM   20  C   UNL     1     -40.105  52.486 -51.523  1.00  0.00     0.074 A 
HETATM   21  C   UNL     1     -39.495  51.461 -52.249  1.00  0.00     0.070 A 
HETATM   22  C   UNL     1     -39.506  51.507 -53.639  1.00  0.00     0.038 A 
HETATM   23  C   UNL     1     -40.139  52.567 -54.297  1.00  0.00     0.018 A 
BRANCH  19  24
HETATM   24  O   UNL     1     -41.345  54.591 -51.504  1.00  0.00    -0.355 OA
HETATM   25  C   UNL     1     -40.778  54.963 -50.252  1.00  0.00     0.210 C 
ENDBRANCH  19  24
BRANCH  21  26
HETATM   26  O   UNL     1     -38.915  50.488 -51.482  1.00  0.00    -0.356 OA
HETATM   27  C   UNL     1     -39.786  49.701 -50.677  1.00  0.00     0.210 C 
ENDBRANCH  21  26
ENDBRANCH   1  18
BRANCH  12  28
HETATM   28  N   UNL     1     -46.043  60.410 -53.338  1.00  0.00    -0.072 N 
HETATM   29  H   UNL     1     -46.827  60.381 -54.009  1.00  0.00     0.274 HD
HETATM   30  H   UNL     1     -46.095  59.566 -52.752  1.00  0.00     0.274 HD
HETATM   31  H   UNL     1     -46.216  61.220 -52.725  1.00  0.00     0.274 HD
ENDBRANCH  12  28
TORSDOF 4
ENDMDL
MODEL 2
REMARK VINA RESULT:      -8.1      2.307      2.778
REMARK  4 active torsions:
REMARK  status: ('A' for Active; 'I' for Inactive)
REMARK    1  A    between atoms: O_2  and  C_3 
REMARK    2  A    between atoms: C_5  and  O_6 
REMARK    3  A    between atoms: C_8  and  C_9 
REMARK    4  A    between atoms: C_20  and  N_21 
ROOT
HETATM    1  C   UNL     1     -42.428  55.622 -53.485  1.00  0.00    -0.022 A 
HETATM    2  C   UNL     1     -42.039  56.765 -52.771  1.00  0.00     0.031 A 
HETATM    3  C   UNL     1     -42.880  57.890 -52.656  1.00  0.00     0.059 A 
HETATM    4  C   UNL     1     -44.150  57.874 -53.253  1.00  0.00     0.050 A 
HETATM    5  N   UNL     1     -45.158  58.851 -53.115  1.00  0.00    -0.324 N 
HETATM    6  C   UNL     1     -45.396  59.667 -52.048  1.00  0.00     0.247 C 
HETATM    7  O   UNL     1     -46.487  60.235 -51.943  1.00  0.00    -0.271 OA
HETATM    8  C   UNL     1     -44.424  59.669 -50.885  1.00  0.00     0.210 C 
HETATM    9  N   UNL     1     -43.075  59.953 -51.320  1.00  0.00    -0.332 N 
HETATM   10  C   UNL     1     -42.271  59.084 -52.018  1.00  0.00     0.256 C 
HETATM   11  O   UNL     1     -41.062  59.273 -52.121  1.00  0.00    -0.267 OA
HETATM   12  C   UNL     1     -44.758  60.819 -49.909  1.00  0.00     0.217 C 
HETATM   13  C   UNL     1     -43.392  61.328 -49.457  1.00  0.00     0.055 C 
HETATM   14  C   UNL     1     -42.548  61.161 -50.710  1.00  0.00     0.129 C 
HETATM   15  C   UNL     1     -44.499  56.775 -54.049  1.00  0.00     0.031 A 
HETATM   16  C   UNL     1     -43.655  55.667 -54.157  1.00  0.00     0.014 A 
HETATM   17  H   UNL     1     -45.950  58.791 -53.750  1.00  0.00     0.169 HD
ENDROOT
BRANCH   1  18
HETATM   18  C   UNL     1     -41.573  54.418 -53.533  1.00  0.00     0.008 A 
HETATM   19  C   UNL     1     -41.374  53.590 -52.403  1.00  0.00     0.082 A 
HETATM   20  C   UNL     1     -40.550  52.462 -52.499  1.00  0.00     0.074 A 
HETATM   21  C   UNL     1     -39.931  52.121 -53.705  1.00  0.00     0.070 A 
HETATM   22  C   UNL     1     -40.116  52.930 -54.821  1.00  0.00     0.038 A 
HETATM   23  C   UNL     1     -40.928  54.065 -54.733  1.00  0.00     0.018 A 
BRANCH  19  24
HETATM   24  O   UNL     1     -41.986  53.982 -51.235  1.00  0.00    -0.355 OA
HETATM   25  C   UNL     1     -41.151  54.150 -50.095  1.00  0.00     0.210 C 
ENDBRANCH  19  24
BRANCH  21  26
HETATM   26  O   UNL     1     -39.167  50.988 -53.651  1.00  0.00    -0.356 OA
HETATM   27  C   UNL     1     -39.580  49.895 -54.462  1.00  0.00     0.210 C 
ENDBRANCH  21  26
ENDBRANCH   1  18
BRANCH  12  28
HETATM   28  N   UNL     1     -45.545  60.362 -48.728  1.00  0.00    -0.072 N 
HETATM   29  H   UNL     1     -45.416  59.348 -48.580  1.00  0.00     0.274 HD
HETATM   30  H   UNL     1     -45.287  60.845 -47.857  1.00  0.00     0.274 HD
HETATM   31  H   UNL     1     -46.554  60.509 -48.873  1.00  0.00     0.274 HD
ENDBRANCH  12  28
TORSDOF 4
ENDMDL
MODEL 3
REMARK VINA RESULT:      -8.0      2.521      3.281
REMARK  4 active torsions:
REMARK  status: ('A' for Active; 'I' for Inactive)
REMARK    1  A    between atoms: O_2  and  C_3 
REMARK    2  A    between atoms: C_5  and  O_6 
REMARK    3  A    between atoms: C_8  and  C_9 
REMARK    4  A    between atoms: C_20  and  N_21 
ROOT
HETATM    1  C   UNL     1     -42.629  55.124 -52.141  1.00  0.00    -0.022 A 
HETATM    2  C   UNL     1     -42.652  56.339 -52.841  1.00  0.00     0.031 A 
HETATM    3  C   UNL     1     -43.470  57.413 -52.438  1.00  0.00     0.059 A 
HETATM    4  C   UNL     1     -44.277  57.283 -51.297  1.00  0.00     0.050 A 
HETATM    5  N   UNL     1     -45.039  58.300 -50.685  1.00  0.00    -0.324 N 
HETATM    6  C   UNL     1     -44.783  59.639 -50.656  1.00  0.00     0.247 C 
HETATM    7  O   UNL     1     -45.353  60.354 -49.826  1.00  0.00    -0.271 OA
HETATM    8  C   UNL     1     -43.626  60.191 -51.466  1.00  0.00     0.210 C 
HETATM    9  N   UNL     1     -43.733  59.827 -52.861  1.00  0.00    -0.332 N 
HETATM   10  C   UNL     1     -43.516  58.569 -53.369  1.00  0.00     0.256 C 
HETATM   11  O   UNL     1     -43.356  58.382 -54.572  1.00  0.00    -0.267 OA
HETATM   12  C   UNL     1     -43.663  61.735 -51.472  1.00  0.00     0.217 C 
HETATM   13  C   UNL     1     -43.228  62.110 -52.886  1.00  0.00     0.055 C 
HETATM   14  C   UNL     1     -43.832  60.993 -53.722  1.00  0.00     0.129 C 
HETATM   15  C   UNL     1     -44.332  56.038 -50.657  1.00  0.00     0.031 A 
HETATM   16  C   UNL     1     -43.516  54.980 -51.069  1.00  0.00     0.014 A 
HETATM   17  H   UNL     1     -45.712  58.012 -49.979  1.00  0.00     0.169 HD
ENDROOT
BRANCH   1  18
HETATM   18  C   UNL     1     -41.709  54.033 -52.524  1.00  0.00     0.008 A 
HETATM   19  C   UNL     1     -40.836  53.423 -51.593  1.00  0.00     0.082 A 
HETATM   20  C   UNL     1     -39.979  52.395 -52.008  1.00  0.00     0.074 A 
HETATM   21  C   UNL     1     -39.984  51.940 -53.329  1.00  0.00     0.070 A 
HETATM   22  C   UNL     1     -40.835  52.536 -54.253  1.00  0.00     0.038 A 
HETATM   23  C   UNL     1     -41.687  53.571 -53.853  1.00  0.00     0.018 A 
BRANCH  19  24
HETATM   24  O   UNL     1     -40.853  53.921 -50.312  1.00  0.00    -0.355 OA
HETATM   25  C   UNL     1     -39.597  54.259 -49.734  1.00  0.00     0.210 C 
ENDBRANCH  19  24
BRANCH  21  26
HETATM   26  O   UNL     1     -39.104  50.925 -53.584  1.00  0.00    -0.356 OA
HETATM   27  C   UNL     1     -39.571  49.861 -54.404  1.00  0.00     0.210 C 
ENDBRANCH  21  26
ENDBRANCH   1  18
BRANCH  12  28
HETATM   28  N   UNL     1     -42.729  62.337 -50.478  1.00  0.00    -0.072 N 
HETATM   29  H   UNL     1     -42.730  61.789 -49.603  1.00  0.00     0.274 HD
HETATM   30  H   UNL     1     -41.758  62.394 -50.815  1.00  0.00     0.274 HD
HETATM   31  H   UNL     1     -43.021  63.291 -50.222  1.00  0.00     0.274 HD
ENDBRANCH  12  28
TORSDOF 4
ENDMDL
MODEL 4
REMARK VINA RESULT:      -7.9      2.685      4.135
REMARK  4 active torsions:
REMARK  status: ('A' for Active; 'I' for Inactive)
REMARK    1  A    between atoms: O_2  and  C_3 
REMARK    2  A    between atoms: C_5  and  O_6 
REMARK    3  A    between atoms: C_8  and  C_9 
REMARK    4  A    between atoms: C_20  and  N_21 
ROOT
HETATM    1  C   UNL     1     -41.384  56.231 -51.877  1.00  0.00    -0.022 A 
HETATM    2  C   UNL     1     -42.703  56.706 -51.893  1.00  0.00     0.031 A 
HETATM    3  C   UNL     1     -43.051  57.951 -51.332  1.00  0.00     0.059 A 
HETATM    4  C   UNL     1     -42.058  58.754 -50.751  1.00  0.00     0.050 A 
HETATM    5  N   UNL     1     -42.213  60.074 -50.276  1.00  0.00    -0.324 N 
HETATM    6  C   UNL     1     -43.078  61.030 -50.723  1.00  0.00     0.247 C 
HETATM    7  O   UNL     1     -42.883  62.214 -50.434  1.00  0.00    -0.271 OA
HETATM    8  C   UNL     1     -44.114  60.664 -51.767  1.00  0.00     0.210 C 
HETATM    9  N   UNL     1     -44.928  59.549 -51.340  1.00  0.00    -0.332 N 
HETATM   10  C   UNL     1     -44.506  58.243 -51.272  1.00  0.00     0.256 C 
HETATM   11  O   UNL     1     -45.304  57.316 -51.166  1.00  0.00    -0.267 OA
HETATM   12  C   UNL     1     -45.121  61.820 -51.952  1.00  0.00     0.217 C 
HETATM   13  C   UNL     1     -46.460  61.117 -52.153  1.00  0.00     0.055 C 
HETATM   14  C   UNL     1     -46.333  59.904 -51.244  1.00  0.00     0.129 C 
HETATM   15  C   UNL     1     -40.760  58.239 -50.644  1.00  0.00     0.031 A 
HETATM   16  C   UNL     1     -40.428  57.001 -51.204  1.00  0.00     0.014 A 
HETATM   17  H   UNL     1     -41.454  60.457 -49.720  1.00  0.00     0.169 HD
ENDROOT
BRANCH   1  18
HETATM   18  C   UNL     1     -41.014  54.962 -52.538  1.00  0.00     0.008 A 
HETATM   19  C   UNL     1     -40.813  54.872 -53.936  1.00  0.00     0.082 A 
HETATM   20  C   UNL     1     -40.469  53.645 -54.515  1.00  0.00     0.074 A 
HETATM   21  C   UNL     1     -40.297  52.500 -53.732  1.00  0.00     0.070 A 
HETATM   22  C   UNL     1     -40.497  52.576 -52.358  1.00  0.00     0.038 A 
HETATM   23  C   UNL     1     -40.851  53.795 -51.770  1.00  0.00     0.018 A 
BRANCH  19  24
HETATM   24  O   UNL     1     -41.017  56.021 -54.664  1.00  0.00    -0.355 OA
HETATM   25  C   UNL     1     -42.054  55.991 -55.639  1.00  0.00     0.210 C 
ENDBRANCH  19  24
BRANCH  21  26
HETATM   26  O   UNL     1     -39.950  51.378 -54.434  1.00  0.00    -0.356 OA
HETATM   27  C   UNL     1     -39.849  50.166 -53.697  1.00  0.00     0.210 C 
ENDBRANCH  21  26
ENDBRANCH   1  18
BRANCH  12  28
HETATM   28  N   UNL     1     -44.812  62.670 -53.138  1.00  0.00    -0.072 N 
HETATM   29  H   UNL     1     -45.361  62.361 -53.955  1.00  0.00     0.274 HD
HETATM   30  H   UNL     1     -45.007  63.669 -52.984  1.00  0.00     0.274 HD
HETATM   31  H   UNL     1     -43.821  62.589 -53.407  1.00  0.00     0.274 HD
ENDBRANCH  12  28
TORSDOF 4
ENDMDL
MODEL 5
REMARK VINA RESULT:      -7.9      2.904      3.915
REMARK  4 active torsions:
REMARK  status: ('A' for Active; 'I' for Inactive)
REMARK    1  A    between atoms: O_2  and  C_3 
REMARK    2  A    between atoms: C_5  and  O_6 
REMARK    3  A    between atoms: C_8  and  C_9 
REMARK    4  A    between atoms: C_20  and  N_21 
ROOT
HETATM    1  C   UNL     1     -41.405  56.242 -51.969  1.00  0.00    -0.022 A 
HETATM    2  C   UNL     1     -42.723  56.721 -51.966  1.00  0.00     0.031 A 
HETATM    3  C   UNL     1     -43.065  57.952 -51.371  1.00  0.00     0.059 A 
HETATM    4  C   UNL     1     -42.066  58.738 -50.776  1.00  0.00     0.050 A 
HETATM    5  N   UNL     1     -42.215  60.045 -50.266  1.00  0.00    -0.324 N 
HETATM    6  C   UNL     1     -43.080  61.015 -50.683  1.00  0.00     0.247 C 
HETATM    7  O   UNL     1     -42.880  62.191 -50.365  1.00  0.00    -0.271 OA
HETATM    8  C   UNL     1     -44.123  60.678 -51.731  1.00  0.00     0.210 C 
HETATM    9  N   UNL     1     -44.937  59.554 -51.328  1.00  0.00    -0.332 N 
HETATM   10  C   UNL     1     -44.518  58.246 -51.295  1.00  0.00     0.256 C 
HETATM   11  O   UNL     1     -45.318  57.319 -51.209  1.00  0.00    -0.267 OA
HETATM   12  C   UNL     1     -45.128  61.841 -51.880  1.00  0.00     0.217 C 
HETATM   13  C   UNL     1     -46.470  61.146 -52.091  1.00  0.00     0.055 C 
HETATM   14  C   UNL     1     -46.341  59.911 -51.214  1.00  0.00     0.129 C 
HETATM   15  C   UNL     1     -40.769  58.216 -50.690  1.00  0.00     0.031 A 
HETATM   16  C   UNL     1     -40.444  56.993 -51.282  1.00  0.00     0.014 A 
HETATM   17  H   UNL     1     -41.452  60.413 -49.705  1.00  0.00     0.169 HD
ENDROOT
BRANCH   1  18
HETATM   18  C   UNL     1     -41.043  54.990 -52.665  1.00  0.00     0.008 A 
HETATM   19  C   UNL     1     -41.036  53.737 -52.008  1.00  0.00     0.082 A 
HETATM   20  C   UNL     1     -40.680  52.580 -52.712  1.00  0.00     0.074 A 
HETATM   21  C   UNL     1     -40.348  52.634 -54.068  1.00  0.00     0.070 A 
HETATM   22  C   UNL     1     -40.347  53.861 -54.723  1.00  0.00     0.038 A 
HETATM   23  C   UNL     1     -40.690  55.025 -54.027  1.00  0.00     0.018 A 
BRANCH  19  24
HETATM   24  O   UNL     1     -41.347  53.742 -50.669  1.00  0.00    -0.355 OA
HETATM   25  C   UNL     1     -40.388  53.177 -49.781  1.00  0.00     0.210 C 
ENDBRANCH  19  24
BRANCH  21  26
HETATM   26  O   UNL     1     -40.034  51.425 -54.625  1.00  0.00    -0.356 OA
HETATM   27  C   UNL     1     -39.911  50.322 -53.735  1.00  0.00     0.210 C 
ENDBRANCH  21  26
ENDBRANCH   1  18
BRANCH  12  28
HETATM   28  N   UNL     1     -44.824  62.720 -53.046  1.00  0.00    -0.072 N 
HETATM   29  H   UNL     1     -45.663  62.840 -53.635  1.00  0.00     0.274 HD
HETATM   30  H   UNL     1     -44.491  63.655 -52.774  1.00  0.00     0.274 HD
HETATM   31  H   UNL     1     -44.102  62.302 -53.649  1.00  0.00     0.274 HD
ENDBRANCH  12  28
TORSDOF 4
ENDMDL
MODEL 6
REMARK VINA RESULT:      -7.7      3.154      4.653
REMARK  4 active torsions:
REMARK  status: ('A' for Active; 'I' for Inactive)
REMARK    1  A    between atoms: O_2  and  C_3 
REMARK    2  A    between atoms: C_5  and  O_6 
REMARK    3  A    between atoms: C_8  and  C_9 
REMARK    4  A    between atoms: C_20  and  N_21 
ROOT
HETATM    1  C   UNL     1     -43.390  56.708 -53.145  1.00  0.00    -0.022 A 
HETATM    2  C   UNL     1     -42.994  56.254 -54.411  1.00  0.00     0.031 A 
HETATM    3  C   UNL     1     -43.597  56.729 -55.593  1.00  0.00     0.059 A 
HETATM    4  C   UNL     1     -44.613  57.695 -55.516  1.00  0.00     0.050 A 
HETATM    5  N   UNL     1     -45.217  58.371 -56.597  1.00  0.00    -0.324 N 
HETATM    6  C   UNL     1     -44.663  58.688 -57.803  1.00  0.00     0.247 C 
HETATM    7  O   UNL     1     -45.194  59.546 -58.514  1.00  0.00    -0.271 OA
HETATM    8  C   UNL     1     -43.277  58.174 -58.141  1.00  0.00     0.210 C 
HETATM    9  N   UNL     1     -43.202  56.735 -58.026  1.00  0.00    -0.332 N 
HETATM   10  C   UNL     1     -43.194  56.036 -56.843  1.00  0.00     0.256 C 
HETATM   11  O   UNL     1     -42.859  54.856 -56.798  1.00  0.00    -0.267 OA
HETATM   12  C   UNL     1     -42.949  58.454 -59.624  1.00  0.00     0.217 C 
HETATM   13  C   UNL     1     -42.180  57.214 -60.073  1.00  0.00     0.055 C 
HETATM   14  C   UNL     1     -42.860  56.104 -59.289  1.00  0.00     0.129 C 
HETATM   15  C   UNL     1     -45.078  58.075 -54.250  1.00  0.00     0.031 A 
HETATM   16  C   UNL     1     -44.472  57.594 -53.086  1.00  0.00     0.014 A 
HETATM   17  H   UNL     1     -46.059  58.904 -56.397  1.00  0.00     0.169 HD
ENDROOT
BRANCH   1  18
HETATM   18  C   UNL     1     -42.697  56.265 -51.918  1.00  0.00     0.008 A 
HETATM   19  C   UNL     1     -41.610  56.983 -51.364  1.00  0.00     0.082 A 
HETATM   20  C   UNL     1     -40.985  56.518 -50.201  1.00  0.00     0.074 A 
HETATM   21  C   UNL     1     -41.427  55.360 -49.558  1.00  0.00     0.070 A 
HETATM   22  C   UNL     1     -42.491  54.643 -50.095  1.00  0.00     0.038 A 
HETATM   23  C   UNL     1     -43.117  55.093 -51.262  1.00  0.00     0.018 A 
BRANCH  19  24
HETATM   24  O   UNL     1     -41.199  58.103 -52.048  1.00  0.00    -0.355 OA
HETATM   25  C   UNL     1     -41.382  59.357 -51.401  1.00  0.00     0.210 C 
ENDBRANCH  19  24
BRANCH  21  26
HETATM   26  O   UNL     1     -40.728  55.035 -48.428  1.00  0.00    -0.356 OA
HETATM   27  C   UNL     1     -40.510  53.650 -48.184  1.00  0.00     0.210 C 
ENDBRANCH  21  26
ENDBRANCH   1  18
BRANCH  12  28
HETATM   28  N   UNL     1     -42.104  59.669 -59.808  1.00  0.00    -0.072 N 
HETATM   29  H   UNL     1     -41.380  59.499 -60.525  1.00  0.00     0.274 HD
HETATM   30  H   UNL     1     -42.642  60.499 -60.090  1.00  0.00     0.274 HD
HETATM   31  H   UNL     1     -41.603  59.909 -58.941  1.00  0.00     0.274 HD
ENDBRANCH  12  28
TORSDOF 4
ENDMDL
MODEL 7
REMARK VINA RESULT:      -7.7      1.938      2.853
REMARK  4 active torsions:
REMARK  status: ('A' for Active; 'I' for Inactive)
REMARK    1  A    between atoms: O_2  and  C_3 
REMARK    2  A    between atoms: C_5  and  O_6 
REMARK    3  A    between atoms: C_8  and  C_9 
REMARK    4  A    between atoms: C_20  and  N_21 
ROOT
HETATM    1  C   UNL     1     -42.226  54.763 -53.928  1.00  0.00    -0.022 A 
HETATM    2  C   UNL     1     -42.127  55.268 -55.232  1.00  0.00     0.031 A 
HETATM    3  C   UNL     1     -42.859  56.398 -55.649  1.00  0.00     0.059 A 
HETATM    4  C   UNL     1     -43.700  57.056 -54.739  1.00  0.00     0.050 A 
HETATM    5  N   UNL     1     -44.386  58.270 -54.952  1.00  0.00    -0.324 N 
HETATM    6  C   UNL     1     -44.016  59.314 -55.748  1.00  0.00     0.247 C 
HETATM    7  O   UNL     1     -44.541  60.421 -55.590  1.00  0.00    -0.271 OA
HETATM    8  C   UNL     1     -42.797  59.172 -56.639  1.00  0.00     0.210 C 
HETATM    9  N   UNL     1     -42.903  58.020 -57.505  1.00  0.00    -0.332 N 
HETATM   10  C   UNL     1     -42.784  56.713 -57.098  1.00  0.00     0.256 C 
HETATM   11  O   UNL     1     -42.613  55.803 -57.905  1.00  0.00    -0.267 OA
HETATM   12  C   UNL     1     -42.701  60.369 -57.611  1.00  0.00     0.217 C 
HETATM   13  C   UNL     1     -42.203  59.749 -58.913  1.00  0.00     0.055 C 
HETATM   14  C   UNL     1     -42.882  58.389 -58.909  1.00  0.00     0.129 C 
HETATM   15  C   UNL     1     -43.877  56.495 -53.467  1.00  0.00     0.031 A 
HETATM   16  C   UNL     1     -43.146  55.372 -53.068  1.00  0.00     0.014 A 
HETATM   17  H   UNL     1     -45.097  58.526 -54.272  1.00  0.00     0.169 HD
ENDROOT
BRANCH   1  18
HETATM   18  C   UNL     1     -41.395  53.627 -53.478  1.00  0.00     0.008 A 
HETATM   19  C   UNL     1     -40.772  53.606 -52.207  1.00  0.00     0.082 A 
HETATM   20  C   UNL     1     -39.990  52.507 -51.830  1.00  0.00     0.074 A 
HETATM   21  C   UNL     1     -39.827  51.411 -52.681  1.00  0.00     0.070 A 
HETATM   22  C   UNL     1     -40.431  51.424 -53.935  1.00  0.00     0.038 A 
HETATM   23  C   UNL     1     -41.205  52.520 -54.326  1.00  0.00     0.018 A 
BRANCH  19  24
HETATM   24  O   UNL     1     -40.945  54.718 -51.417  1.00  0.00    -0.355 OA
HETATM   25  C   UNL     1     -40.457  54.642 -50.082  1.00  0.00     0.210 C 
ENDBRANCH  19  24
BRANCH  21  26
HETATM   26  O   UNL     1     -39.047  50.408 -52.174  1.00  0.00    -0.356 OA
HETATM   27  C   UNL     1     -39.456  49.843 -50.935  1.00  0.00     0.210 C 
ENDBRANCH  21  26
ENDBRANCH   1  18
BRANCH  12  28
HETATM   28  N   UNL     1     -41.741  61.412 -57.147  1.00  0.00    -0.072 N 
HETATM   29  H   UNL     1     -42.249  62.255 -56.835  1.00  0.00     0.274 HD
HETATM   30  H   UNL     1     -41.142  61.097 -56.372  1.00  0.00     0.274 HD
HETATM   31  H   UNL     1     -41.121  61.714 -57.911  1.00  0.00     0.274 HD
ENDBRANCH  12  28
TORSDOF 4
ENDMDL
MODEL 8
REMARK VINA RESULT:      -7.7     15.539     18.339
REMARK  4 active torsions:
REMARK  status: ('A' for Active; 'I' for Inactive)
REMARK    1  A    between atoms: O_2  and  C_3 
REMARK    2  A    between atoms: C_5  and  O_6 
REMARK    3  A    between atoms: C_8  and  C_9 
REMARK    4  A    between atoms: C_20  and  N_21 
ROOT
HETATM    1  C   UNL     1     -36.839  40.606 -57.081  1.00  0.00    -0.022 A 
HETATM    2  C   UNL     1     -35.591  40.217 -56.575  1.00  0.00     0.031 A 
HETATM    3  C   UNL     1     -35.061  40.775 -55.394  1.00  0.00     0.059 A 
HETATM    4  C   UNL     1     -35.799  41.738 -54.688  1.00  0.00     0.050 A 
HETATM    5  N   UNL     1     -35.479  42.287 -53.429  1.00  0.00    -0.324 N 
HETATM    6  C   UNL     1     -34.793  41.699 -52.406  1.00  0.00     0.247 C 
HETATM    7  O   UNL     1     -34.867  42.172 -51.268  1.00  0.00    -0.271 OA
HETATM    8  C   UNL     1     -34.160  40.339 -52.623  1.00  0.00     0.210 C 
HETATM    9  N   UNL     1     -33.267  40.344 -53.760  1.00  0.00    -0.332 N 
HETATM   10  C   UNL     1     -33.662  40.393 -55.075  1.00  0.00     0.256 C 
HETATM   11  O   UNL     1     -32.886  40.123 -55.988  1.00  0.00    -0.267 OA
HETATM   12  C   UNL     1     -33.251  39.973 -51.429  1.00  0.00     0.217 C 
HETATM   13  C   UNL     1     -32.061  39.267 -52.071  1.00  0.00     0.055 C 
HETATM   14  C   UNL     1     -31.903  40.019 -53.383  1.00  0.00     0.129 C 
HETATM   15  C   UNL     1     -36.998  42.200 -55.245  1.00  0.00     0.031 A 
HETATM   16  C   UNL     1     -37.512  41.638 -56.417  1.00  0.00     0.014 A 
HETATM   17  H   UNL     1     -36.009  43.101 -53.131  1.00  0.00     0.169 HD
ENDROOT
BRANCH   1  18
HETATM   18  C   UNL     1     -37.422  39.956 -58.273  1.00  0.00     0.008 A 
HETATM   19  C   UNL     1     -37.336  40.533 -59.563  1.00  0.00     0.082 A 
HETATM   20  C   UNL     1     -37.910  39.879 -60.660  1.00  0.00     0.074 A 
HETATM   21  C   UNL     1     -38.554  38.647 -60.511  1.00  0.00     0.070 A 
HETATM   22  C   UNL     1     -38.648  38.074 -59.247  1.00  0.00     0.038 A 
HETATM   23  C   UNL     1     -38.088  38.723 -58.143  1.00  0.00     0.018 A 
BRANCH  19  24
HETATM   24  O   UNL     1     -36.714  41.755 -59.652  1.00  0.00    -0.355 OA
HETATM   25  C   UNL     1     -37.421  42.792 -60.323  1.00  0.00     0.210 C 
ENDBRANCH  19  24
BRANCH  21  26
HETATM   26  O   UNL     1     -39.054  38.124 -61.672  1.00  0.00    -0.356 OA
HETATM   27  C   UNL     1     -40.451  37.857 -61.705  1.00  0.00     0.210 C 
ENDBRANCH  21  26
ENDBRANCH   1  18
BRANCH  12  28
HETATM   28  N   UNL     1     -33.918  39.060 -50.456  1.00  0.00    -0.072 N 
HETATM   29  H   UNL     1     -34.730  39.527 -50.022  1.00  0.00     0.274 HD
HETATM   30  H   UNL     1     -34.246  38.183 -50.882  1.00  0.00     0.274 HD
HETATM   31  H   UNL     1     -33.283  38.809 -49.686  1.00  0.00     0.274 HD
ENDBRANCH  12  28
TORSDOF 4
ENDMDL
MODEL 9
REMARK VINA RESULT:      -7.5      4.055      7.207
REMARK  4 active torsions:
REMARK  status: ('A' for Active; 'I' for Inactive)
REMARK    1  A    between atoms: O_2  and  C_3 
REMARK    2  A    between atoms: C_5  and  O_6 
REMARK    3  A    between atoms: C_8  and  C_9 
REMARK    4  A    between atoms: C_20  and  N_21 
ROOT
HETATM    1  C   UNL     1     -44.271  58.723 -54.754  1.00  0.00    -0.022 A 
HETATM    2  C   UNL     1     -45.181  58.500 -55.797  1.00  0.00     0.031 A 
HETATM    3  C   UNL     1     -44.752  58.257 -57.118  1.00  0.00     0.059 A 
HETATM    4  C   UNL     1     -43.380  58.220 -57.408  1.00  0.00     0.050 A 
HETATM    5  N   UNL     1     -42.788  57.855 -58.635  1.00  0.00    -0.324 N 
HETATM    6  C   UNL     1     -43.263  56.981 -59.569  1.00  0.00     0.247 C 
HETATM    7  O   UNL     1     -42.500  56.525 -60.426  1.00  0.00    -0.271 OA
HETATM    8  C   UNL     1     -44.649  56.390 -59.395  1.00  0.00     0.210 C 
HETATM    9  N   UNL     1     -45.652  57.420 -59.255  1.00  0.00    -0.332 N 
HETATM   10  C   UNL     1     -45.826  58.208 -58.142  1.00  0.00     0.256 C 
HETATM   11  O   UNL     1     -46.849  58.867 -57.977  1.00  0.00    -0.267 OA
HETATM   12  C   UNL     1     -45.068  55.622 -60.668  1.00  0.00     0.217 C 
HETATM   13  C   UNL     1     -46.556  55.928 -60.811  1.00  0.00     0.055 C 
HETATM   14  C   UNL     1     -46.645  57.362 -60.313  1.00  0.00     0.129 C 
HETATM   15  C   UNL     1     -42.473  58.542 -56.389  1.00  0.00     0.031 A 
HETATM   16  C   UNL     1     -42.912  58.782 -55.084  1.00  0.00     0.014 A 
HETATM   17  H   UNL     1     -41.797  58.051 -58.748  1.00  0.00     0.169 HD
ENDROOT
BRANCH   1  18
HETATM   18  C   UNL     1     -44.727  58.896 -53.359  1.00  0.00     0.008 A 
HETATM   19  C   UNL     1     -44.603  57.869 -52.393  1.00  0.00     0.082 A 
HETATM   20  C   UNL     1     -45.056  58.082 -51.085  1.00  0.00     0.074 A 
HETATM   21  C   UNL     1     -45.613  59.306 -50.705  1.00  0.00     0.070 A 
HETATM   22  C   UNL     1     -45.745  60.320 -51.647  1.00  0.00     0.038 A 
HETATM   23  C   UNL     1     -45.306  60.115 -52.959  1.00  0.00     0.018 A 
BRANCH  19  24
HETATM   24  O   UNL     1     -44.069  56.678 -52.824  1.00  0.00    -0.355 OA
HETATM   25  C   UNL     1     -42.908  56.209 -52.147  1.00  0.00     0.210 C 
ENDBRANCH  19  24
BRANCH  21  26
HETATM   26  O   UNL     1     -45.999  59.371 -49.394  1.00  0.00    -0.356 OA
HETATM   27  C   UNL     1     -45.681  60.566 -48.690  1.00  0.00     0.210 C 
ENDBRANCH  21  26
ENDBRANCH   1  18
BRANCH  12  28
HETATM   28  N   UNL     1     -44.863  54.150 -60.546  1.00  0.00    -0.072 N 
HETATM   29  H   UNL     1     -45.620  53.640 -61.028  1.00  0.00     0.274 HD
HETATM   30  H   UNL     1     -43.966  53.831 -60.937  1.00  0.00     0.274 HD
HETATM   31  H   UNL     1     -44.892  53.850 -59.561  1.00  0.00     0.274 HD
ENDBRANCH  12  28
TORSDOF 4
ENDMDL
MODEL 10
REMARK VINA RESULT:      -7.5      3.472      7.628
REMARK  4 active torsions:
REMARK  status: ('A' for Active; 'I' for Inactive)
REMARK    1  A    between atoms: O_2  and  C_3 
REMARK    2  A    between atoms: C_5  and  O_6 
REMARK    3  A    between atoms: C_8  and  C_9 
REMARK    4  A    between atoms: C_20  and  N_21 
ROOT
HETATM    1  C   UNL     1     -43.505  57.117 -57.504  1.00  0.00    -0.022 A 
HETATM    2  C   UNL     1     -42.975  56.122 -56.670  1.00  0.00     0.031 A 
HETATM    3  C   UNL     1     -42.174  56.437 -55.554  1.00  0.00     0.059 A 
HETATM    4  C   UNL     1     -41.904  57.780 -55.248  1.00  0.00     0.050 A 
HETATM    5  N   UNL     1     -41.245  58.266 -54.100  1.00  0.00    -0.324 N 
HETATM    6  C   UNL     1     -41.218  57.716 -52.852  1.00  0.00     0.247 C 
HETATM    7  O   UNL     1     -40.876  58.405 -51.886  1.00  0.00    -0.271 OA
HETATM    8  C   UNL     1     -41.844  56.354 -52.627  1.00  0.00     0.210 C 
HETATM    9  N   UNL     1     -41.291  55.361 -53.520  1.00  0.00    -0.332 N 
HETATM   10  C   UNL     1     -41.546  55.280 -54.868  1.00  0.00     0.256 C 
HETATM   11  O   UNL     1     -41.271  54.272 -55.513  1.00  0.00    -0.267 OA
HETATM   12  C   UNL     1     -41.499  55.830 -51.216  1.00  0.00     0.217 C 
HETATM   13  C   UNL     1     -41.279  54.334 -51.420  1.00  0.00     0.055 C 
HETATM   14  C   UNL     1     -40.640  54.281 -52.799  1.00  0.00     0.129 C 
HETATM   15  C   UNL     1     -42.348  58.769 -56.136  1.00  0.00     0.031 A 
HETATM   16  C   UNL     1     -43.140  58.443 -57.240  1.00  0.00     0.014 A 
HETATM   17  H   UNL     1     -40.963  59.243 -54.106  1.00  0.00     0.169 HD
ENDROOT
BRANCH   1  18
HETATM   18  C   UNL     1     -44.409  56.782 -58.623  1.00  0.00     0.008 A 
HETATM   19  C   UNL     1     -45.726  57.293 -58.708  1.00  0.00     0.082 A 
HETATM   20  C   UNL     1     -46.545  56.940 -59.788  1.00  0.00     0.074 A 
HETATM   21  C   UNL     1     -46.078  56.103 -60.804  1.00  0.00     0.070 A 
HETATM   22  C   UNL     1     -44.787  55.591 -60.729  1.00  0.00     0.038 A 
HETATM   23  C   UNL     1     -43.964  55.928 -59.650  1.00  0.00     0.018 A 
BRANCH  19  24
HETATM   24  O   UNL     1     -46.144  58.094 -57.671  1.00  0.00    -0.355 OA
HETATM   25  C   UNL     1     -47.365  58.802 -57.856  1.00  0.00     0.210 C 
ENDBRANCH  19  24
BRANCH  21  26
HETATM   26  O   UNL     1     -46.985  55.856 -61.798  1.00  0.00    -0.356 OA
HETATM   27  C   UNL     1     -48.127  56.703 -61.850  1.00  0.00     0.210 C 
ENDBRANCH  21  26
ENDBRANCH   1  18
BRANCH  12  28
HETATM   28  N   UNL     1     -42.599  56.052 -50.234  1.00  0.00    -0.072 N 
HETATM   29  H   UNL     1     -43.264  55.262 -50.254  1.00  0.00     0.274 HD
HETATM   30  H   UNL     1     -42.265  56.160 -49.267  1.00  0.00     0.274 HD
HETATM   31  H   UNL     1     -43.143  56.895 -50.467  1.00  0.00     0.274 HD
ENDBRANCH  12  28
TORSDOF 4
ENDMDL
