MODEL 1
REMARK VINA RESULT:      -8.2      0.000      0.000
REMARK  6 active torsions:
REMARK  status: ('A' for Active; 'I' for Inactive)
REMARK    1  A    between atoms: O_2  and  C_3 
REMARK    2  A    between atoms: N_7  and  C_9 
REMARK    3  A    between atoms: C_9  and  C_10 
REMARK    4  A    between atoms: C_11  and  O_12 
REMARK    5  A    between atoms: C_22  and  N_23 
REMARK       I    between atoms: N_23  and  C_24 
REMARK    6  A    between atoms: C_24  and  C_25 
ROOT
HETATM    1  C   UNL     1     -44.909  57.697 -54.655  1.00  0.00     0.161 C 
HETATM    2  C   UNL     1     -43.351  57.558 -54.836  1.00  0.00     0.019 C 
HETATM    3  C   UNL     1     -42.972  56.303 -55.661  1.00  0.00     0.045 C 
HETATM    4  C   UNL     1     -43.181  55.005 -54.891  1.00  0.00     0.236 C 
HETATM    5  N   UNL     1     -42.449  55.047 -53.575  1.00  0.00    -0.067 N 
HETATM    6  H   UNL     1     -42.755  54.205 -53.058  1.00  0.00     0.280 HD
HETATM    7  C   UNL     1     -42.851  56.231 -52.735  1.00  0.00     0.236 C 
HETATM    8  C   UNL     1     -42.584  57.523 -53.498  1.00  0.00     0.045 C 
HETATM    9  C   UNL     1     -43.073  58.790 -55.675  1.00  0.00    -0.038 A 
HETATM   10  C   UNL     1     -44.249  59.281 -56.271  1.00  0.00    -0.026 A 
HETATM   11  C   UNL     1     -45.459  58.446 -55.913  1.00  0.00     0.148 C 
HETATM   12  C   UNL     1     -41.853  59.411 -55.912  1.00  0.00     0.009 A 
HETATM   13  C   UNL     1     -41.820  60.532 -56.742  1.00  0.00     0.001 A 
HETATM   14  C   UNL     1     -42.994  61.023 -57.329  1.00  0.00     0.001 A 
HETATM   15  C   UNL     1     -44.219  60.397 -57.097  1.00  0.00     0.010 A 
ENDROOT
BRANCH   1  16
HETATM   16  O   UNL     1     -45.265  58.285 -53.381  1.00  0.00    -0.387 OA
HETATM   17  C   UNL     1     -45.515  59.685 -53.324  1.00  0.00     0.202 C 
ENDBRANCH   1  16
BRANCH  11  18
HETATM   18  N   UNL     1     -45.866  57.696 -57.098  1.00  0.00    -0.346 N 
HETATM   19  C   UNL     1     -46.681  58.125 -58.116  1.00  0.00     0.252 C 
HETATM   20  O   UNL     1     -47.430  59.091 -58.013  1.00  0.00    -0.268 OA
HETATM   21  H   UNL     1     -45.325  56.862 -57.268  1.00  0.00     0.163 HD
BRANCH  19  22
HETATM   22  C   UNL     1     -46.645  57.309 -59.337  1.00  0.00     0.039 A 
HETATM   23  C   UNL     1     -45.601  56.430 -59.581  1.00  0.00     0.066 A 
HETATM   24  S   UNL     1     -45.762  55.576 -61.052  1.00  0.00    -0.113 SA
HETATM   25  C   UNL     1     -47.246  56.343 -61.394  1.00  0.00     0.050 A 
HETATM   26  C   UNL     1     -47.604  57.238 -60.407  1.00  0.00     0.024 A 
ENDBRANCH  19  22
ENDBRANCH  11  18
BRANCH   5  27
HETATM   27  C   UNL     1     -40.951  54.842 -53.662  1.00  0.00     0.276 C 
BRANCH  27  28
HETATM   28  C   UNL     1     -40.482  53.509 -53.144  1.00  0.00     0.002 A 
HETATM   29  C   UNL     1     -40.232  53.306 -51.780  1.00  0.00     0.073 A 
HETATM   30  C   UNL     1     -39.770  52.081 -51.303  1.00  0.00     0.039 A 
HETATM   31  C   UNL     1     -39.552  51.033 -52.198  1.00  0.00     0.026 A 
HETATM   32  C   UNL     1     -39.793  51.219 -53.557  1.00  0.00     0.034 A 
HETATM   33 CL   UNL     1     -39.530  49.929 -54.661  1.00  0.00    -0.084 Cl
HETATM   34  C   UNL     1     -40.251  52.449 -54.033  1.00  0.00     0.035 A 
BRANCH  29  35
HETATM   35  O   UNL     1     -40.477  54.341 -50.918  1.00  0.00    -0.360 OA
HETATM   36  H   UNL     1     -41.441  54.369 -50.748  1.00  0.00     0.217 HD
ENDBRANCH  29  35
ENDBRANCH  27  28
ENDBRANCH   5  27
TORSDOF 6
ENDMDL
MODEL 2
REMARK VINA RESULT:      -8.1      4.215      7.317
REMARK  6 active torsions:
REMARK  status: ('A' for Active; 'I' for Inactive)
REMARK    1  A    between atoms: O_2  and  C_3 
REMARK    2  A    between atoms: N_7  and  C_9 
REMARK    3  A    between atoms: C_9  and  C_10 
REMARK    4  A    between atoms: C_11  and  O_12 
REMARK    5  A    between atoms: C_22  and  N_23 
REMARK       I    between atoms: N_23  and  C_24 
REMARK    6  A    between atoms: C_24  and  C_25 
ROOT
HETATM    1  C   UNL     1     -43.734  56.530 -52.287  1.00  0.00     0.161 C 
HETATM    2  C   UNL     1     -42.657  56.849 -53.390  1.00  0.00     0.019 C 
HETATM    3  C   UNL     1     -43.254  57.654 -54.571  1.00  0.00     0.045 C 
HETATM    4  C   UNL     1     -44.173  56.815 -55.452  1.00  0.00     0.236 C 
HETATM    5  N   UNL     1     -43.461  55.575 -55.928  1.00  0.00    -0.067 N 
HETATM    6  H   UNL     1     -44.185  54.998 -56.390  1.00  0.00     0.280 HD
HETATM    7  C   UNL     1     -42.925  54.750 -54.787  1.00  0.00     0.236 C 
HETATM    8  C   UNL     1     -41.966  55.587 -53.949  1.00  0.00     0.045 C 
HETATM    9  C   UNL     1     -41.735  57.759 -52.602  1.00  0.00    -0.038 A 
HETATM   10  C   UNL     1     -42.371  58.264 -51.453  1.00  0.00    -0.026 A 
HETATM   11  C   UNL     1     -43.793  57.762 -51.325  1.00  0.00     0.148 C 
HETATM   12  C   UNL     1     -40.431  58.133 -52.905  1.00  0.00     0.009 A 
HETATM   13  C   UNL     1     -39.766  59.008 -52.044  1.00  0.00     0.001 A 
HETATM   14  C   UNL     1     -40.401  59.503 -50.897  1.00  0.00     0.001 A 
HETATM   15  C   UNL     1     -41.711  59.134 -50.595  1.00  0.00     0.010 A 
ENDROOT
BRANCH   1  16
HETATM   16  O   UNL     1     -43.504  55.255 -51.644  1.00  0.00    -0.387 OA
HETATM   17  C   UNL     1     -43.994  55.060 -50.323  1.00  0.00     0.202 C 
ENDBRANCH   1  16
BRANCH  11  18
HETATM   18  N   UNL     1     -44.699  58.872 -51.604  1.00  0.00    -0.346 N 
HETATM   19  C   UNL     1     -45.667  59.386 -50.776  1.00  0.00     0.252 C 
HETATM   20  O   UNL     1     -46.112  58.777 -49.808  1.00  0.00    -0.268 OA
HETATM   21  H   UNL     1     -44.437  59.433 -52.400  1.00  0.00     0.163 HD
BRANCH  19  22
HETATM   22  C   UNL     1     -46.188  60.704 -51.160  1.00  0.00     0.039 A 
HETATM   23  C   UNL     1     -46.144  61.776 -50.282  1.00  0.00     0.066 A 
HETATM   24  S   UNL     1     -46.796  63.215 -50.933  1.00  0.00    -0.113 SA
HETATM   25  C   UNL     1     -47.137  62.448 -52.418  1.00  0.00     0.050 A 
HETATM   26  C   UNL     1     -46.768  61.119 -52.410  1.00  0.00     0.024 A 
ENDBRANCH  19  22
ENDBRANCH  11  18
BRANCH   5  27
HETATM   27  C   UNL     1     -42.463  55.791 -57.045  1.00  0.00     0.276 C 
BRANCH  27  28
HETATM   28  C   UNL     1     -42.995  56.600 -58.198  1.00  0.00     0.002 A 
HETATM   29  C   UNL     1     -43.928  56.062 -59.094  1.00  0.00     0.073 A 
HETATM   30  C   UNL     1     -44.400  56.801 -60.178  1.00  0.00     0.039 A 
HETATM   31  C   UNL     1     -43.937  58.102 -60.376  1.00  0.00     0.026 A 
HETATM   32  C   UNL     1     -43.007  58.650 -59.496  1.00  0.00     0.034 A 
HETATM   33 CL   UNL     1     -42.439  60.254 -59.736  1.00  0.00    -0.084 Cl
HETATM   34  C   UNL     1     -42.533  57.907 -58.414  1.00  0.00     0.035 A 
BRANCH  29  35
HETATM   35  O   UNL     1     -44.386  54.793 -58.864  1.00  0.00    -0.360 OA
HETATM   36  H   UNL     1     -43.709  54.165 -59.190  1.00  0.00     0.217 HD
ENDBRANCH  29  35
ENDBRANCH  27  28
ENDBRANCH   5  27
TORSDOF 6
ENDMDL
MODEL 3
REMARK VINA RESULT:      -8.1      4.580      7.872
REMARK  6 active torsions:
REMARK  status: ('A' for Active; 'I' for Inactive)
REMARK    1  A    between atoms: O_2  and  C_3 
REMARK    2  A    between atoms: N_7  and  C_9 
REMARK    3  A    between atoms: C_9  and  C_10 
REMARK    4  A    between atoms: C_11  and  O_12 
REMARK    5  A    between atoms: C_22  and  N_23 
REMARK       I    between atoms: N_23  and  C_24 
REMARK    6  A    between atoms: C_24  and  C_25 
ROOT
HETATM    1  C   UNL     1     -43.936  57.369 -52.203  1.00  0.00     0.161 C 
HETATM    2  C   UNL     1     -43.126  57.867 -53.458  1.00  0.00     0.019 C 
HETATM    3  C   UNL     1     -43.796  59.089 -54.134  1.00  0.00     0.045 C 
HETATM    4  C   UNL     1     -45.076  58.725 -54.877  1.00  0.00     0.236 C 
HETATM    5  N   UNL     1     -44.817  57.616 -55.864  1.00  0.00    -0.067 N 
HETATM    6  H   UNL     1     -45.748  57.333 -56.216  1.00  0.00     0.280 HD
HETATM    7  C   UNL     1     -44.220  56.397 -55.211  1.00  0.00     0.236 C 
HETATM    8  C   UNL     1     -42.913  56.767 -54.520  1.00  0.00     0.045 C 
HETATM    9  C   UNL     1     -41.850  58.327 -52.782  1.00  0.00    -0.038 A 
HETATM   10  C   UNL     1     -42.041  58.519 -51.401  1.00  0.00    -0.026 A 
HETATM   11  C   UNL     1     -43.462  58.217 -50.977  1.00  0.00     0.148 C 
HETATM   12  C   UNL     1     -40.614  58.584 -53.362  1.00  0.00     0.009 A 
HETATM   13  C   UNL     1     -39.569  59.025 -52.549  1.00  0.00     0.001 A 
HETATM   14  C   UNL     1     -39.761  59.209 -51.174  1.00  0.00     0.001 A 
HETATM   15  C   UNL     1     -41.003  58.958 -50.590  1.00  0.00     0.010 A 
ENDROOT
BRANCH   1  16
HETATM   16  O   UNL     1     -43.857  55.934 -52.030  1.00  0.00    -0.387 OA
HETATM   17  C   UNL     1     -43.670  55.416 -50.718  1.00  0.00     0.202 C 
ENDBRANCH   1  16
BRANCH  11  18
HETATM   18  N   UNL     1     -44.123  59.477 -50.653  1.00  0.00    -0.346 N 
HETATM   19  C   UNL     1     -45.398  59.650 -50.173  1.00  0.00     0.252 C 
HETATM   20  O   UNL     1     -46.265  58.785 -50.249  1.00  0.00    -0.268 OA
HETATM   21  H   UNL     1     -43.500  60.268 -50.586  1.00  0.00     0.163 HD
BRANCH  19  22
HETATM   22  C   UNL     1     -45.684  60.975 -49.611  1.00  0.00     0.039 A 
HETATM   23  C   UNL     1     -45.375  61.277 -48.293  1.00  0.00     0.066 A 
HETATM   24  S   UNL     1     -45.784  62.875 -47.847  1.00  0.00    -0.113 SA
HETATM   25  C   UNL     1     -46.368  63.216 -49.413  1.00  0.00     0.050 A 
HETATM   26  C   UNL     1     -46.259  62.128 -50.254  1.00  0.00     0.024 A 
ENDBRANCH  19  22
ENDBRANCH  11  18
BRANCH   5  27
HETATM   27  C   UNL     1     -44.110  58.035 -57.135  1.00  0.00     0.276 C 
BRANCH  27  28
HETATM   28  C   UNL     1     -44.361  57.125 -58.308  1.00  0.00     0.002 A 
HETATM   29  C   UNL     1     -43.371  56.249 -58.772  1.00  0.00     0.073 A 
HETATM   30  C   UNL     1     -43.593  55.426 -59.875  1.00  0.00     0.039 A 
HETATM   31  C   UNL     1     -44.824  55.473 -60.531  1.00  0.00     0.026 A 
HETATM   32  C   UNL     1     -45.817  56.341 -60.084  1.00  0.00     0.034 A 
HETATM   33 CL   UNL     1     -47.335  56.397 -60.887  1.00  0.00    -0.084 Cl
HETATM   34  C   UNL     1     -45.591  57.167 -58.981  1.00  0.00     0.035 A 
BRANCH  29  35
HETATM   35  O   UNL     1     -42.182  56.202 -58.097  1.00  0.00    -0.360 OA
HETATM   36  H   UNL     1     -41.480  55.973 -58.740  1.00  0.00     0.217 HD
ENDBRANCH  29  35
ENDBRANCH  27  28
ENDBRANCH   5  27
TORSDOF 6
ENDMDL
MODEL 4
REMARK VINA RESULT:      -8.1      3.301      4.358
REMARK  6 active torsions:
REMARK  status: ('A' for Active; 'I' for Inactive)
REMARK    1  A    between atoms: O_2  and  C_3 
REMARK    2  A    between atoms: N_7  and  C_9 
REMARK    3  A    between atoms: C_9  and  C_10 
REMARK    4  A    between atoms: C_11  and  O_12 
REMARK    5  A    between atoms: C_22  and  N_23 
REMARK       I    between atoms: N_23  and  C_24 
REMARK    6  A    between atoms: C_24  and  C_25 
ROOT
HETATM    1  C   UNL     1     -43.822  57.218 -52.101  1.00  0.00     0.161 C 
HETATM    2  C   UNL     1     -42.374  56.872 -51.591  1.00  0.00     0.019 C 
HETATM    3  C   UNL     1     -41.455  56.382 -52.737  1.00  0.00     0.045 C 
HETATM    4  C   UNL     1     -41.814  54.983 -53.224  1.00  0.00     0.236 C 
HETATM    5  N   UNL     1     -41.833  54.011 -52.073  1.00  0.00    -0.067 N 
HETATM    6  H   UNL     1     -42.221  53.132 -52.457  1.00  0.00     0.280 HD
HETATM    7  C   UNL     1     -42.768  54.444 -50.975  1.00  0.00     0.236 C 
HETATM    8  C   UNL     1     -42.362  55.821 -50.461  1.00  0.00     0.045 C 
HETATM    9  C   UNL     1     -41.912  58.250 -51.156  1.00  0.00    -0.038 A 
HETATM   10  C   UNL     1     -42.706  59.261 -51.728  1.00  0.00    -0.026 A 
HETATM   11  C   UNL     1     -43.794  58.695 -52.614  1.00  0.00     0.148 C 
HETATM   12  C   UNL     1     -40.842  58.577 -50.333  1.00  0.00     0.009 A 
HETATM   13  C   UNL     1     -40.579  59.924 -50.078  1.00  0.00     0.001 A 
HETATM   14  C   UNL     1     -41.376  60.929 -50.644  1.00  0.00     0.001 A 
HETATM   15  C   UNL     1     -42.447  60.601 -51.475  1.00  0.00     0.010 A 
ENDROOT
BRANCH   1  16
HETATM   16  O   UNL     1     -44.839  56.926 -51.114  1.00  0.00    -0.387 OA
HETATM   17  C   UNL     1     -45.748  57.958 -50.747  1.00  0.00     0.202 C 
ENDBRANCH   1  16
BRANCH  11  18
HETATM   18  N   UNL     1     -43.452  58.987 -54.003  1.00  0.00    -0.346 N 
HETATM   19  C   UNL     1     -43.866  60.058 -54.756  1.00  0.00     0.252 C 
HETATM   20  O   UNL     1     -44.834  60.751 -54.459  1.00  0.00    -0.268 OA
HETATM   21  H   UNL     1     -42.676  58.451 -54.361  1.00  0.00     0.163 HD
BRANCH  19  22
HETATM   22  C   UNL     1     -43.107  60.290 -55.991  1.00  0.00     0.039 A 
HETATM   23  C   UNL     1     -43.090  61.536 -56.599  1.00  0.00     0.066 A 
HETATM   24  S   UNL     1     -42.139  61.588 -58.018  1.00  0.00    -0.113 SA
HETATM   25  C   UNL     1     -41.705  59.947 -57.847  1.00  0.00     0.050 A 
HETATM   26  C   UNL     1     -42.282  59.373 -56.734  1.00  0.00     0.024 A 
ENDBRANCH  19  22
ENDBRANCH  11  18
BRANCH   5  27
HETATM   27  C   UNL     1     -40.473  53.570 -51.577  1.00  0.00     0.276 C 
BRANCH  27  28
HETATM   28  C   UNL     1     -40.182  52.110 -51.795  1.00  0.00     0.002 A 
HETATM   29  C   UNL     1     -40.091  51.218 -50.718  1.00  0.00     0.073 A 
HETATM   30  C   UNL     1     -39.794  49.871 -50.917  1.00  0.00     0.039 A 
HETATM   31  C   UNL     1     -39.583  49.398 -52.213  1.00  0.00     0.026 A 
HETATM   32  C   UNL     1     -39.666  50.272 -53.294  1.00  0.00     0.034 A 
HETATM   33 CL   UNL     1     -39.411  49.690 -54.891  1.00  0.00    -0.084 Cl
HETATM   34  C   UNL     1     -39.960  51.621 -53.092  1.00  0.00     0.035 A 
BRANCH  29  35
HETATM   35  O   UNL     1     -40.327  51.700 -49.459  1.00  0.00    -0.360 OA
HETATM   36  H   UNL     1     -41.006  51.133 -49.042  1.00  0.00     0.217 HD
ENDBRANCH  29  35
ENDBRANCH  27  28
ENDBRANCH   5  27
TORSDOF 6
ENDMDL
MODEL 5
REMARK VINA RESULT:      -8.1      4.097      7.139
REMARK  6 active torsions:
REMARK  status: ('A' for Active; 'I' for Inactive)
REMARK    1  A    between atoms: O_2  and  C_3 
REMARK    2  A    between atoms: N_7  and  C_9 
REMARK    3  A    between atoms: C_9  and  C_10 
REMARK    4  A    between atoms: C_11  and  O_12 
REMARK    5  A    between atoms: C_22  and  N_23 
REMARK       I    between atoms: N_23  and  C_24 
REMARK    6  A    between atoms: C_24  and  C_25 
ROOT
HETATM    1  C   UNL     1     -43.727  56.469 -52.202  1.00  0.00     0.161 C 
HETATM    2  C   UNL     1     -42.641  56.809 -53.290  1.00  0.00     0.019 C 
HETATM    3  C   UNL     1     -43.241  57.592 -54.484  1.00  0.00     0.045 C 
HETATM    4  C   UNL     1     -44.124  56.726 -55.375  1.00  0.00     0.236 C 
HETATM    5  N   UNL     1     -43.375  55.501 -55.832  1.00  0.00    -0.067 N 
HETATM    6  H   UNL     1     -44.077  54.904 -56.303  1.00  0.00     0.280 HD
HETATM    7  C   UNL     1     -42.836  54.696 -54.679  1.00  0.00     0.236 C 
HETATM    8  C   UNL     1     -41.911  55.562 -53.831  1.00  0.00     0.045 C 
HETATM    9  C   UNL     1     -41.755  57.746 -52.494  1.00  0.00    -0.038 A 
HETATM   10  C   UNL     1     -42.421  58.241 -51.357  1.00  0.00    -0.026 A 
HETATM   11  C   UNL     1     -43.831  57.704 -51.248  1.00  0.00     0.148 C 
HETATM   12  C   UNL     1     -40.456  58.150 -52.779  1.00  0.00     0.009 A 
HETATM   13  C   UNL     1     -39.827  59.046 -51.913  1.00  0.00     0.001 A 
HETATM   14  C   UNL     1     -40.491  59.532 -50.779  1.00  0.00     0.001 A 
HETATM   15  C   UNL     1     -41.796  59.131 -50.494  1.00  0.00     0.010 A 
ENDROOT
BRANCH   1  16
HETATM   16  O   UNL     1     -43.475  55.203 -51.549  1.00  0.00    -0.387 OA
HETATM   17  C   UNL     1     -44.130  54.931 -50.315  1.00  0.00     0.202 C 
ENDBRANCH   1  16
BRANCH  11  18
HETATM   18  N   UNL     1     -44.760  58.790 -51.546  1.00  0.00    -0.346 N 
HETATM   19  C   UNL     1     -45.652  59.384 -50.687  1.00  0.00     0.252 C 
HETATM   20  O   UNL     1     -46.008  58.870 -49.632  1.00  0.00    -0.268 OA
HETATM   21  H   UNL     1     -44.571  59.272 -52.412  1.00  0.00     0.163 HD
BRANCH  19  22
HETATM   22  C   UNL     1     -46.208  60.663 -51.143  1.00  0.00     0.039 A 
HETATM   23  C   UNL     1     -46.239  61.771 -50.308  1.00  0.00     0.066 A 
HETATM   24  S   UNL     1     -46.920  63.156 -51.041  1.00  0.00    -0.113 SA
HETATM   25  C   UNL     1     -47.172  62.319 -52.506  1.00  0.00     0.050 A 
HETATM   26  C   UNL     1     -46.753  61.007 -52.430  1.00  0.00     0.024 A 
ENDBRANCH  19  22
ENDBRANCH  11  18
BRANCH   5  27
HETATM   27  C   UNL     1     -42.366  55.737 -56.936  1.00  0.00     0.276 C 
BRANCH  27  28
HETATM   28  C   UNL     1     -42.955  56.309 -58.197  1.00  0.00     0.002 A 
HETATM   29  C   UNL     1     -42.818  57.667 -58.513  1.00  0.00     0.073 A 
HETATM   30  C   UNL     1     -43.387  58.203 -59.667  1.00  0.00     0.039 A 
HETATM   31  C   UNL     1     -44.106  57.373 -60.528  1.00  0.00     0.026 A 
HETATM   32  C   UNL     1     -44.254  56.022 -60.227  1.00  0.00     0.034 A 
HETATM   33 CL   UNL     1     -45.136  54.997 -61.288  1.00  0.00    -0.084 Cl
HETATM   34  C   UNL     1     -43.687  55.488 -59.069  1.00  0.00     0.035 A 
BRANCH  29  35
HETATM   35  O   UNL     1     -42.087  58.455 -57.666  1.00  0.00    -0.360 OA
HETATM   36  H   UNL     1     -41.166  58.480 -57.998  1.00  0.00     0.217 HD
ENDBRANCH  29  35
ENDBRANCH  27  28
ENDBRANCH   5  27
TORSDOF 6
ENDMDL
MODEL 6
REMARK VINA RESULT:      -7.7      2.769      3.950
REMARK  6 active torsions:
REMARK  status: ('A' for Active; 'I' for Inactive)
REMARK    1  A    between atoms: O_2  and  C_3 
REMARK    2  A    between atoms: N_7  and  C_9 
REMARK    3  A    between atoms: C_9  and  C_10 
REMARK    4  A    between atoms: C_11  and  O_12 
REMARK    5  A    between atoms: C_22  and  N_23 
REMARK       I    between atoms: N_23  and  C_24 
REMARK    6  A    between atoms: C_24  and  C_25 
ROOT
HETATM    1  C   UNL     1     -43.159  58.978 -56.453  1.00  0.00     0.161 C 
HETATM    2  C   UNL     1     -43.277  57.428 -56.204  1.00  0.00     0.019 C 
HETATM    3  C   UNL     1     -44.510  57.071 -55.336  1.00  0.00     0.045 C 
HETATM    4  C   UNL     1     -44.343  57.477 -53.877  1.00  0.00     0.236 C 
HETATM    5  N   UNL     1     -43.076  56.895 -53.307  1.00  0.00    -0.067 N 
HETATM    6  H   UNL     1     -42.964  57.329 -52.375  1.00  0.00     0.280 HD
HETATM    7  C   UNL     1     -41.859  57.282 -54.106  1.00  0.00     0.236 C 
HETATM    8  C   UNL     1     -42.019  56.820 -55.550  1.00  0.00     0.045 C 
HETATM    9  C   UNL     1     -43.528  56.952 -57.621  1.00  0.00    -0.038 A 
HETATM   10  C   UNL     1     -43.954  58.006 -58.449  1.00  0.00    -0.026 A 
HETATM   11  C   UNL     1     -44.044  59.317 -57.698  1.00  0.00     0.148 C 
HETATM   12  C   UNL     1     -43.413  55.663 -58.127  1.00  0.00     0.009 A 
HETATM   13  C   UNL     1     -43.717  55.440 -59.471  1.00  0.00     0.001 A 
HETATM   14  C   UNL     1     -44.134  56.494 -60.295  1.00  0.00     0.001 A 
HETATM   15  C   UNL     1     -44.256  57.787 -59.786  1.00  0.00     0.010 A 
ENDROOT
BRANCH   1  16
HETATM   16  O   UNL     1     -41.784  59.420 -56.533  1.00  0.00    -0.387 OA
HETATM   17  C   UNL     1     -41.461  60.482 -57.424  1.00  0.00     0.202 C 
ENDBRANCH   1  16
BRANCH  11  18
HETATM   18  N   UNL     1     -45.454  59.654 -57.530  1.00  0.00    -0.346 N 
HETATM   19  C   UNL     1     -45.983  60.867 -57.162  1.00  0.00     0.252 C 
HETATM   20  O   UNL     1     -45.324  61.748 -56.620  1.00  0.00    -0.268 OA
HETATM   21  H   UNL     1     -46.092  58.979 -57.924  1.00  0.00     0.163 HD
BRANCH  19  22
HETATM   22  C   UNL     1     -47.422  61.025 -57.406  1.00  0.00     0.039 A 
HETATM   23  C   UNL     1     -48.117  62.119 -56.911  1.00  0.00     0.066 A 
HETATM   24  S   UNL     1     -49.777  62.110 -57.317  1.00  0.00    -0.113 SA
HETATM   25  C   UNL     1     -49.608  60.652 -58.186  1.00  0.00     0.050 A 
HETATM   26  C   UNL     1     -48.312  60.180 -58.158  1.00  0.00     0.024 A 
ENDBRANCH  19  22
ENDBRANCH  11  18
BRANCH   5  27
HETATM   27  C   UNL     1     -43.138  55.421 -52.967  1.00  0.00     0.276 C 
BRANCH  27  28
HETATM   28  C   UNL     1     -42.092  54.971 -51.984  1.00  0.00     0.002 A 
HETATM   29  C   UNL     1     -41.870  55.668 -50.789  1.00  0.00     0.073 A 
HETATM   30  C   UNL     1     -40.882  55.269 -49.890  1.00  0.00     0.039 A 
HETATM   31  C   UNL     1     -40.098  54.152 -50.182  1.00  0.00     0.026 A 
HETATM   32  C   UNL     1     -40.305  53.450 -51.367  1.00  0.00     0.034 A 
HETATM   33 CL   UNL     1     -39.343  52.072 -51.727  1.00  0.00    -0.084 Cl
HETATM   34  C   UNL     1     -41.291  53.855 -52.268  1.00  0.00     0.035 A 
BRANCH  29  35
HETATM   35  O   UNL     1     -42.668  56.745 -50.512  1.00  0.00    -0.360 OA
HETATM   36  H   UNL     1     -42.923  57.157 -51.363  1.00  0.00     0.217 HD
ENDBRANCH  29  35
ENDBRANCH  27  28
ENDBRANCH   5  27
TORSDOF 6
ENDMDL
MODEL 7
REMARK VINA RESULT:      -7.6      4.386      7.639
REMARK  6 active torsions:
REMARK  status: ('A' for Active; 'I' for Inactive)
REMARK    1  A    between atoms: O_2  and  C_3 
REMARK    2  A    between atoms: N_7  and  C_9 
REMARK    3  A    between atoms: C_9  and  C_10 
REMARK    4  A    between atoms: C_11  and  O_12 
REMARK    5  A    between atoms: C_22  and  N_23 
REMARK       I    between atoms: N_23  and  C_24 
REMARK    6  A    between atoms: C_24  and  C_25 
ROOT
HETATM    1  C   UNL     1     -42.205  58.893 -53.506  1.00  0.00     0.161 C 
HETATM    2  C   UNL     1     -43.272  58.583 -52.392  1.00  0.00     0.019 C 
HETATM    3  C   UNL     1     -44.722  58.716 -52.923  1.00  0.00     0.045 C 
HETATM    4  C   UNL     1     -45.130  60.164 -53.167  1.00  0.00     0.236 C 
HETATM    5  N   UNL     1     -44.914  60.991 -51.927  1.00  0.00    -0.067 N 
HETATM    6  H   UNL     1     -45.074  61.972 -52.214  1.00  0.00     0.280 HD
HETATM    7  C   UNL     1     -43.494  60.919 -51.431  1.00  0.00     0.236 C 
HETATM    8  C   UNL     1     -43.120  59.471 -51.139  1.00  0.00     0.045 C 
HETATM    9  C   UNL     1     -42.980  57.116 -52.148  1.00  0.00    -0.038 A 
HETATM   10  C   UNL     1     -42.249  56.554 -53.211  1.00  0.00    -0.026 A 
HETATM   11  C   UNL     1     -41.961  57.566 -54.298  1.00  0.00     0.148 C 
HETATM   12  C   UNL     1     -43.364  56.331 -51.067  1.00  0.00     0.009 A 
HETATM   13  C   UNL     1     -43.003  54.983 -51.055  1.00  0.00     0.001 A 
HETATM   14  C   UNL     1     -42.269  54.428 -52.112  1.00  0.00     0.001 A 
HETATM   15  C   UNL     1     -41.888  55.214 -53.200  1.00  0.00     0.010 A 
ENDROOT
BRANCH   1  16
HETATM   16  O   UNL     1     -41.016  59.521 -52.971  1.00  0.00    -0.387 OA
HETATM   17  C   UNL     1     -39.816  58.759 -52.901  1.00  0.00     0.202 C 
ENDBRANCH   1  16
BRANCH  11  18
HETATM   18  N   UNL     1     -42.783  57.239 -55.459  1.00  0.00    -0.346 N 
HETATM   19  C   UNL     1     -42.717  57.800 -56.711  1.00  0.00     0.252 C 
HETATM   20  O   UNL     1     -42.166  58.872 -56.936  1.00  0.00    -0.268 OA
HETATM   21  H   UNL     1     -43.301  56.378 -55.372  1.00  0.00     0.163 HD
BRANCH  19  22
HETATM   22  C   UNL     1     -43.408  57.055 -57.771  1.00  0.00     0.039 A 
HETATM   23  C   UNL     1     -44.452  57.626 -58.485  1.00  0.00     0.066 A 
HETATM   24  S   UNL     1     -45.108  56.590 -59.675  1.00  0.00    -0.113 SA
HETATM   25  C   UNL     1     -43.999  55.354 -59.282  1.00  0.00     0.050 A 
HETATM   26  C   UNL     1     -43.153  55.725 -58.258  1.00  0.00     0.024 A 
ENDBRANCH  19  22
ENDBRANCH  11  18
BRANCH   5  27
HETATM   27  C   UNL     1     -45.950  60.805 -50.838  1.00  0.00     0.276 C 
BRANCH  27  28
HETATM   28  C   UNL     1     -45.691  61.617 -49.597  1.00  0.00     0.002 A 
HETATM   29  C   UNL     1     -45.722  63.017 -49.624  1.00  0.00     0.073 A 
HETATM   30  C   UNL     1     -45.455  63.770 -48.482  1.00  0.00     0.039 A 
HETATM   31  C   UNL     1     -45.153  63.118 -47.285  1.00  0.00     0.026 A 
HETATM   32  C   UNL     1     -45.115  61.727 -47.242  1.00  0.00     0.034 A 
HETATM   33 CL   UNL     1     -44.747  60.923 -45.769  1.00  0.00    -0.084 Cl
HETATM   34  C   UNL     1     -45.378  60.975 -48.389  1.00  0.00     0.035 A 
BRANCH  29  35
HETATM   35  O   UNL     1     -46.046  63.632 -50.803  1.00  0.00    -0.360 OA
HETATM   36  H   UNL     1     -46.980  63.921 -50.745  1.00  0.00     0.217 HD
ENDBRANCH  29  35
ENDBRANCH  27  28
ENDBRANCH   5  27
TORSDOF 6
ENDMDL
MODEL 8
REMARK VINA RESULT:      -7.1      2.923      4.465
REMARK  6 active torsions:
REMARK  status: ('A' for Active; 'I' for Inactive)
REMARK    1  A    between atoms: O_2  and  C_3 
REMARK    2  A    between atoms: N_7  and  C_9 
REMARK    3  A    between atoms: C_9  and  C_10 
REMARK    4  A    between atoms: C_11  and  O_12 
REMARK    5  A    between atoms: C_22  and  N_23 
REMARK       I    between atoms: N_23  and  C_24 
REMARK    6  A    between atoms: C_24  and  C_25 
ROOT
HETATM    1  C   UNL     1     -43.261  59.296 -56.343  1.00  0.00     0.161 C 
HETATM    2  C   UNL     1     -43.686  57.788 -56.494  1.00  0.00     0.019 C 
HETATM    3  C   UNL     1     -44.600  57.322 -55.333  1.00  0.00     0.045 C 
HETATM    4  C   UNL     1     -43.849  57.167 -54.016  1.00  0.00     0.236 C 
HETATM    5  N   UNL     1     -42.662  56.257 -54.188  1.00  0.00    -0.067 N 
HETATM    6  H   UNL     1     -42.131  56.319 -53.302  1.00  0.00     0.280 HD
HETATM    7  C   UNL     1     -41.732  56.729 -55.274  1.00  0.00     0.236 C 
HETATM    8  C   UNL     1     -42.485  56.825 -56.596  1.00  0.00     0.045 C 
HETATM    9  C   UNL     1     -44.517  57.874 -57.759  1.00  0.00    -0.038 A 
HETATM   10  C   UNL     1     -44.908  59.199 -58.027  1.00  0.00    -0.026 A 
HETATM   11  C   UNL     1     -44.395  60.165 -56.981  1.00  0.00     0.148 C 
HETATM   12  C   UNL     1     -44.920  56.840 -58.595  1.00  0.00     0.009 A 
HETATM   13  C   UNL     1     -45.709  57.143 -59.706  1.00  0.00     0.001 A 
HETATM   14  C   UNL     1     -46.091  58.464 -59.974  1.00  0.00     0.001 A 
HETATM   15  C   UNL     1     -45.692  59.503 -59.132  1.00  0.00     0.010 A 
ENDROOT
BRANCH   1  16
HETATM   16  O   UNL     1     -41.930  59.547 -56.850  1.00  0.00    -0.387 OA
HETATM   17  C   UNL     1     -41.696  60.744 -57.583  1.00  0.00     0.202 C 
ENDBRANCH   1  16
BRANCH  11  18
HETATM   18  N   UNL     1     -45.526  60.611 -56.173  1.00  0.00    -0.346 N 
HETATM   19  C   UNL     1     -45.552  61.656 -55.282  1.00  0.00     0.252 C 
HETATM   20  O   UNL     1     -44.539  62.162 -54.813  1.00  0.00    -0.268 OA
HETATM   21  H   UNL     1     -46.416  60.234 -56.461  1.00  0.00     0.163 HD
BRANCH  19  22
HETATM   22  C   UNL     1     -46.891  62.098 -54.872  1.00  0.00     0.039 A 
HETATM   23  C   UNL     1     -47.248  62.158 -53.534  1.00  0.00     0.066 A 
HETATM   24  S   UNL     1     -48.846  62.706 -53.279  1.00  0.00    -0.113 SA
HETATM   25  C   UNL     1     -49.099  62.901 -54.955  1.00  0.00     0.050 A 
HETATM   26  C   UNL     1     -47.988  62.545 -55.691  1.00  0.00     0.024 A 
ENDBRANCH  19  22
ENDBRANCH  11  18
BRANCH   5  27
HETATM   27  C   UNL     1     -42.986  54.780 -54.262  1.00  0.00     0.276 C 
BRANCH  27  28
HETATM   28  C   UNL     1     -41.949  53.889 -53.633  1.00  0.00     0.002 A 
HETATM   29  C   UNL     1     -41.438  54.158 -52.356  1.00  0.00     0.073 A 
HETATM   30  C   UNL     1     -40.457  53.350 -51.784  1.00  0.00     0.039 A 
HETATM   31  C   UNL     1     -39.974  52.249 -52.493  1.00  0.00     0.026 A 
HETATM   32  C   UNL     1     -40.470  51.969 -53.763  1.00  0.00     0.034 A 
HETATM   33 CL   UNL     1     -39.880  50.611 -54.636  1.00  0.00    -0.084 Cl
HETATM   34  C   UNL     1     -41.449  52.783 -54.337  1.00  0.00     0.035 A 
BRANCH  29  35
HETATM   35  O   UNL     1     -41.945  55.229 -51.671  1.00  0.00    -0.360 OA
HETATM   36  H   UNL     1     -41.217  55.868 -51.530  1.00  0.00     0.217 HD
ENDBRANCH  29  35
ENDBRANCH  27  28
ENDBRANCH   5  27
TORSDOF 6
ENDMDL
MODEL 9
REMARK VINA RESULT:      -7.1      4.667      8.217
REMARK  6 active torsions:
REMARK  status: ('A' for Active; 'I' for Inactive)
REMARK    1  A    between atoms: O_2  and  C_3 
REMARK    2  A    between atoms: N_7  and  C_9 
REMARK    3  A    between atoms: C_9  and  C_10 
REMARK    4  A    between atoms: C_11  and  O_12 
REMARK    5  A    between atoms: C_22  and  N_23 
REMARK       I    between atoms: N_23  and  C_24 
REMARK    6  A    between atoms: C_24  and  C_25 
ROOT
HETATM    1  C   UNL     1     -43.530  57.476 -52.661  1.00  0.00     0.161 C 
HETATM    2  C   UNL     1     -42.397  58.018 -53.609  1.00  0.00     0.019 C 
HETATM    3  C   UNL     1     -42.871  59.231 -54.448  1.00  0.00     0.045 C 
HETATM    4  C   UNL     1     -43.854  58.842 -55.545  1.00  0.00     0.236 C 
HETATM    5  N   UNL     1     -43.274  57.757 -56.415  1.00  0.00    -0.067 N 
HETATM    6  H   UNL     1     -44.046  57.453 -57.034  1.00  0.00     0.280 HD
HETATM    7  C   UNL     1     -42.863  56.546 -55.621  1.00  0.00     0.236 C 
HETATM    8  C   UNL     1     -41.838  56.942 -54.565  1.00  0.00     0.045 C 
HETATM    9  C   UNL     1     -41.399  58.504 -52.576  1.00  0.00    -0.038 A 
HETATM   10  C   UNL     1     -42.004  58.668 -51.316  1.00  0.00    -0.026 A 
HETATM   11  C   UNL     1     -43.476  58.317 -51.343  1.00  0.00     0.148 C 
HETATM   12  C   UNL     1     -40.055  58.805 -52.755  1.00  0.00     0.009 A 
HETATM   13  C   UNL     1     -39.318  59.264 -51.661  1.00  0.00     0.001 A 
HETATM   14  C   UNL     1     -39.922  59.420 -50.406  1.00  0.00     0.001 A 
HETATM   15  C   UNL     1     -41.273  59.123 -50.227  1.00  0.00     0.010 A 
ENDROOT
BRANCH   1  16
HETATM   16  O   UNL     1     -43.461  56.042 -52.482  1.00  0.00    -0.387 OA
HETATM   17  C   UNL     1     -43.621  55.511 -51.171  1.00  0.00     0.202 C 
ENDBRANCH   1  16
BRANCH  11  18
HETATM   18  N   UNL     1     -44.245  59.553 -51.225  1.00  0.00    -0.346 N 
HETATM   19  C   UNL     1     -45.395  59.753 -50.501  1.00  0.00     0.252 C 
HETATM   20  O   UNL     1     -46.105  58.834 -50.106  1.00  0.00    -0.268 OA
HETATM   21  H   UNL     1     -43.759  60.377 -51.545  1.00  0.00     0.163 HD
BRANCH  19  22
HETATM   22  C   UNL     1     -45.761  61.157 -50.278  1.00  0.00     0.039 A 
HETATM   23  C   UNL     1     -45.984  62.018 -51.341  1.00  0.00     0.066 A 
HETATM   24  S   UNL     1     -46.406  63.602 -50.857  1.00  0.00    -0.113 SA
HETATM   25  C   UNL     1     -46.322  63.173 -49.208  1.00  0.00     0.050 A 
HETATM   26  C   UNL     1     -45.972  61.851 -49.034  1.00  0.00     0.024 A 
ENDBRANCH  19  22
ENDBRANCH  11  18
BRANCH   5  27
HETATM   27  C   UNL     1     -42.230  58.217 -57.411  1.00  0.00     0.276 C 
BRANCH  27  28
HETATM   28  C   UNL     1     -42.657  59.388 -58.254  1.00  0.00     0.002 A 
HETATM   29  C   UNL     1     -42.105  60.662 -58.062  1.00  0.00     0.073 A 
HETATM   30  C   UNL     1     -42.520  61.753 -58.823  1.00  0.00     0.039 A 
HETATM   31  C   UNL     1     -43.502  61.577 -59.798  1.00  0.00     0.026 A 
HETATM   32  C   UNL     1     -44.062  60.318 -60.000  1.00  0.00     0.034 A 
HETATM   33 CL   UNL     1     -45.270  60.098 -61.204  1.00  0.00    -0.084 Cl
HETATM   34  C   UNL     1     -43.649  59.227 -59.233  1.00  0.00     0.035 A 
BRANCH  29  35
HETATM   35  O   UNL     1     -41.125  60.804 -57.117  1.00  0.00    -0.360 OA
HETATM   36  H   UNL     1     -41.002  61.761 -56.953  1.00  0.00     0.217 HD
ENDBRANCH  29  35
ENDBRANCH  27  28
ENDBRANCH   5  27
TORSDOF 6
ENDMDL
MODEL 10
REMARK VINA RESULT:      -7.0      3.200      5.034
REMARK  6 active torsions:
REMARK  status: ('A' for Active; 'I' for Inactive)
REMARK    1  A    between atoms: O_2  and  C_3 
REMARK    2  A    between atoms: N_7  and  C_9 
REMARK    3  A    between atoms: C_9  and  C_10 
REMARK    4  A    between atoms: C_11  and  O_12 
REMARK    5  A    between atoms: C_22  and  N_23 
REMARK       I    between atoms: N_23  and  C_24 
REMARK    6  A    between atoms: C_24  and  C_25 
ROOT
HETATM    1  C   UNL     1     -42.484  57.204 -58.018  1.00  0.00     0.161 C 
HETATM    2  C   UNL     1     -43.316  57.250 -56.682  1.00  0.00     0.019 C 
HETATM    3  C   UNL     1     -42.637  58.132 -55.605  1.00  0.00     0.045 C 
HETATM    4  C   UNL     1     -41.386  57.489 -55.017  1.00  0.00     0.236 C 
HETATM    5  N   UNL     1     -41.696  56.111 -54.493  1.00  0.00    -0.067 N 
HETATM    6  H   UNL     1     -40.782  55.693 -54.249  1.00  0.00     0.280 HD
HETATM    7  C   UNL     1     -42.303  55.222 -55.546  1.00  0.00     0.236 C 
HETATM    8  C   UNL     1     -43.583  55.853 -56.083  1.00  0.00     0.045 C 
HETATM    9  C   UNL     1     -44.563  57.960 -57.172  1.00  0.00    -0.038 A 
HETATM   10  C   UNL     1     -44.330  58.623 -58.391  1.00  0.00    -0.026 A 
HETATM   11  C   UNL     1     -42.906  58.446 -58.871  1.00  0.00     0.148 C 
HETATM   12  C   UNL     1     -45.808  58.032 -56.559  1.00  0.00     0.009 A 
HETATM   13  C   UNL     1     -46.820  58.765 -57.180  1.00  0.00     0.001 A 
HETATM   14  C   UNL     1     -46.587  59.419 -58.398  1.00  0.00     0.001 A 
HETATM   15  C   UNL     1     -45.336  59.352 -59.011  1.00  0.00     0.010 A 
ENDROOT
BRANCH   1  16
HETATM   16  O   UNL     1     -42.591  55.928 -58.690  1.00  0.00    -0.387 OA
HETATM   17  C   UNL     1     -43.227  55.879 -59.962  1.00  0.00     0.202 C 
ENDBRANCH   1  16
BRANCH  11  18
HETATM   18  N   UNL     1     -42.208  59.718 -58.716  1.00  0.00    -0.346 N 
HETATM   19  C   UNL     1     -41.822  60.584 -59.710  1.00  0.00     0.252 C 
HETATM   20  O   UNL     1     -41.735  60.254 -60.888  1.00  0.00    -0.268 OA
HETATM   21  H   UNL     1     -42.199  60.075 -57.772  1.00  0.00     0.163 HD
BRANCH  19  22
HETATM   22  C   UNL     1     -41.455  61.933 -59.262  1.00  0.00     0.039 A 
HETATM   23  C   UNL     1     -42.403  62.942 -59.171  1.00  0.00     0.066 A 
HETATM   24  S   UNL     1     -41.765  64.428 -58.622  1.00  0.00    -0.113 SA
HETATM   25  C   UNL     1     -40.204  63.758 -58.468  1.00  0.00     0.050 A 
HETATM   26  C   UNL     1     -40.173  62.430 -58.838  1.00  0.00     0.024 A 
ENDBRANCH  19  22
ENDBRANCH  11  18
BRANCH   5  27
HETATM   27  C   UNL     1     -42.428  56.074 -53.168  1.00  0.00     0.276 C 
BRANCH  27  28
HETATM   28  C   UNL     1     -41.685  55.356 -52.075  1.00  0.00     0.002 A 
HETATM   29  C   UNL     1     -41.623  55.875 -50.775  1.00  0.00     0.073 A 
HETATM   30  C   UNL     1     -40.912  55.225 -49.768  1.00  0.00     0.039 A 
HETATM   31  C   UNL     1     -40.248  54.031 -50.057  1.00  0.00     0.026 A 
HETATM   32  C   UNL     1     -40.298  53.503 -51.344  1.00  0.00     0.034 A 
HETATM   33 CL   UNL     1     -39.484  52.032 -51.701  1.00  0.00    -0.084 Cl
HETATM   34  C   UNL     1     -41.007  54.159 -52.352  1.00  0.00     0.035 A 
BRANCH  29  35
HETATM   35  O   UNL     1     -42.303  57.033 -50.510  1.00  0.00    -0.360 OA
HETATM   36  H   UNL     1     -43.183  56.969 -50.934  1.00  0.00     0.217 HD
ENDBRANCH  29  35
ENDBRANCH  27  28
ENDBRANCH   5  27
TORSDOF 6
ENDMDL
