MODEL 1
REMARK VINA RESULT:      -8.8      0.000      0.000
REMARK  7 active torsions:
REMARK  status: ('A' for Active; 'I' for Inactive)
REMARK    1  A    between atoms: C_7  and  C_8 
REMARK    2  A    between atoms: C_8  and  N_9 
REMARK    3  A    between atoms: C_13  and  C_14 
REMARK    4  A    between atoms: C_14  and  C_15 
REMARK    5  A    between atoms: C_15  and  C_16 
REMARK    6  A    between atoms: N_26  and  C_27 
REMARK    7  A    between atoms: C_27  and  C_28 
ROOT
HETATM    1  C   UNL     1     -41.821  54.831 -53.294  1.00  0.00     0.123 C 
HETATM    2  N   UNL     1     -42.155  54.723 -51.883  1.00  0.00    -0.324 N 
HETATM    3  C   UNL     1     -41.769  55.819 -51.146  1.00  0.00     0.326 C 
HETATM    4  O   UNL     1     -41.808  55.870 -49.932  1.00  0.00    -0.247 OA
HETATM    5  N   UNL     1     -41.392  56.795 -52.008  1.00  0.00    -0.268 N 
HETATM    6  C   UNL     1     -41.488  56.343 -53.287  1.00  0.00     0.257 C 
HETATM    7  O   UNL     1     -41.321  57.024 -54.291  1.00  0.00    -0.270 OA
HETATM    8  H   UNL     1     -42.290  53.843 -51.391  1.00  0.00     0.165 HD
ENDROOT
BRANCH   1   9
HETATM    9  C   UNL     1     -43.041  54.420 -54.183  1.00  0.00     0.027 C 
HETATM   10  C   UNL     1     -42.802  54.260 -55.692  1.00  0.00     0.035 C 
HETATM   11  C   UNL     1     -42.796  55.536 -56.524  1.00  0.00     0.235 C 
HETATM   12  N   UNL     1     -43.886  56.513 -56.153  1.00  0.00    -0.067 N 
HETATM   13  H   UNL     1     -44.728  56.211 -56.658  1.00  0.00     0.280 HD
HETATM   14  C   UNL     1     -44.250  56.625 -54.696  1.00  0.00     0.235 C 
HETATM   15  C   UNL     1     -44.311  55.273 -54.011  1.00  0.00     0.035 C 
BRANCH  12  16
HETATM   16  C   UNL     1     -43.569  57.913 -56.677  1.00  0.00     0.277 C 
BRANCH  16  17
HETATM   17  C   UNL     1     -44.128  58.226 -58.012  1.00  0.00     0.011 A 
HETATM   18  C   UNL     1     -45.455  58.333 -58.409  1.00  0.00     0.035 A 
HETATM   19  C   UNL     1     -46.718  58.181 -57.640  1.00  0.00     0.070 C 
HETATM   20  N   UNL     1     -45.418  58.720 -59.730  1.00  0.00    -0.278 N 
HETATM   21  C   UNL     1     -46.514  59.088 -60.598  1.00  0.00     0.179 C 
HETATM   22  N   UNL     1     -44.166  58.821 -60.209  1.00  0.00    -0.185 NA
HETATM   23  C   UNL     1     -43.389  58.570 -59.164  1.00  0.00     0.149 A 
ENDBRANCH  16  17
ENDBRANCH  12  16
ENDBRANCH   1   9
BRANCH   1  24
HETATM   24  C   UNL     1     -40.464  54.123 -53.601  1.00  0.00     0.082 C 
BRANCH  24  25
HETATM   25  C   UNL     1     -40.251  52.648 -53.304  1.00  0.00    -0.034 A 
HETATM   26  C   UNL     1     -39.812  52.118 -52.079  1.00  0.00     0.040 A 
HETATM   27 CL   UNL     1     -39.504  53.088 -50.691  1.00  0.00    -0.084 Cl
HETATM   28  C   UNL     1     -39.556  50.746 -51.940  1.00  0.00     0.024 A 
HETATM   29  C   UNL     1     -39.706  49.882 -53.021  1.00  0.00     0.002 A 
HETATM   30  C   UNL     1     -40.116  50.386 -54.248  1.00  0.00     0.001 A 
HETATM   31  C   UNL     1     -40.383  51.750 -54.388  1.00  0.00     0.009 A 
ENDBRANCH  24  25
ENDBRANCH   1  24
BRANCH   5  32
HETATM   32  C   UNL     1     -40.972  58.123 -51.619  1.00  0.00     0.141 C 
BRANCH  32  33
HETATM   33  C   UNL     1     -42.168  59.007 -51.427  1.00  0.00     0.004 A 
HETATM   34  C   UNL     1     -42.049  60.361 -50.771  1.00  0.00     0.007 A 
HETATM   35  C   UNL     1     -42.320  60.263 -52.247  1.00  0.00     0.007 A 
ENDBRANCH  32  33
ENDBRANCH   5  32
TORSDOF 7
ENDMDL
MODEL 2
REMARK VINA RESULT:      -8.5      2.823      7.693
REMARK  7 active torsions:
REMARK  status: ('A' for Active; 'I' for Inactive)
REMARK    1  A    between atoms: C_7  and  C_8 
REMARK    2  A    between atoms: C_8  and  N_9 
REMARK    3  A    between atoms: C_13  and  C_14 
REMARK    4  A    between atoms: C_14  and  C_15 
REMARK    5  A    between atoms: C_15  and  C_16 
REMARK    6  A    between atoms: N_26  and  C_27 
REMARK    7  A    between atoms: C_27  and  C_28 
ROOT
HETATM    1  C   UNL     1     -43.248  57.661 -55.260  1.00  0.00     0.123 C 
HETATM    2  N   UNL     1     -41.857  57.743 -54.846  1.00  0.00    -0.324 N 
HETATM    3  C   UNL     1     -41.594  58.816 -54.025  1.00  0.00     0.326 C 
HETATM    4  O   UNL     1     -40.477  59.161 -53.694  1.00  0.00    -0.247 OA
HETATM    5  N   UNL     1     -42.778  59.358 -53.649  1.00  0.00    -0.268 N 
HETATM    6  C   UNL     1     -43.802  58.685 -54.238  1.00  0.00     0.257 C 
HETATM    7  O   UNL     1     -44.991  58.868 -54.012  1.00  0.00    -0.270 OA
HETATM    8  H   UNL     1     -41.079  57.339 -55.363  1.00  0.00     0.165 HD
ENDROOT
BRANCH   1   9
HETATM    9  C   UNL     1     -43.787  56.201 -55.100  1.00  0.00     0.027 C 
HETATM   10  C   UNL     1     -44.056  55.692 -53.677  1.00  0.00     0.035 C 
HETATM   11  C   UNL     1     -42.852  55.190 -52.890  1.00  0.00     0.235 C 
HETATM   12  N   UNL     1     -41.902  54.341 -53.700  1.00  0.00    -0.067 N 
HETATM   13  H   UNL     1     -42.283  53.388 -53.685  1.00  0.00     0.280 HD
HETATM   14  C   UNL     1     -41.691  54.721 -55.142  1.00  0.00     0.235 C 
HETATM   15  C   UNL     1     -42.985  55.109 -55.831  1.00  0.00     0.035 C 
BRANCH  12  16
HETATM   16  C   UNL     1     -40.535  54.250 -53.024  1.00  0.00     0.277 C 
BRANCH  16  17
HETATM   17  C   UNL     1     -40.354  53.087 -52.125  1.00  0.00     0.011 A 
HETATM   18  C   UNL     1     -39.900  51.808 -52.420  1.00  0.00     0.035 A 
HETATM   19  C   UNL     1     -39.447  51.205 -53.701  1.00  0.00     0.070 C 
HETATM   20  N   UNL     1     -39.847  51.144 -51.215  1.00  0.00    -0.278 N 
HETATM   21  C   UNL     1     -39.335  49.823 -50.928  1.00  0.00     0.179 C 
HETATM   22  N   UNL     1     -40.279  51.895 -50.186  1.00  0.00    -0.185 NA
HETATM   23  C   UNL     1     -40.540  53.078 -50.726  1.00  0.00     0.149 A 
ENDBRANCH  16  17
ENDBRANCH  12  16
ENDBRANCH   1   9
BRANCH   1  24
HETATM   24  C   UNL     1     -43.455  58.333 -56.654  1.00  0.00     0.082 C 
BRANCH  24  25
HETATM   25  C   UNL     1     -44.534  57.858 -57.613  1.00  0.00    -0.034 A 
HETATM   26  C   UNL     1     -44.316  57.093 -58.772  1.00  0.00     0.040 A 
HETATM   27 CL   UNL     1     -42.761  56.522 -59.243  1.00  0.00    -0.084 Cl
HETATM   28  C   UNL     1     -45.372  56.788 -59.641  1.00  0.00     0.024 A 
HETATM   29  C   UNL     1     -46.658  57.260 -59.390  1.00  0.00     0.002 A 
HETATM   30  C   UNL     1     -46.894  58.038 -58.265  1.00  0.00     0.001 A 
HETATM   31  C   UNL     1     -45.846  58.334 -57.390  1.00  0.00     0.009 A 
ENDBRANCH  24  25
ENDBRANCH   1  24
BRANCH   5  32
HETATM   32  C   UNL     1     -42.924  60.473 -52.739  1.00  0.00     0.141 C 
BRANCH  32  33
HETATM   33  C   UNL     1     -42.910  59.986 -51.321  1.00  0.00     0.004 A 
HETATM   34  C   UNL     1     -41.750  60.277 -50.400  1.00  0.00     0.007 A 
HETATM   35  C   UNL     1     -43.070  60.962 -50.183  1.00  0.00     0.007 A 
ENDBRANCH  32  33
ENDBRANCH   5  32
TORSDOF 7
ENDMDL
MODEL 3
REMARK VINA RESULT:      -8.2      2.194      3.509
REMARK  7 active torsions:
REMARK  status: ('A' for Active; 'I' for Inactive)
REMARK    1  A    between atoms: C_7  and  C_8 
REMARK    2  A    between atoms: C_8  and  N_9 
REMARK    3  A    between atoms: C_13  and  C_14 
REMARK    4  A    between atoms: C_14  and  C_15 
REMARK    5  A    between atoms: C_15  and  C_16 
REMARK    6  A    between atoms: N_26  and  C_27 
REMARK    7  A    between atoms: C_27  and  C_28 
ROOT
HETATM    1  C   UNL     1     -42.481  56.795 -52.966  1.00  0.00     0.123 C 
HETATM    2  N   UNL     1     -43.457  55.788 -52.581  1.00  0.00    -0.324 N 
HETATM    3  C   UNL     1     -43.184  55.200 -51.367  1.00  0.00     0.326 C 
HETATM    4  O   UNL     1     -43.775  54.231 -50.932  1.00  0.00    -0.247 OA
HETATM    5  N   UNL     1     -42.195  55.909 -50.769  1.00  0.00    -0.268 N 
HETATM    6  C   UNL     1     -41.794  56.921 -51.584  1.00  0.00     0.257 C 
HETATM    7  O   UNL     1     -40.996  57.798 -51.281  1.00  0.00    -0.270 OA
HETATM    8  H   UNL     1     -44.042  55.274 -53.236  1.00  0.00     0.165 HD
ENDROOT
BRANCH   1   9
HETATM    9  C   UNL     1     -43.196  58.090 -53.476  1.00  0.00     0.027 C 
HETATM   10  C   UNL     1     -44.642  57.956 -53.977  1.00  0.00     0.035 C 
HETATM   11  C   UNL     1     -44.829  57.452 -55.402  1.00  0.00     0.235 C 
HETATM   12  N   UNL     1     -43.864  58.055 -56.396  1.00  0.00    -0.067 N 
HETATM   13  H   UNL     1     -44.270  58.954 -56.682  1.00  0.00     0.280 HD
HETATM   14  C   UNL     1     -42.460  58.323 -55.923  1.00  0.00     0.235 C 
HETATM   15  C   UNL     1     -42.424  58.910 -54.526  1.00  0.00     0.035 C 
BRANCH  12  16
HETATM   16  C   UNL     1     -43.790  57.212 -57.668  1.00  0.00     0.277 C 
BRANCH  16  17
HETATM   17  C   UNL     1     -44.943  57.354 -58.586  1.00  0.00     0.011 A 
HETATM   18  C   UNL     1     -45.353  56.525 -59.622  1.00  0.00     0.035 A 
HETATM   19  C   UNL     1     -44.788  55.249 -60.132  1.00  0.00     0.070 C 
HETATM   20  N   UNL     1     -46.523  57.074 -60.097  1.00  0.00    -0.278 N 
HETATM   21  C   UNL     1     -47.431  56.552 -61.094  1.00  0.00     0.179 C 
HETATM   22  N   UNL     1     -46.859  58.214 -59.468  1.00  0.00    -0.185 NA
HETATM   23  C   UNL     1     -45.934  58.359 -58.528  1.00  0.00     0.149 A 
ENDBRANCH  16  17
ENDBRANCH  12  16
ENDBRANCH   1   9
BRANCH   1  24
HETATM   24  C   UNL     1     -41.390  56.184 -53.901  1.00  0.00     0.082 C 
BRANCH  24  25
HETATM   25  C   UNL     1     -41.189  54.682 -54.013  1.00  0.00    -0.034 A 
HETATM   26  C   UNL     1     -41.943  53.816 -54.823  1.00  0.00     0.040 A 
HETATM   27 CL   UNL     1     -43.193  54.361 -55.874  1.00  0.00    -0.084 Cl
HETATM   28  C   UNL     1     -41.737  52.430 -54.779  1.00  0.00     0.024 A 
HETATM   29  C   UNL     1     -40.798  51.878 -53.912  1.00  0.00     0.002 A 
HETATM   30  C   UNL     1     -40.058  52.711 -53.084  1.00  0.00     0.001 A 
HETATM   31  C   UNL     1     -40.252  54.094 -53.134  1.00  0.00     0.009 A 
ENDBRANCH  24  25
ENDBRANCH   1  24
BRANCH   5  32
HETATM   32  C   UNL     1     -41.665  55.636 -49.450  1.00  0.00     0.141 C 
BRANCH  32  33
HETATM   33  C   UNL     1     -40.444  54.773 -49.555  1.00  0.00     0.004 A 
HETATM   34  C   UNL     1     -39.925  53.997 -48.368  1.00  0.00     0.007 A 
HETATM   35  C   UNL     1     -40.573  53.271 -49.515  1.00  0.00     0.007 A 
ENDBRANCH  32  33
ENDBRANCH   5  32
TORSDOF 7
ENDMDL
MODEL 4
REMARK VINA RESULT:      -8.1     15.775     17.876
REMARK  7 active torsions:
REMARK  status: ('A' for Active; 'I' for Inactive)
REMARK    1  A    between atoms: C_7  and  C_8 
REMARK    2  A    between atoms: C_8  and  N_9 
REMARK    3  A    between atoms: C_13  and  C_14 
REMARK    4  A    between atoms: C_14  and  C_15 
REMARK    5  A    between atoms: C_15  and  C_16 
REMARK    6  A    between atoms: N_26  and  C_27 
REMARK    7  A    between atoms: C_27  and  C_28 
ROOT
HETATM    1  C   UNL     1     -35.530  41.272 -55.017  1.00  0.00     0.123 C 
HETATM    2  N   UNL     1     -35.794  39.845 -55.115  1.00  0.00    -0.324 N 
HETATM    3  C   UNL     1     -36.106  39.263 -53.908  1.00  0.00     0.326 C 
HETATM    4  O   UNL     1     -36.206  38.064 -53.736  1.00  0.00    -0.247 OA
HETATM    5  N   UNL     1     -36.304  40.253 -53.002  1.00  0.00    -0.268 N 
HETATM    6  C   UNL     1     -36.091  41.462 -53.586  1.00  0.00     0.257 C 
HETATM    7  O   UNL     1     -36.296  42.547 -53.058  1.00  0.00    -0.270 OA
HETATM    8  H   UNL     1     -35.436  39.244 -55.854  1.00  0.00     0.165 HD
ENDROOT
BRANCH   1   9
HETATM    9  C   UNL     1     -36.287  42.053 -56.140  1.00  0.00     0.027 C 
HETATM   10  C   UNL     1     -37.812  41.890 -56.219  1.00  0.00     0.035 C 
HETATM   11  C   UNL     1     -38.332  40.643 -56.922  1.00  0.00     0.235 C 
HETATM   12  N   UNL     1     -37.590  40.301 -58.192  1.00  0.00    -0.067 N 
HETATM   13  H   UNL     1     -38.013  40.872 -58.934  1.00  0.00     0.280 HD
HETATM   14  C   UNL     1     -36.106  40.556 -58.216  1.00  0.00     0.235 C 
HETATM   15  C   UNL     1     -35.736  41.875 -57.567  1.00  0.00     0.035 C 
BRANCH  12  16
HETATM   16  C   UNL     1     -37.834  38.849 -58.597  1.00  0.00     0.277 C 
BRANCH  16  17
HETATM   17  C   UNL     1     -38.154  38.640 -60.028  1.00  0.00     0.011 A 
HETATM   18  C   UNL     1     -39.195  37.922 -60.603  1.00  0.00     0.035 A 
HETATM   19  C   UNL     1     -40.308  37.155 -59.986  1.00  0.00     0.070 C 
HETATM   20  N   UNL     1     -39.076  38.118 -61.961  1.00  0.00    -0.278 N 
HETATM   21  C   UNL     1     -39.965  37.695 -63.019  1.00  0.00     0.179 C 
HETATM   22  N   UNL     1     -38.010  38.868 -62.289  1.00  0.00    -0.185 NA
HETATM   23  C   UNL     1     -37.481  39.222 -61.125  1.00  0.00     0.149 A 
ENDBRANCH  16  17
ENDBRANCH  12  16
ENDBRANCH   1   9
BRANCH   1  24
HETATM   24  C   UNL     1     -33.998  41.546 -54.886  1.00  0.00     0.082 C 
BRANCH  24  25
HETATM   25  C   UNL     1     -32.970  40.463 -55.166  1.00  0.00    -0.034 A 
HETATM   26  C   UNL     1     -32.175  39.823 -54.199  1.00  0.00     0.040 A 
HETATM   27 CL   UNL     1     -32.303  40.145 -52.513  1.00  0.00    -0.084 Cl
HETATM   28  C   UNL     1     -31.186  38.903 -54.576  1.00  0.00     0.024 A 
HETATM   29  C   UNL     1     -30.952  38.623 -55.920  1.00  0.00     0.002 A 
HETATM   30  C   UNL     1     -31.707  39.260 -56.894  1.00  0.00     0.001 A 
HETATM   31  C   UNL     1     -32.702  40.168 -56.522  1.00  0.00     0.009 A 
ENDBRANCH  24  25
ENDBRANCH   1  24
BRANCH   5  32
HETATM   32  C   UNL     1     -36.703  40.045 -51.627  1.00  0.00     0.141 C 
BRANCH  32  33
HETATM   33  C   UNL     1     -35.492  39.892 -50.757  1.00  0.00     0.004 A 
HETATM   34  C   UNL     1     -35.570  39.207 -49.414  1.00  0.00     0.007 A 
HETATM   35  C   UNL     1     -34.868  38.533 -50.560  1.00  0.00     0.007 A 
ENDBRANCH  32  33
ENDBRANCH   5  32
TORSDOF 7
ENDMDL
MODEL 5
REMARK VINA RESULT:      -8.0      2.783      6.449
REMARK  7 active torsions:
REMARK  status: ('A' for Active; 'I' for Inactive)
REMARK    1  A    between atoms: C_7  and  C_8 
REMARK    2  A    between atoms: C_8  and  N_9 
REMARK    3  A    between atoms: C_13  and  C_14 
REMARK    4  A    between atoms: C_14  and  C_15 
REMARK    5  A    between atoms: C_15  and  C_16 
REMARK    6  A    between atoms: N_26  and  C_27 
REMARK    7  A    between atoms: C_27  and  C_28 
ROOT
HETATM    1  C   UNL     1     -41.862  56.269 -53.315  1.00  0.00     0.123 C 
HETATM    2  N   UNL     1     -41.770  57.647 -53.769  1.00  0.00    -0.324 N 
HETATM    3  C   UNL     1     -42.330  57.852 -55.009  1.00  0.00     0.326 C 
HETATM    4  O   UNL     1     -42.224  58.885 -55.641  1.00  0.00    -0.247 OA
HETATM    5  N   UNL     1     -43.020  56.736 -55.349  1.00  0.00    -0.268 N 
HETATM    6  C   UNL     1     -42.890  55.797 -54.374  1.00  0.00     0.257 C 
HETATM    7  O   UNL     1     -43.482  54.726 -54.340  1.00  0.00    -0.270 OA
HETATM    8  H   UNL     1     -41.070  58.312 -53.448  1.00  0.00     0.165 HD
ENDROOT
BRANCH   1   9
HETATM    9  C   UNL     1     -42.357  56.206 -51.832  1.00  0.00     0.027 C 
HETATM   10  C   UNL     1     -43.862  56.364 -51.575  1.00  0.00     0.035 C 
HETATM   11  C   UNL     1     -44.409  57.785 -51.556  1.00  0.00     0.235 C 
HETATM   12  N   UNL     1     -43.531  58.769 -50.819  1.00  0.00    -0.067 N 
HETATM   13  H   UNL     1     -43.775  58.684 -49.825  1.00  0.00     0.280 HD
HETATM   14  C   UNL     1     -42.041  58.589 -50.936  1.00  0.00     0.235 C 
HETATM   15  C   UNL     1     -41.626  57.134 -50.844  1.00  0.00     0.035 C 
BRANCH  12  16
HETATM   16  C   UNL     1     -43.872  60.207 -51.207  1.00  0.00     0.277 C 
BRANCH  16  17
HETATM   17  C   UNL     1     -44.301  61.075 -50.086  1.00  0.00     0.011 A 
HETATM   18  C   UNL     1     -43.856  62.343 -49.734  1.00  0.00     0.035 A 
HETATM   19  C   UNL     1     -42.836  63.227 -50.356  1.00  0.00     0.070 C 
HETATM   20  N   UNL     1     -44.638  62.728 -48.667  1.00  0.00    -0.278 N 
HETATM   21  C   UNL     1     -44.678  64.003 -47.986  1.00  0.00     0.179 C 
HETATM   22  N   UNL     1     -45.512  61.779 -48.291  1.00  0.00    -0.185 NA
HETATM   23  C   UNL     1     -45.342  60.803 -49.173  1.00  0.00     0.149 A 
ENDBRANCH  16  17
ENDBRANCH  12  16
ENDBRANCH   1   9
BRANCH   1  24
HETATM   24  C   UNL     1     -40.554  55.484 -53.649  1.00  0.00     0.082 C 
BRANCH  24  25
HETATM   25  C   UNL     1     -40.444  53.986 -53.415  1.00  0.00    -0.034 A 
HETATM   26  C   UNL     1     -40.149  53.372 -52.185  1.00  0.00     0.040 A 
HETATM   27 CL   UNL     1     -39.926  54.254 -50.724  1.00  0.00    -0.084 Cl
HETATM   28  C   UNL     1     -39.976  51.984 -52.099  1.00  0.00     0.024 A 
HETATM   29  C   UNL     1     -40.065  51.185 -53.236  1.00  0.00     0.002 A 
HETATM   30  C   UNL     1     -40.331  51.770 -54.465  1.00  0.00     0.001 A 
HETATM   31  C   UNL     1     -40.517  53.153 -54.554  1.00  0.00     0.009 A 
ENDBRANCH  24  25
ENDBRANCH   1  24
BRANCH   5  32
HETATM   32  C   UNL     1     -43.795  56.582 -56.561  1.00  0.00     0.141 C 
BRANCH  32  33
HETATM   33  C   UNL     1     -42.954  55.960 -57.635  1.00  0.00     0.004 A 
HETATM   34  C   UNL     1     -43.561  55.477 -58.930  1.00  0.00     0.007 A 
HETATM   35  C   UNL     1     -42.694  56.705 -58.920  1.00  0.00     0.007 A 
ENDBRANCH  32  33
ENDBRANCH   5  32
TORSDOF 7
ENDMDL
MODEL 6
REMARK VINA RESULT:      -7.9     16.179     17.993
REMARK  7 active torsions:
REMARK  status: ('A' for Active; 'I' for Inactive)
REMARK    1  A    between atoms: C_7  and  C_8 
REMARK    2  A    between atoms: C_8  and  N_9 
REMARK    3  A    between atoms: C_13  and  C_14 
REMARK    4  A    between atoms: C_14  and  C_15 
REMARK    5  A    between atoms: C_15  and  C_16 
REMARK    6  A    between atoms: N_26  and  C_27 
REMARK    7  A    between atoms: C_27  and  C_28 
ROOT
HETATM    1  C   UNL     1     -35.917  41.042 -55.759  1.00  0.00     0.123 C 
HETATM    2  N   UNL     1     -36.173  39.665 -55.371  1.00  0.00    -0.324 N 
HETATM    3  C   UNL     1     -35.970  39.429 -54.030  1.00  0.00     0.326 C 
HETATM    4  O   UNL     1     -35.973  38.323 -53.526  1.00  0.00    -0.247 OA
HETATM    5  N   UNL     1     -35.811  40.625 -53.412  1.00  0.00    -0.268 N 
HETATM    6  C   UNL     1     -35.868  41.629 -54.326  1.00  0.00     0.257 C 
HETATM    7  O   UNL     1     -35.867  42.825 -54.064  1.00  0.00    -0.270 OA
HETATM    8  H   UNL     1     -36.126  38.871 -56.005  1.00  0.00     0.165 HD
ENDROOT
BRANCH   1   9
HETATM    9  C   UNL     1     -37.072  41.586 -56.664  1.00  0.00     0.027 C 
HETATM   10  C   UNL     1     -38.361  40.756 -56.749  1.00  0.00     0.035 C 
HETATM   11  C   UNL     1     -38.351  39.571 -57.705  1.00  0.00     0.235 C 
HETATM   12  N   UNL     1     -37.692  39.860 -59.033  1.00  0.00    -0.067 N 
HETATM   13  H   UNL     1     -38.411  40.302 -59.620  1.00  0.00     0.280 HD
HETATM   14  C   UNL     1     -36.492  40.770 -59.026  1.00  0.00     0.235 C 
HETATM   15  C   UNL     1     -36.674  41.959 -58.103  1.00  0.00     0.035 C 
BRANCH  12  16
HETATM   16  C   UNL     1     -37.310  38.566 -59.750  1.00  0.00     0.277 C 
BRANCH  16  17
HETATM   17  C   UNL     1     -38.039  38.308 -61.012  1.00  0.00     0.011 A 
HETATM   18  C   UNL     1     -39.369  37.958 -61.207  1.00  0.00     0.035 A 
HETATM   19  C   UNL     1     -40.473  37.741 -60.234  1.00  0.00     0.070 C 
HETATM   20  N   UNL     1     -39.549  37.919 -62.571  1.00  0.00    -0.278 N 
HETATM   21  C   UNL     1     -40.769  37.721 -63.321  1.00  0.00     0.179 C 
HETATM   22  N   UNL     1     -38.419  38.175 -63.254  1.00  0.00    -0.185 NA
HETATM   23  C   UNL     1     -37.522  38.455 -62.318  1.00  0.00     0.149 A 
ENDBRANCH  16  17
ENDBRANCH  12  16
ENDBRANCH   1   9
BRANCH   1  24
HETATM   24  C   UNL     1     -34.464  41.205 -56.308  1.00  0.00     0.082 C 
BRANCH  24  25
HETATM   25  C   UNL     1     -33.380  40.184 -56.003  1.00  0.00    -0.034 A 
HETATM   26  C   UNL     1     -33.229  38.940 -56.641  1.00  0.00     0.040 A 
HETATM   27 CL   UNL     1     -34.242  38.415 -57.930  1.00  0.00    -0.084 Cl
HETATM   28  C   UNL     1     -32.251  38.030 -56.217  1.00  0.00     0.024 A 
HETATM   29  C   UNL     1     -31.424  38.327 -55.137  1.00  0.00     0.002 A 
HETATM   30  C   UNL     1     -31.570  39.539 -54.476  1.00  0.00     0.001 A 
HETATM   31  C   UNL     1     -32.536  40.454 -54.903  1.00  0.00     0.009 A 
ENDBRANCH  24  25
ENDBRANCH   1  24
BRANCH   5  32
HETATM   32  C   UNL     1     -35.629  40.800 -51.987  1.00  0.00     0.141 C 
BRANCH  32  33
HETATM   33  C   UNL     1     -34.167  40.839 -51.656  1.00  0.00     0.004 A 
HETATM   34  C   UNL     1     -33.670  40.576 -50.255  1.00  0.00     0.007 A 
HETATM   35  C   UNL     1     -33.427  39.563 -51.340  1.00  0.00     0.007 A 
ENDBRANCH  32  33
ENDBRANCH   5  32
TORSDOF 7
ENDMDL
MODEL 7
REMARK VINA RESULT:      -7.7      2.734      7.472
REMARK  7 active torsions:
REMARK  status: ('A' for Active; 'I' for Inactive)
REMARK    1  A    between atoms: C_7  and  C_8 
REMARK    2  A    between atoms: C_8  and  N_9 
REMARK    3  A    between atoms: C_13  and  C_14 
REMARK    4  A    between atoms: C_14  and  C_15 
REMARK    5  A    between atoms: C_15  and  C_16 
REMARK    6  A    between atoms: N_26  and  C_27 
REMARK    7  A    between atoms: C_27  and  C_28 
ROOT
HETATM    1  C   UNL     1     -43.496  57.197 -54.795  1.00  0.00     0.123 C 
HETATM    2  N   UNL     1     -44.462  57.715 -53.840  1.00  0.00    -0.324 N 
HETATM    3  C   UNL     1     -44.946  58.960 -54.173  1.00  0.00     0.326 C 
HETATM    4  O   UNL     1     -45.637  59.640 -53.440  1.00  0.00    -0.247 OA
HETATM    5  N   UNL     1     -44.545  59.242 -55.437  1.00  0.00    -0.268 N 
HETATM    6  C   UNL     1     -43.781  58.226 -55.918  1.00  0.00     0.257 C 
HETATM    7  O   UNL     1     -43.363  58.137 -57.065  1.00  0.00    -0.270 OA
HETATM    8  H   UNL     1     -44.515  57.431 -52.864  1.00  0.00     0.165 HD
ENDROOT
BRANCH   1   9
HETATM    9  C   UNL     1     -43.819  55.709 -55.155  1.00  0.00     0.027 C 
HETATM   10  C   UNL     1     -43.965  54.711 -53.998  1.00  0.00     0.035 C 
HETATM   11  C   UNL     1     -42.677  54.149 -53.411  1.00  0.00     0.235 C 
HETATM   12  N   UNL     1     -41.644  53.774 -54.448  1.00  0.00    -0.067 N 
HETATM   13  H   UNL     1     -41.887  52.829 -54.768  1.00  0.00     0.280 HD
HETATM   14  C   UNL     1     -41.539  54.650 -55.668  1.00  0.00     0.235 C 
HETATM   15  C   UNL     1     -42.897  55.060 -56.204  1.00  0.00     0.035 C 
BRANCH  12  16
HETATM   16  C   UNL     1     -40.256  53.655 -53.822  1.00  0.00     0.277 C 
BRANCH  16  17
HETATM   17  C   UNL     1     -39.954  52.340 -53.209  1.00  0.00     0.011 A 
HETATM   18  C   UNL     1     -39.868  51.992 -51.868  1.00  0.00     0.035 A 
HETATM   19  C   UNL     1     -40.057  52.801 -50.636  1.00  0.00     0.070 C 
HETATM   20  N   UNL     1     -39.643  50.633 -51.850  1.00  0.00    -0.278 N 
HETATM   21  C   UNL     1     -39.589  49.738 -50.716  1.00  0.00     0.179 C 
HETATM   22  N   UNL     1     -39.533  50.106 -53.082  1.00  0.00    -0.185 NA
HETATM   23  C   UNL     1     -39.766  51.123 -53.900  1.00  0.00     0.149 A 
ENDBRANCH  16  17
ENDBRANCH  12  16
ENDBRANCH   1   9
BRANCH   1  24
HETATM   24  C   UNL     1     -42.037  57.503 -54.332  1.00  0.00     0.082 C 
BRANCH  24  25
HETATM   25  C   UNL     1     -41.730  57.945 -52.911  1.00  0.00    -0.034 A 
HETATM   26  C   UNL     1     -41.688  59.277 -52.462  1.00  0.00     0.040 A 
HETATM   27 CL   UNL     1     -42.049  60.622 -53.474  1.00  0.00    -0.084 Cl
HETATM   28  C   UNL     1     -41.300  59.581 -51.150  1.00  0.00     0.024 A 
HETATM   29  C   UNL     1     -40.920  58.571 -50.269  1.00  0.00     0.002 A 
HETATM   30  C   UNL     1     -40.929  57.250 -50.697  1.00  0.00     0.001 A 
HETATM   31  C   UNL     1     -41.328  56.942 -52.000  1.00  0.00     0.009 A 
ENDBRANCH  24  25
ENDBRANCH   1  24
BRANCH   5  32
HETATM   32  C   UNL     1     -44.900  60.440 -56.167  1.00  0.00     0.141 C 
BRANCH  32  33
HETATM   33  C   UNL     1     -46.177  60.224 -56.922  1.00  0.00     0.004 A 
HETATM   34  C   UNL     1     -46.770  61.306 -57.792  1.00  0.00     0.007 A 
HETATM   35  C   UNL     1     -46.156  60.087 -58.423  1.00  0.00     0.007 A 
ENDBRANCH  32  33
ENDBRANCH   5  32
TORSDOF 7
ENDMDL
MODEL 8
REMARK VINA RESULT:      -7.6      3.140      7.947
REMARK  7 active torsions:
REMARK  status: ('A' for Active; 'I' for Inactive)
REMARK    1  A    between atoms: C_7  and  C_8 
REMARK    2  A    between atoms: C_8  and  N_9 
REMARK    3  A    between atoms: C_13  and  C_14 
REMARK    4  A    between atoms: C_14  and  C_15 
REMARK    5  A    between atoms: C_15  and  C_16 
REMARK    6  A    between atoms: N_26  and  C_27 
REMARK    7  A    between atoms: C_27  and  C_28 
ROOT
HETATM    1  C   UNL     1     -43.035  56.876 -55.866  1.00  0.00     0.123 C 
HETATM    2  N   UNL     1     -42.142  57.658 -55.027  1.00  0.00    -0.324 N 
HETATM    3  C   UNL     1     -42.198  59.010 -55.281  1.00  0.00     0.326 C 
HETATM    4  O   UNL     1     -41.428  59.824 -54.810  1.00  0.00    -0.247 OA
HETATM    5  N   UNL     1     -43.258  59.241 -56.094  1.00  0.00    -0.268 N 
HETATM    6  C   UNL     1     -43.868  58.066 -56.404  1.00  0.00     0.257 C 
HETATM    7  O   UNL     1     -44.914  57.956 -57.030  1.00  0.00    -0.270 OA
HETATM    8  H   UNL     1     -41.300  57.293 -54.586  1.00  0.00     0.165 HD
ENDROOT
BRANCH   1   9
HETATM    9  C   UNL     1     -43.831  55.838 -55.008  1.00  0.00     0.027 C 
HETATM   10  C   UNL     1     -43.976  56.116 -53.505  1.00  0.00     0.035 C 
HETATM   11  C   UNL     1     -42.794  55.739 -52.621  1.00  0.00     0.235 C 
HETATM   12  N   UNL     1     -42.175  54.405 -52.964  1.00  0.00    -0.067 N 
HETATM   13  H   UNL     1     -42.737  53.694 -52.480  1.00  0.00     0.280 HD
HETATM   14  C   UNL     1     -42.116  54.023 -54.419  1.00  0.00     0.235 C 
HETATM   15  C   UNL     1     -43.392  54.370 -55.159  1.00  0.00     0.035 C 
BRANCH  12  16
HETATM   16  C   UNL     1     -40.768  54.287 -52.379  1.00  0.00     0.277 C 
BRANCH  16  17
HETATM   17  C   UNL     1     -40.484  53.015 -51.676  1.00  0.00     0.011 A 
HETATM   18  C   UNL     1     -39.948  51.834 -52.172  1.00  0.00     0.035 A 
HETATM   19  C   UNL     1     -39.484  51.471 -53.537  1.00  0.00     0.070 C 
HETATM   20  N   UNL     1     -39.820  50.998 -51.086  1.00  0.00    -0.278 N 
HETATM   21  C   UNL     1     -39.209  49.689 -51.015  1.00  0.00     0.179 C 
HETATM   22  N   UNL     1     -40.280  51.547 -49.947  1.00  0.00    -0.185 NA
HETATM   23  C   UNL     1     -40.636  52.777 -50.292  1.00  0.00     0.149 A 
ENDBRANCH  16  17
ENDBRANCH  12  16
ENDBRANCH   1   9
BRANCH   1  24
HETATM   24  C   UNL     1     -42.280  56.319 -57.114  1.00  0.00     0.082 C 
BRANCH  24  25
HETATM   25  C   UNL     1     -42.996  56.074 -58.432  1.00  0.00    -0.034 A 
HETATM   26  C   UNL     1     -42.939  56.912 -59.559  1.00  0.00     0.040 A 
HETATM   27 CL   UNL     1     -41.976  58.338 -59.623  1.00  0.00    -0.084 Cl
HETATM   28  C   UNL     1     -43.716  56.643 -60.695  1.00  0.00     0.024 A 
HETATM   29  C   UNL     1     -44.582  55.553 -60.721  1.00  0.00     0.002 A 
HETATM   30  C   UNL     1     -44.674  54.725 -59.611  1.00  0.00     0.001 A 
HETATM   31  C   UNL     1     -43.893  54.983 -58.482  1.00  0.00     0.009 A 
ENDBRANCH  24  25
ENDBRANCH   1  24
BRANCH   5  32
HETATM   32  C   UNL     1     -43.684  60.549 -56.544  1.00  0.00     0.141 C 
BRANCH  32  33
HETATM   33  C   UNL     1     -43.200  60.795 -57.941  1.00  0.00     0.004 A 
HETATM   34  C   UNL     1     -44.161  61.103 -59.064  1.00  0.00     0.007 A 
HETATM   35  C   UNL     1     -43.260  62.182 -58.530  1.00  0.00     0.007 A 
ENDBRANCH  32  33
ENDBRANCH   5  32
TORSDOF 7
ENDMDL
MODEL 9
REMARK VINA RESULT:      -7.6      3.894      7.317
REMARK  7 active torsions:
REMARK  status: ('A' for Active; 'I' for Inactive)
REMARK    1  A    between atoms: C_7  and  C_8 
REMARK    2  A    between atoms: C_8  and  N_9 
REMARK    3  A    between atoms: C_13  and  C_14 
REMARK    4  A    between atoms: C_14  and  C_15 
REMARK    5  A    between atoms: C_15  and  C_16 
REMARK    6  A    between atoms: N_26  and  C_27 
REMARK    7  A    between atoms: C_27  and  C_28 
ROOT
HETATM    1  C   UNL     1     -41.969  58.287 -52.497  1.00  0.00     0.123 C 
HETATM    2  N   UNL     1     -43.210  57.594 -52.188  1.00  0.00    -0.324 N 
HETATM    3  C   UNL     1     -43.071  56.639 -51.207  1.00  0.00     0.326 C 
HETATM    4  O   UNL     1     -43.937  55.840 -50.909  1.00  0.00    -0.247 OA
HETATM    5  N   UNL     1     -41.847  56.788 -50.645  1.00  0.00    -0.268 N 
HETATM    6  C   UNL     1     -41.173  57.793 -51.264  1.00  0.00     0.257 C 
HETATM    7  O   UNL     1     -40.088  58.238 -50.913  1.00  0.00    -0.270 OA
HETATM    8  H   UNL     1     -43.993  57.505 -52.831  1.00  0.00     0.165 HD
ENDROOT
BRANCH   1   9
HETATM    9  C   UNL     1     -42.202  59.833 -52.566  1.00  0.00     0.027 C 
HETATM   10  C   UNL     1     -41.917  60.654 -51.300  1.00  0.00     0.035 C 
HETATM   11  C   UNL     1     -43.007  60.672 -50.236  1.00  0.00     0.235 C 
HETATM   12  N   UNL     1     -44.403  60.824 -50.792  1.00  0.00    -0.067 N 
HETATM   13  H   UNL     1     -44.549  61.832 -50.930  1.00  0.00     0.280 HD
HETATM   14  C   UNL     1     -44.706  60.140 -52.098  1.00  0.00     0.235 C 
HETATM   15  C   UNL     1     -43.576  60.279 -53.099  1.00  0.00     0.035 C 
BRANCH  12  16
HETATM   16  C   UNL     1     -45.451  60.391 -49.768  1.00  0.00     0.277 C 
BRANCH  16  17
HETATM   17  C   UNL     1     -45.917  61.460 -48.855  1.00  0.00     0.011 A 
HETATM   18  C   UNL     1     -46.112  61.422 -47.480  1.00  0.00     0.035 A 
HETATM   19  C   UNL     1     -45.912  60.326 -46.497  1.00  0.00     0.070 C 
HETATM   20  N   UNL     1     -46.473  62.701 -47.120  1.00  0.00    -0.278 N 
HETATM   21  C   UNL     1     -46.680  63.247 -45.797  1.00  0.00     0.179 C 
HETATM   22  N   UNL     1     -46.565  63.533 -48.172  1.00  0.00    -0.185 NA
HETATM   23  C   UNL     1     -46.186  62.800 -49.210  1.00  0.00     0.149 A 
ENDBRANCH  16  17
ENDBRANCH  12  16
ENDBRANCH   1   9
BRANCH   1  24
HETATM   24  C   UNL     1     -41.256  57.633 -53.722  1.00  0.00     0.082 C 
BRANCH  24  25
HETATM   25  C   UNL     1     -41.627  56.242 -54.208  1.00  0.00    -0.034 A 
HETATM   26  C   UNL     1     -42.754  55.922 -54.986  1.00  0.00     0.040 A 
HETATM   27 CL   UNL     1     -43.866  57.104 -55.560  1.00  0.00    -0.084 Cl
HETATM   28  C   UNL     1     -43.055  54.590 -55.300  1.00  0.00     0.024 A 
HETATM   29  C   UNL     1     -42.259  53.550 -54.827  1.00  0.00     0.002 A 
HETATM   30  C   UNL     1     -41.155  53.839 -54.037  1.00  0.00     0.001 A 
HETATM   31  C   UNL     1     -40.844  55.166 -53.731  1.00  0.00     0.009 A 
ENDBRANCH  24  25
ENDBRANCH   1  24
BRANCH   5  32
HETATM   32  C   UNL     1     -41.347  56.004 -49.536  1.00  0.00     0.141 C 
BRANCH  32  33
HETATM   33  C   UNL     1     -40.435  54.925 -50.039  1.00  0.00     0.004 A 
HETATM   34  C   UNL     1     -39.994  53.789 -49.148  1.00  0.00     0.007 A 
HETATM   35  C   UNL     1     -40.963  53.532 -50.269  1.00  0.00     0.007 A 
ENDBRANCH  32  33
ENDBRANCH   5  32
TORSDOF 7
ENDMDL
MODEL 10
REMARK VINA RESULT:      -7.5      2.595      3.925
REMARK  7 active torsions:
REMARK  status: ('A' for Active; 'I' for Inactive)
REMARK    1  A    between atoms: C_7  and  C_8 
REMARK    2  A    between atoms: C_8  and  N_9 
REMARK    3  A    between atoms: C_13  and  C_14 
REMARK    4  A    between atoms: C_14  and  C_15 
REMARK    5  A    between atoms: C_15  and  C_16 
REMARK    6  A    between atoms: N_26  and  C_27 
REMARK    7  A    between atoms: C_27  and  C_28 
ROOT
HETATM    1  C   UNL     1     -42.643  57.899 -51.902  1.00  0.00     0.123 C 
HETATM    2  N   UNL     1     -43.894  58.345 -52.494  1.00  0.00    -0.324 N 
HETATM    3  C   UNL     1     -44.475  59.392 -51.817  1.00  0.00     0.326 C 
HETATM    4  O   UNL     1     -45.593  59.813 -52.044  1.00  0.00    -0.247 OA
HETATM    5  N   UNL     1     -43.578  59.860 -50.915  1.00  0.00    -0.268 N 
HETATM    6  C   UNL     1     -42.441  59.116 -50.965  1.00  0.00     0.257 C 
HETATM    7  O   UNL     1     -41.411  59.357 -50.350  1.00  0.00    -0.270 OA
HETATM    8  H   UNL     1     -44.494  57.764 -53.075  1.00  0.00     0.165 HD
ENDROOT
BRANCH   1   9
HETATM    9  C   UNL     1     -41.546  57.715 -53.002  1.00  0.00     0.027 C 
HETATM   10  C   UNL     1     -40.929  58.981 -53.613  1.00  0.00     0.035 C 
HETATM   11  C   UNL     1     -41.725  59.669 -54.714  1.00  0.00     0.235 C 
HETATM   12  N   UNL     1     -42.341  58.716 -55.711  1.00  0.00    -0.067 N 
HETATM   13  H   UNL     1     -41.607  58.508 -56.400  1.00  0.00     0.280 HD
HETATM   14  C   UNL     1     -42.854  57.401 -55.187  1.00  0.00     0.235 C 
HETATM   15  C   UNL     1     -41.918  56.781 -54.168  1.00  0.00     0.035 C 
BRANCH  12  16
HETATM   16  C   UNL     1     -43.464  59.392 -56.495  1.00  0.00     0.277 C 
BRANCH  16  17
HETATM   17  C   UNL     1     -44.040  58.582 -57.593  1.00  0.00     0.011 A 
HETATM   18  C   UNL     1     -43.412  58.016 -58.694  1.00  0.00     0.035 A 
HETATM   19  C   UNL     1     -41.987  58.029 -59.118  1.00  0.00     0.070 C 
HETATM   20  N   UNL     1     -44.387  57.302 -59.354  1.00  0.00    -0.278 N 
HETATM   21  C   UNL     1     -44.255  56.427 -60.497  1.00  0.00     0.179 C 
HETATM   22  N   UNL     1     -45.596  57.413 -58.776  1.00  0.00    -0.185 NA
HETATM   23  C   UNL     1     -45.379  58.144 -57.691  1.00  0.00     0.149 A 
ENDBRANCH  16  17
ENDBRANCH  12  16
ENDBRANCH   1   9
BRANCH   1  24
HETATM   24  C   UNL     1     -42.881  56.690 -50.943  1.00  0.00     0.082 C 
BRANCH  24  25
HETATM   25  C   UNL     1     -41.882  55.549 -50.840  1.00  0.00    -0.034 A 
HETATM   26  C   UNL     1     -41.981  54.316 -51.508  1.00  0.00     0.040 A 
HETATM   27 CL   UNL     1     -43.248  53.943 -52.611  1.00  0.00    -0.084 Cl
HETATM   28  C   UNL     1     -41.053  53.293 -51.268  1.00  0.00     0.024 A 
HETATM   29  C   UNL     1     -40.028  53.466 -50.342  1.00  0.00     0.002 A 
HETATM   30  C   UNL     1     -39.924  54.666 -49.651  1.00  0.00     0.001 A 
HETATM   31  C   UNL     1     -40.840  55.692 -49.897  1.00  0.00     0.009 A 
ENDBRANCH  24  25
ENDBRANCH   1  24
BRANCH   5  32
HETATM   32  C   UNL     1     -43.796  60.996 -50.046  1.00  0.00     0.141 C 
BRANCH  32  33
HETATM   33  C   UNL     1     -43.511  62.270 -50.783  1.00  0.00     0.004 A 
HETATM   34  C   UNL     1     -44.226  63.555 -50.440  1.00  0.00     0.007 A 
HETATM   35  C   UNL     1     -42.771  63.392 -50.099  1.00  0.00     0.007 A 
ENDBRANCH  32  33
ENDBRANCH   5  32
TORSDOF 7
ENDMDL
