MODEL 1
REMARK VINA RESULT:      -7.9      0.000      0.000
REMARK  8 active torsions:
REMARK  status: ('A' for Active; 'I' for Inactive)
REMARK    1  A    between atoms: C_2  and  O_3 
REMARK    2  A    between atoms: O_3  and  C_4 
REMARK    3  A    between atoms: C_7  and  N_8 
REMARK       I    between atoms: N_8  and  C_9 
REMARK    4  A    between atoms: C_9  and  C_10 
REMARK    5  A    between atoms: C_10  and  N_11 
REMARK    6  A    between atoms: C_14  and  C_15 
REMARK       I    between atoms: C_15  and  N_16 
REMARK    7  A    between atoms: N_16  and  C_17 
REMARK    8  A    between atoms: C_25  and  N_26 
ROOT
HETATM    1  N   UNL     1     -42.358  57.820 -53.401  1.00  0.00    -0.248 N 
HETATM    2  N   UNL     1     -41.013  57.752 -53.516  1.00  0.00     0.007 NA
HETATM    3  N   UNL     1     -40.653  56.510 -53.230  1.00  0.00    -0.150 NA
HETATM    4  C   UNL     1     -41.786  55.793 -52.901  1.00  0.00     0.187 A 
HETATM    5  C   UNL     1     -42.885  56.635 -52.954  1.00  0.00     0.151 A 
ENDROOT
BRANCH   1   6
HETATM    6  C   UNL     1     -43.045  58.997 -53.870  1.00  0.00     0.251 C 
BRANCH   6   7
HETATM    7  C   UNL     1     -43.550  58.840 -55.284  1.00  0.00     0.241 C 
HETATM    8  N   UNL     1     -42.699  58.115 -56.104  1.00  0.00    -0.326 N 
HETATM    9  H   UNL     1     -41.744  57.986 -55.775  1.00  0.00     0.169 HD
HETATM   10  O   UNL     1     -44.653  59.282 -55.595  1.00  0.00    -0.271 OA
BRANCH   8  11
HETATM   11  C   UNL     1     -42.988  57.594 -57.382  1.00  0.00     0.034 A 
HETATM   12  C   UNL     1     -43.132  58.378 -58.525  1.00  0.00     0.032 A 
HETATM   13  C   UNL     1     -43.474  57.787 -59.748  1.00  0.00     0.039 A 
HETATM   14  C   UNL     1     -43.669  56.410 -59.850  1.00  0.00     0.068 A 
HETATM   15  C   UNL     1     -43.520  55.621 -58.713  1.00  0.00     0.039 A 
HETATM   16  C   UNL     1     -43.187  56.212 -57.485  1.00  0.00     0.032 A 
BRANCH  14  17
HETATM   17  O   UNL     1     -44.009  55.973 -61.099  1.00  0.00    -0.352 OA
BRANCH  17  18
HETATM   18  C   UNL     1     -45.117  55.080 -61.197  1.00  0.00     0.171 C 
HETATM   19  C   UNL     1     -46.383  55.876 -60.930  1.00  0.00     0.034 C 
ENDBRANCH  17  18
ENDBRANCH  14  17
ENDBRANCH   8  11
ENDBRANCH   6   7
ENDBRANCH   1   6
BRANCH   5  20
HETATM   20  N   UNL     1     -44.203  56.438 -52.714  1.00  0.00    -0.382 N 
HETATM   21  H   UNL     1     -44.774  57.258 -52.487  1.00  0.00     0.157 HD
HETATM   22  H   UNL     1     -44.746  55.719 -53.190  1.00  0.00     0.157 HD
ENDBRANCH   5  20
BRANCH   4  23
HETATM   23  C   UNL     1     -41.760  54.372 -52.575  1.00  0.00     0.280 C 
HETATM   24  N   UNL     1     -40.529  53.799 -52.838  1.00  0.00    -0.320 N 
HETATM   25  H   UNL     1     -39.766  54.462 -52.911  1.00  0.00     0.169 HD
HETATM   26  O   UNL     1     -42.724  53.806 -52.070  1.00  0.00    -0.265 OA
BRANCH  24  27
HETATM   27  C   UNL     1     -40.196  52.428 -52.763  1.00  0.00     0.057 A 
HETATM   28  C   UNL     1     -39.937  51.704 -51.585  1.00  0.00     0.060 A 
HETATM   29 CL   UNL     1     -40.216  52.323 -49.993  1.00  0.00    -0.082 Cl
HETATM   30  C   UNL     1     -39.602  50.344 -51.657  1.00  0.00     0.026 A 
HETATM   31  C   UNL     1     -39.551  49.688 -52.886  1.00  0.00     0.002 A 
HETATM   32  C   UNL     1     -39.859  50.383 -54.050  1.00  0.00     0.002 A 
HETATM   33  C   UNL     1     -40.189  51.739 -53.987  1.00  0.00     0.031 A 
ENDBRANCH  24  27
ENDBRANCH   4  23
TORSDOF 8
ENDMDL
MODEL 2
REMARK VINA RESULT:      -7.7      5.711      9.022
REMARK  8 active torsions:
REMARK  status: ('A' for Active; 'I' for Inactive)
REMARK    1  A    between atoms: C_2  and  O_3 
REMARK    2  A    between atoms: O_3  and  C_4 
REMARK    3  A    between atoms: C_7  and  N_8 
REMARK       I    between atoms: N_8  and  C_9 
REMARK    4  A    between atoms: C_9  and  C_10 
REMARK    5  A    between atoms: C_10  and  N_11 
REMARK    6  A    between atoms: C_14  and  C_15 
REMARK       I    between atoms: C_15  and  N_16 
REMARK    7  A    between atoms: N_16  and  C_17 
REMARK    8  A    between atoms: C_25  and  N_26 
ROOT
HETATM    1  N   UNL     1     -43.478  58.889 -51.273  1.00  0.00    -0.248 N 
HETATM    2  N   UNL     1     -42.141  59.032 -51.130  1.00  0.00     0.007 NA
HETATM    3  N   UNL     1     -41.604  57.823 -51.195  1.00  0.00    -0.150 NA
HETATM    4  C   UNL     1     -42.621  56.903 -51.352  1.00  0.00     0.187 A 
HETATM    5  C   UNL     1     -43.837  57.568 -51.350  1.00  0.00     0.151 A 
ENDROOT
BRANCH   1   6
HETATM    6  C   UNL     1     -44.293  60.063 -51.464  1.00  0.00     0.251 C 
BRANCH   6   7
HETATM    7  C   UNL     1     -45.008  60.475 -50.201  1.00  0.00     0.241 C 
HETATM    8  N   UNL     1     -44.161  60.919 -49.198  1.00  0.00    -0.326 N 
HETATM    9  H   UNL     1     -43.174  60.695 -49.299  1.00  0.00     0.169 HD
HETATM   10  O   UNL     1     -46.236  60.455 -50.156  1.00  0.00    -0.271 OA
BRANCH   8  11
HETATM   11  C   UNL     1     -44.525  61.591 -48.012  1.00  0.00     0.034 A 
HETATM   12  C   UNL     1     -44.767  60.947 -46.800  1.00  0.00     0.032 A 
HETATM   13  C   UNL     1     -45.178  61.682 -45.681  1.00  0.00     0.039 A 
HETATM   14  C   UNL     1     -45.343  63.065 -45.751  1.00  0.00     0.068 A 
HETATM   15  C   UNL     1     -45.096  63.714 -46.958  1.00  0.00     0.039 A 
HETATM   16  C   UNL     1     -44.694  62.979 -48.083  1.00  0.00     0.032 A 
BRANCH  14  17
HETATM   17  O   UNL     1     -45.758  63.650 -44.589  1.00  0.00    -0.352 OA
BRANCH  17  18
HETATM   18  C   UNL     1     -44.811  64.455 -43.889  1.00  0.00     0.171 C 
HETATM   19  C   UNL     1     -44.093  63.567 -42.888  1.00  0.00     0.034 C 
ENDBRANCH  17  18
ENDBRANCH  14  17
ENDBRANCH   8  11
ENDBRANCH   6   7
ENDBRANCH   1   6
BRANCH   5  20
HETATM   20  N   UNL     1     -45.116  57.139 -51.457  1.00  0.00    -0.382 N 
HETATM   21  H   UNL     1     -45.841  57.841 -51.637  1.00  0.00     0.157 HD
HETATM   22  H   UNL     1     -45.360  56.233 -51.856  1.00  0.00     0.157 HD
ENDBRANCH   5  20
BRANCH   4  23
HETATM   23  C   UNL     1     -42.382  55.473 -51.505  1.00  0.00     0.280 C 
HETATM   24  N   UNL     1     -41.137  55.207 -52.045  1.00  0.00    -0.320 N 
HETATM   25  H   UNL     1     -40.475  55.971 -51.966  1.00  0.00     0.169 HD
HETATM   26  O   UNL     1     -43.197  54.636 -51.129  1.00  0.00    -0.265 OA
BRANCH  24  27
HETATM   27  C   UNL     1     -40.634  53.949 -52.446  1.00  0.00     0.057 A 
HETATM   28  C   UNL     1     -40.125  52.953 -51.593  1.00  0.00     0.060 A 
HETATM   29 CL   UNL     1     -40.247  53.009 -49.867  1.00  0.00    -0.082 Cl
HETATM   30  C   UNL     1     -39.643  51.750 -52.129  1.00  0.00     0.026 A 
HETATM   31  C   UNL     1     -39.689  51.513 -53.502  1.00  0.00     0.002 A 
HETATM   32  C   UNL     1     -40.241  52.470 -54.346  1.00  0.00     0.002 A 
HETATM   33  C   UNL     1     -40.720  53.673 -53.821  1.00  0.00     0.031 A 
ENDBRANCH  24  27
ENDBRANCH   4  23
TORSDOF 8
ENDMDL
MODEL 3
REMARK VINA RESULT:      -7.5      6.037      9.468
REMARK  8 active torsions:
REMARK  status: ('A' for Active; 'I' for Inactive)
REMARK    1  A    between atoms: C_2  and  O_3 
REMARK    2  A    between atoms: O_3  and  C_4 
REMARK    3  A    between atoms: C_7  and  N_8 
REMARK       I    between atoms: N_8  and  C_9 
REMARK    4  A    between atoms: C_9  and  C_10 
REMARK    5  A    between atoms: C_10  and  N_11 
REMARK    6  A    between atoms: C_14  and  C_15 
REMARK       I    between atoms: C_15  and  N_16 
REMARK    7  A    between atoms: N_16  and  C_17 
REMARK    8  A    between atoms: C_25  and  N_26 
ROOT
HETATM    1  N   UNL     1     -44.925  58.777 -51.339  1.00  0.00    -0.248 N 
HETATM    2  N   UNL     1     -45.376  57.693 -50.670  1.00  0.00     0.007 NA
HETATM    3  N   UNL     1     -44.489  56.724 -50.841  1.00  0.00    -0.150 NA
HETATM    4  C   UNL     1     -43.479  57.198 -51.655  1.00  0.00     0.187 A 
HETATM    5  C   UNL     1     -43.771  58.500 -52.027  1.00  0.00     0.151 A 
ENDROOT
BRANCH   1   6
HETATM    6  C   UNL     1     -45.581  60.046 -51.144  1.00  0.00     0.251 C 
BRANCH   6   7
HETATM    7  C   UNL     1     -44.966  60.840 -50.017  1.00  0.00     0.241 C 
HETATM    8  N   UNL     1     -45.848  61.121 -48.985  1.00  0.00    -0.326 N 
HETATM    9  H   UNL     1     -46.839  61.004 -49.184  1.00  0.00     0.169 HD
HETATM   10  O   UNL     1     -43.770  61.123 -50.045  1.00  0.00    -0.271 OA
BRANCH   8  11
HETATM   11  C   UNL     1     -45.529  61.620 -47.705  1.00  0.00     0.034 A 
HETATM   12  C   UNL     1     -45.219  60.813 -46.612  1.00  0.00     0.032 A 
HETATM   13  C   UNL     1     -44.967  61.386 -45.360  1.00  0.00     0.039 A 
HETATM   14  C   UNL     1     -45.012  62.768 -45.181  1.00  0.00     0.068 A 
HETATM   15  C   UNL     1     -45.315  63.580 -46.271  1.00  0.00     0.039 A 
HETATM   16  C   UNL     1     -45.577  63.008 -47.524  1.00  0.00     0.032 A 
BRANCH  14  17
HETATM   17  O   UNL     1     -44.758  63.187 -43.906  1.00  0.00    -0.352 OA
BRANCH  17  18
HETATM   18  C   UNL     1     -43.791  62.453 -43.158  1.00  0.00     0.171 C 
HETATM   19  C   UNL     1     -42.863  63.451 -42.488  1.00  0.00     0.034 C 
ENDBRANCH  17  18
ENDBRANCH  14  17
ENDBRANCH   8  11
ENDBRANCH   6   7
ENDBRANCH   1   6
BRANCH   5  20
HETATM   20  N   UNL     1     -43.126  59.396 -52.811  1.00  0.00    -0.382 N 
HETATM   21  H   UNL     1     -43.619  60.262 -53.050  1.00  0.00     0.157 HD
HETATM   22  H   UNL     1     -42.118  59.533 -52.771  1.00  0.00     0.157 HD
ENDBRANCH   5  20
BRANCH   4  23
HETATM   23  C   UNL     1     -42.309  56.405 -52.012  1.00  0.00     0.280 C 
HETATM   24  N   UNL     1     -42.564  55.046 -51.962  1.00  0.00    -0.320 N 
HETATM   25  H   UNL     1     -43.549  54.804 -51.996  1.00  0.00     0.169 HD
HETATM   26  O   UNL     1     -41.257  56.926 -52.369  1.00  0.00    -0.265 OA
BRANCH  24  27
HETATM   27  C   UNL     1     -41.630  53.998 -52.119  1.00  0.00     0.057 A 
HETATM   28  C   UNL     1     -41.207  53.446 -53.342  1.00  0.00     0.060 A 
HETATM   29 CL   UNL     1     -41.590  54.122 -54.888  1.00  0.00    -0.082 Cl
HETATM   30  C   UNL     1     -40.279  52.394 -53.352  1.00  0.00     0.026 A 
HETATM   31  C   UNL     1     -39.744  51.905 -52.161  1.00  0.00     0.002 A 
HETATM   32  C   UNL     1     -40.116  52.482 -50.952  1.00  0.00     0.002 A 
HETATM   33  C   UNL     1     -41.042  53.528 -50.933  1.00  0.00     0.031 A 
ENDBRANCH  24  27
ENDBRANCH   4  23
TORSDOF 8
ENDMDL
MODEL 4
REMARK VINA RESULT:      -7.5      5.665      9.579
REMARK  8 active torsions:
REMARK  status: ('A' for Active; 'I' for Inactive)
REMARK    1  A    between atoms: C_2  and  O_3 
REMARK    2  A    between atoms: O_3  and  C_4 
REMARK    3  A    between atoms: C_7  and  N_8 
REMARK       I    between atoms: N_8  and  C_9 
REMARK    4  A    between atoms: C_9  and  C_10 
REMARK    5  A    between atoms: C_10  and  N_11 
REMARK    6  A    between atoms: C_14  and  C_15 
REMARK       I    between atoms: C_15  and  N_16 
REMARK    7  A    between atoms: N_16  and  C_17 
REMARK    8  A    between atoms: C_25  and  N_26 
ROOT
HETATM    1  N   UNL     1     -44.887  58.416 -51.666  1.00  0.00    -0.248 N 
HETATM    2  N   UNL     1     -45.820  57.979 -50.790  1.00  0.00     0.007 NA
HETATM    3  N   UNL     1     -46.008  58.940 -49.898  1.00  0.00    -0.150 NA
HETATM    4  C   UNL     1     -45.157  59.985 -50.199  1.00  0.00     0.187 A 
HETATM    5  C   UNL     1     -44.392  59.642 -51.302  1.00  0.00     0.151 A 
ENDROOT
BRANCH   1   6
HETATM    6  C   UNL     1     -44.649  57.663 -52.872  1.00  0.00     0.251 C 
BRANCH   6   7
HETATM    7  C   UNL     1     -43.335  56.921 -52.833  1.00  0.00     0.241 C 
HETATM    8  N   UNL     1     -43.470  55.555 -52.645  1.00  0.00    -0.326 N 
HETATM    9  H   UNL     1     -44.371  55.225 -52.305  1.00  0.00     0.169 HD
HETATM   10  O   UNL     1     -42.282  57.526 -53.024  1.00  0.00    -0.271 OA
BRANCH   8  11
HETATM   11  C   UNL     1     -42.472  54.571 -52.804  1.00  0.00     0.034 A 
HETATM   12  C   UNL     1     -41.725  54.046 -51.750  1.00  0.00     0.032 A 
HETATM   13  C   UNL     1     -40.713  53.111 -52.000  1.00  0.00     0.039 A 
HETATM   14  C   UNL     1     -40.438  52.680 -53.297  1.00  0.00     0.068 A 
HETATM   15  C   UNL     1     -41.186  53.196 -54.353  1.00  0.00     0.039 A 
HETATM   16  C   UNL     1     -42.192  54.141 -54.106  1.00  0.00     0.032 A 
BRANCH  14  17
HETATM   17  O   UNL     1     -39.419  51.776 -53.394  1.00  0.00    -0.352 OA
BRANCH  17  18
HETATM   18  C   UNL     1     -39.755  50.397 -53.254  1.00  0.00     0.171 C 
HETATM   19  C   UNL     1     -39.833  49.792 -54.646  1.00  0.00     0.034 C 
ENDBRANCH  17  18
ENDBRANCH  14  17
ENDBRANCH   8  11
ENDBRANCH   6   7
ENDBRANCH   1   6
BRANCH   5  20
HETATM   20  N   UNL     1     -43.418  60.294 -51.981  1.00  0.00    -0.382 N 
HETATM   21  H   UNL     1     -43.690  60.815 -52.821  1.00  0.00     0.157 HD
HETATM   22  H   UNL     1     -42.615  60.716 -51.518  1.00  0.00     0.157 HD
ENDBRANCH   5  20
BRANCH   4  23
HETATM   23  C   UNL     1     -45.132  61.232 -49.444  1.00  0.00     0.280 C 
HETATM   24  N   UNL     1     -45.652  61.082 -48.171  1.00  0.00    -0.320 N 
HETATM   25  H   UNL     1     -45.680  60.123 -47.841  1.00  0.00     0.169 HD
HETATM   26  O   UNL     1     -44.641  62.258 -49.904  1.00  0.00    -0.265 OA
BRANCH  24  27
HETATM   27  C   UNL     1     -45.898  62.103 -47.226  1.00  0.00     0.057 A 
HETATM   28  C   UNL     1     -46.876  63.108 -47.332  1.00  0.00     0.060 A 
HETATM   29 CL   UNL     1     -48.113  63.124 -48.542  1.00  0.00    -0.082 Cl
HETATM   30  C   UNL     1     -47.002  64.073 -46.322  1.00  0.00     0.026 A 
HETATM   31  C   UNL     1     -46.187  64.031 -45.192  1.00  0.00     0.002 A 
HETATM   32  C   UNL     1     -45.255  63.009 -45.054  1.00  0.00     0.002 A 
HETATM   33  C   UNL     1     -45.119  62.046 -46.058  1.00  0.00     0.031 A 
ENDBRANCH  24  27
ENDBRANCH   4  23
TORSDOF 8
ENDMDL
MODEL 5
REMARK VINA RESULT:      -7.5      5.388      8.618
REMARK  8 active torsions:
REMARK  status: ('A' for Active; 'I' for Inactive)
REMARK    1  A    between atoms: C_2  and  O_3 
REMARK    2  A    between atoms: O_3  and  C_4 
REMARK    3  A    between atoms: C_7  and  N_8 
REMARK       I    between atoms: N_8  and  C_9 
REMARK    4  A    between atoms: C_9  and  C_10 
REMARK    5  A    between atoms: C_10  and  N_11 
REMARK    6  A    between atoms: C_14  and  C_15 
REMARK       I    between atoms: C_15  and  N_16 
REMARK    7  A    between atoms: N_16  and  C_17 
REMARK    8  A    between atoms: C_25  and  N_26 
ROOT
HETATM    1  N   UNL     1     -42.689  58.333 -51.280  1.00  0.00    -0.248 N 
HETATM    2  N   UNL     1     -41.471  58.186 -50.713  1.00  0.00     0.007 NA
HETATM    3  N   UNL     1     -41.131  56.910 -50.828  1.00  0.00    -0.150 NA
HETATM    4  C   UNL     1     -42.164  56.240 -51.450  1.00  0.00     0.187 A 
HETATM    5  C   UNL     1     -43.196  57.130 -51.700  1.00  0.00     0.151 A 
ENDROOT
BRANCH   1   6
HETATM    6  C   UNL     1     -43.207  59.660 -51.497  1.00  0.00     0.251 C 
BRANCH   6   7
HETATM    7  C   UNL     1     -44.296  60.017 -50.515  1.00  0.00     0.241 C 
HETATM    8  N   UNL     1     -43.847  60.735 -49.418  1.00  0.00    -0.326 N 
HETATM    9  H   UNL     1     -42.843  60.731 -49.248  1.00  0.00     0.169 HD
HETATM   10  O   UNL     1     -45.464  59.723 -50.760  1.00  0.00    -0.271 OA
BRANCH   8  11
HETATM   11  C   UNL     1     -44.634  61.415 -48.466  1.00  0.00     0.034 A 
HETATM   12  C   UNL     1     -45.285  60.786 -47.406  1.00  0.00     0.032 A 
HETATM   13  C   UNL     1     -46.094  61.527 -46.535  1.00  0.00     0.039 A 
HETATM   14  C   UNL     1     -46.256  62.902 -46.701  1.00  0.00     0.068 A 
HETATM   15  C   UNL     1     -45.601  63.537 -47.754  1.00  0.00     0.039 A 
HETATM   16  C   UNL     1     -44.800  62.795 -48.634  1.00  0.00     0.032 A 
BRANCH  14  17
HETATM   17  O   UNL     1     -47.080  63.494 -45.787  1.00  0.00    -0.352 OA
BRANCH  17  18
HETATM   18  C   UNL     1     -46.611  64.688 -45.163  1.00  0.00     0.171 C 
HETATM   19  C   UNL     1     -45.521  64.302 -44.177  1.00  0.00     0.034 C 
ENDBRANCH  17  18
ENDBRANCH  14  17
ENDBRANCH   8  11
ENDBRANCH   6   7
ENDBRANCH   1   6
BRANCH   5  20
HETATM   20  N   UNL     1     -44.416  56.982 -52.269  1.00  0.00    -0.382 N 
HETATM   21  H   UNL     1     -44.905  57.830 -52.573  1.00  0.00     0.157 HD
HETATM   22  H   UNL     1     -44.659  56.177 -52.844  1.00  0.00     0.157 HD
ENDBRANCH   5  20
BRANCH   4  23
HETATM   23  C   UNL     1     -42.106  54.820 -51.778  1.00  0.00     0.280 C 
HETATM   24  N   UNL     1     -40.811  54.390 -52.007  1.00  0.00    -0.320 N 
HETATM   25  H   UNL     1     -40.095  54.999 -51.626  1.00  0.00     0.169 HD
HETATM   26  O   UNL     1     -43.109  54.114 -51.780  1.00  0.00    -0.265 OA
BRANCH  24  27
HETATM   27  C   UNL     1     -40.406  53.118 -52.470  1.00  0.00     0.057 A 
HETATM   28  C   UNL     1     -40.336  52.713 -53.815  1.00  0.00     0.060 A 
HETATM   29 CL   UNL     1     -40.514  53.793 -55.156  1.00  0.00    -0.082 Cl
HETATM   30  C   UNL     1     -39.929  51.410 -54.135  1.00  0.00     0.026 A 
HETATM   31  C   UNL     1     -39.560  50.514 -53.133  1.00  0.00     0.002 A 
HETATM   32  C   UNL     1     -39.575  50.923 -51.804  1.00  0.00     0.002 A 
HETATM   33  C   UNL     1     -39.983  52.219 -51.477  1.00  0.00     0.031 A 
ENDBRANCH  24  27
ENDBRANCH   4  23
TORSDOF 8
ENDMDL
MODEL 6
REMARK VINA RESULT:      -7.1      1.795      2.308
REMARK  8 active torsions:
REMARK  status: ('A' for Active; 'I' for Inactive)
REMARK    1  A    between atoms: C_2  and  O_3 
REMARK    2  A    between atoms: O_3  and  C_4 
REMARK    3  A    between atoms: C_7  and  N_8 
REMARK       I    between atoms: N_8  and  C_9 
REMARK    4  A    between atoms: C_9  and  C_10 
REMARK    5  A    between atoms: C_10  and  N_11 
REMARK    6  A    between atoms: C_14  and  C_15 
REMARK       I    between atoms: C_15  and  N_16 
REMARK    7  A    between atoms: N_16  and  C_17 
REMARK    8  A    between atoms: C_25  and  N_26 
ROOT
HETATM    1  N   UNL     1     -43.368  57.595 -54.543  1.00  0.00    -0.248 N 
HETATM    2  N   UNL     1     -43.155  58.033 -53.282  1.00  0.00     0.007 NA
HETATM    3  N   UNL     1     -42.822  56.982 -52.548  1.00  0.00    -0.150 NA
HETATM    4  C   UNL     1     -42.855  55.861 -53.354  1.00  0.00     0.187 A 
HETATM    5  C   UNL     1     -43.256  56.231 -54.627  1.00  0.00     0.151 A 
ENDROOT
BRANCH   1   6
HETATM    6  C   UNL     1     -43.527  58.558 -55.604  1.00  0.00     0.251 C 
BRANCH   6   7
HETATM    7  C   UNL     1     -44.712  58.248 -56.486  1.00  0.00     0.241 C 
HETATM    8  N   UNL     1     -44.420  58.257 -57.840  1.00  0.00    -0.326 N 
HETATM    9  H   UNL     1     -43.548  58.704 -58.118  1.00  0.00     0.169 HD
HETATM   10  O   UNL     1     -45.795  57.959 -55.980  1.00  0.00    -0.271 OA
BRANCH   8  11
HETATM   11  C   UNL     1     -45.230  57.777 -58.889  1.00  0.00     0.034 A 
HETATM   12  C   UNL     1     -46.232  58.529 -59.502  1.00  0.00     0.032 A 
HETATM   13  C   UNL     1     -47.031  57.959 -60.501  1.00  0.00     0.039 A 
HETATM   14  C   UNL     1     -46.837  56.640 -60.909  1.00  0.00     0.068 A 
HETATM   15  C   UNL     1     -45.833  55.887 -60.306  1.00  0.00     0.039 A 
HETATM   16  C   UNL     1     -45.039  56.452 -59.298  1.00  0.00     0.032 A 
BRANCH  14  17
HETATM   17  O   UNL     1     -47.694  56.213 -61.883  1.00  0.00    -0.352 OA
BRANCH  17  18
HETATM   18  C   UNL     1     -48.776  57.077 -62.226  1.00  0.00     0.171 C 
HETATM   19  C   UNL     1     -48.697  57.353 -63.718  1.00  0.00     0.034 C 
ENDBRANCH  17  18
ENDBRANCH  14  17
ENDBRANCH   8  11
ENDBRANCH   6   7
ENDBRANCH   1   6
BRANCH   5  20
HETATM   20  N   UNL     1     -43.458  55.525 -55.765  1.00  0.00    -0.382 N 
HETATM   21  H   UNL     1     -44.245  54.869 -55.786  1.00  0.00     0.157 HD
HETATM   22  H   UNL     1     -43.258  55.906 -56.689  1.00  0.00     0.157 HD
ENDBRANCH   5  20
BRANCH   4  23
HETATM   23  C   UNL     1     -42.496  54.530 -52.878  1.00  0.00     0.280 C 
HETATM   24  N   UNL     1     -41.243  54.140 -53.315  1.00  0.00    -0.320 N 
HETATM   25  H   UNL     1     -40.648  54.905 -53.616  1.00  0.00     0.169 HD
HETATM   26  O   UNL     1     -43.227  53.891 -52.128  1.00  0.00    -0.265 OA
BRANCH  24  27
HETATM   27  C   UNL     1     -40.641  52.873 -53.151  1.00  0.00     0.057 A 
HETATM   28  C   UNL     1     -39.993  52.410 -51.992  1.00  0.00     0.060 A 
HETATM   29 CL   UNL     1     -40.029  53.239 -50.473  1.00  0.00    -0.082 Cl
HETATM   30  C   UNL     1     -39.424  51.128 -51.971  1.00  0.00     0.026 A 
HETATM   31  C   UNL     1     -39.519  50.289 -53.080  1.00  0.00     0.002 A 
HETATM   32  C   UNL     1     -40.205  50.718 -54.210  1.00  0.00     0.002 A 
HETATM   33  C   UNL     1     -40.771  51.996 -54.241  1.00  0.00     0.031 A 
ENDBRANCH  24  27
ENDBRANCH   4  23
TORSDOF 8
ENDMDL
MODEL 7
REMARK VINA RESULT:      -7.1      3.053      7.975
REMARK  8 active torsions:
REMARK  status: ('A' for Active; 'I' for Inactive)
REMARK    1  A    between atoms: C_2  and  O_3 
REMARK    2  A    between atoms: O_3  and  C_4 
REMARK    3  A    between atoms: C_7  and  N_8 
REMARK       I    between atoms: N_8  and  C_9 
REMARK    4  A    between atoms: C_9  and  C_10 
REMARK    5  A    between atoms: C_10  and  N_11 
REMARK    6  A    between atoms: C_14  and  C_15 
REMARK       I    between atoms: C_15  and  N_16 
REMARK    7  A    between atoms: N_16  and  C_17 
REMARK    8  A    between atoms: C_25  and  N_26 
ROOT
HETATM    1  N   UNL     1     -43.267  58.852 -52.611  1.00  0.00    -0.248 N 
HETATM    2  N   UNL     1     -44.442  58.184 -52.642  1.00  0.00     0.007 NA
HETATM    3  N   UNL     1     -44.763  58.005 -53.915  1.00  0.00    -0.150 NA
HETATM    4  C   UNL     1     -43.790  58.596 -54.696  1.00  0.00     0.187 A 
HETATM    5  C   UNL     1     -42.848  59.191 -53.873  1.00  0.00     0.151 A 
ENDROOT
BRANCH   1   6
HETATM    6  C   UNL     1     -42.568  58.987 -51.358  1.00  0.00     0.251 C 
BRANCH   6   7
HETATM    7  C   UNL     1     -41.619  57.841 -51.105  1.00  0.00     0.241 C 
HETATM    8  N   UNL     1     -42.194  56.591 -51.271  1.00  0.00    -0.326 N 
HETATM    9  H   UNL     1     -43.211  56.553 -51.290  1.00  0.00     0.169 HD
HETATM   10  O   UNL     1     -40.439  58.066 -50.843  1.00  0.00    -0.271 OA
BRANCH   8  11
HETATM   11  C   UNL     1     -41.528  55.351 -51.348  1.00  0.00     0.034 A 
HETATM   12  C   UNL     1     -40.765  54.815 -50.312  1.00  0.00     0.032 A 
HETATM   13  C   UNL     1     -40.089  53.601 -50.487  1.00  0.00     0.039 A 
HETATM   14  C   UNL     1     -40.171  52.902 -51.691  1.00  0.00     0.068 A 
HETATM   15  C   UNL     1     -40.937  53.429 -52.727  1.00  0.00     0.039 A 
HETATM   16  C   UNL     1     -41.607  54.649 -52.557  1.00  0.00     0.032 A 
BRANCH  14  17
HETATM   17  O   UNL     1     -39.453  51.740 -51.727  1.00  0.00    -0.352 OA
BRANCH  17  18
HETATM   18  C   UNL     1     -39.479  50.994 -52.942  1.00  0.00     0.171 C 
HETATM   19  C   UNL     1     -39.602  49.523 -52.584  1.00  0.00     0.034 C 
ENDBRANCH  17  18
ENDBRANCH  14  17
ENDBRANCH   8  11
ENDBRANCH   6   7
ENDBRANCH   1   6
BRANCH   5  20
HETATM   20  N   UNL     1     -41.722  59.897 -54.130  1.00  0.00    -0.382 N 
HETATM   21  H   UNL     1     -41.467  60.642 -53.473  1.00  0.00     0.157 HD
HETATM   22  H   UNL     1     -40.901  59.482 -54.568  1.00  0.00     0.157 HD
ENDBRANCH   5  20
BRANCH   4  23
HETATM   23  C   UNL     1     -43.805  58.549 -56.154  1.00  0.00     0.280 C 
HETATM   24  N   UNL     1     -44.391  57.391 -56.632  1.00  0.00    -0.320 N 
HETATM   25  H   UNL     1     -44.982  56.913 -55.961  1.00  0.00     0.169 HD
HETATM   26  O   UNL     1     -43.389  59.480 -56.836  1.00  0.00    -0.265 OA
BRANCH  24  27
HETATM   27  C   UNL     1     -44.455  56.963 -57.977  1.00  0.00     0.057 A 
HETATM   28  C   UNL     1     -45.472  57.277 -58.897  1.00  0.00     0.060 A 
HETATM   29 CL   UNL     1     -46.711  58.447 -58.599  1.00  0.00    -0.082 Cl
HETATM   30  C   UNL     1     -45.417  56.770 -60.203  1.00  0.00     0.026 A 
HETATM   31  C   UNL     1     -44.346  55.979 -60.615  1.00  0.00     0.002 A 
HETATM   32  C   UNL     1     -43.310  55.709 -59.729  1.00  0.00     0.002 A 
HETATM   33  C   UNL     1     -43.359  56.207 -58.424  1.00  0.00     0.031 A 
ENDBRANCH  24  27
ENDBRANCH   4  23
TORSDOF 8
ENDMDL
MODEL 8
REMARK VINA RESULT:      -7.1      4.610      6.975
REMARK  8 active torsions:
REMARK  status: ('A' for Active; 'I' for Inactive)
REMARK    1  A    between atoms: C_2  and  O_3 
REMARK    2  A    between atoms: O_3  and  C_4 
REMARK    3  A    between atoms: C_7  and  N_8 
REMARK       I    between atoms: N_8  and  C_9 
REMARK    4  A    between atoms: C_9  and  C_10 
REMARK    5  A    between atoms: C_10  and  N_11 
REMARK    6  A    between atoms: C_14  and  C_15 
REMARK       I    between atoms: C_15  and  N_16 
REMARK    7  A    between atoms: N_16  and  C_17 
REMARK    8  A    between atoms: C_25  and  N_26 
ROOT
HETATM    1  N   UNL     1     -41.061  57.612 -51.533  1.00  0.00    -0.248 N 
HETATM    2  N   UNL     1     -41.000  57.201 -50.246  1.00  0.00     0.007 NA
HETATM    3  N   UNL     1     -41.142  55.884 -50.244  1.00  0.00    -0.150 NA
HETATM    4  C   UNL     1     -41.325  55.464 -51.546  1.00  0.00     0.187 A 
HETATM    5  C   UNL     1     -41.329  56.569 -52.382  1.00  0.00     0.151 A 
ENDROOT
BRANCH   1   6
HETATM    6  C   UNL     1     -40.714  58.975 -51.852  1.00  0.00     0.251 C 
BRANCH   6   7
HETATM    7  C   UNL     1     -41.924  59.873 -51.922  1.00  0.00     0.241 C 
HETATM    8  N   UNL     1     -42.690  59.871 -50.767  1.00  0.00    -0.326 N 
HETATM    9  H   UNL     1     -42.526  59.111 -50.110  1.00  0.00     0.169 HD
HETATM   10  O   UNL     1     -42.119  60.565 -52.919  1.00  0.00    -0.271 OA
BRANCH   8  11
HETATM   11  C   UNL     1     -43.724  60.768 -50.429  1.00  0.00     0.034 A 
HETATM   12  C   UNL     1     -43.513  61.994 -49.800  1.00  0.00     0.032 A 
HETATM   13  C   UNL     1     -44.599  62.803 -49.448  1.00  0.00     0.039 A 
HETATM   14  C   UNL     1     -45.908  62.409 -49.727  1.00  0.00     0.068 A 
HETATM   15  C   UNL     1     -46.124  61.189 -50.362  1.00  0.00     0.039 A 
HETATM   16  C   UNL     1     -45.038  60.372 -50.706  1.00  0.00     0.032 A 
BRANCH  14  17
HETATM   17  O   UNL     1     -46.869  63.290 -49.319  1.00  0.00    -0.352 OA
BRANCH  17  18
HETATM   18  C   UNL     1     -46.735  63.842 -48.011  1.00  0.00     0.171 C 
HETATM   19  C   UNL     1     -47.187  62.791 -47.012  1.00  0.00     0.034 C 
ENDBRANCH  17  18
ENDBRANCH  14  17
ENDBRANCH   8  11
ENDBRANCH   6   7
ENDBRANCH   1   6
BRANCH   5  20
HETATM   20  N   UNL     1     -41.481  56.705 -53.720  1.00  0.00    -0.382 N 
HETATM   21  H   UNL     1     -40.993  56.037 -54.326  1.00  0.00     0.157 HD
HETATM   22  H   UNL     1     -42.347  57.036 -54.143  1.00  0.00     0.157 HD
ENDBRANCH   5  20
BRANCH   4  23
HETATM   23  C   UNL     1     -41.469  54.061 -51.915  1.00  0.00     0.280 C 
HETATM   24  N   UNL     1     -40.247  53.422 -52.024  1.00  0.00    -0.320 N 
HETATM   25  H   UNL     1     -39.484  53.895 -51.550  1.00  0.00     0.169 HD
HETATM   26  O   UNL     1     -42.569  53.534 -52.045  1.00  0.00    -0.265 OA
BRANCH  24  27
HETATM   27  C   UNL     1     -40.012  52.108 -52.486  1.00  0.00     0.057 A 
HETATM   28  C   UNL     1     -39.877  50.961 -51.683  1.00  0.00     0.060 A 
HETATM   29 CL   UNL     1     -40.213  50.930 -49.986  1.00  0.00    -0.082 Cl
HETATM   30  C   UNL     1     -39.630  49.714 -52.276  1.00  0.00     0.026 A 
HETATM   31  C   UNL     1     -39.546  49.590 -53.662  1.00  0.00     0.002 A 
HETATM   32  C   UNL     1     -39.732  50.709 -54.465  1.00  0.00     0.002 A 
HETATM   33  C   UNL     1     -39.974  51.955 -53.882  1.00  0.00     0.031 A 
ENDBRANCH  24  27
ENDBRANCH   4  23
TORSDOF 8
ENDMDL
MODEL 9
REMARK VINA RESULT:      -6.9      3.888      9.092
REMARK  8 active torsions:
REMARK  status: ('A' for Active; 'I' for Inactive)
REMARK    1  A    between atoms: C_2  and  O_3 
REMARK    2  A    between atoms: O_3  and  C_4 
REMARK    3  A    between atoms: C_7  and  N_8 
REMARK       I    between atoms: N_8  and  C_9 
REMARK    4  A    between atoms: C_9  and  C_10 
REMARK    5  A    between atoms: C_10  and  N_11 
REMARK    6  A    between atoms: C_14  and  C_15 
REMARK       I    between atoms: C_15  and  N_16 
REMARK    7  A    between atoms: N_16  and  C_17 
REMARK    8  A    between atoms: C_25  and  N_26 
ROOT
HETATM    1  N   UNL     1     -44.446  57.636 -55.133  1.00  0.00    -0.248 N 
HETATM    2  N   UNL     1     -43.637  56.864 -55.893  1.00  0.00     0.007 NA
HETATM    3  N   UNL     1     -43.219  57.607 -56.908  1.00  0.00    -0.150 NA
HETATM    4  C   UNL     1     -43.799  58.855 -56.800  1.00  0.00     0.187 A 
HETATM    5  C   UNL     1     -44.632  58.874 -55.694  1.00  0.00     0.151 A 
ENDROOT
BRANCH   1   6
HETATM    6  C   UNL     1     -44.867  57.154 -53.841  1.00  0.00     0.251 C 
BRANCH   6   7
HETATM    7  C   UNL     1     -43.728  56.548 -53.059  1.00  0.00     0.241 C 
HETATM    8  N   UNL     1     -43.543  55.195 -53.296  1.00  0.00    -0.326 N 
HETATM    9  H   UNL     1     -44.309  54.700 -53.749  1.00  0.00     0.169 HD
HETATM   10  O   UNL     1     -43.027  57.260 -52.343  1.00  0.00    -0.271 OA
BRANCH   8  11
HETATM   11  C   UNL     1     -42.436  54.408 -52.917  1.00  0.00     0.034 A 
HETATM   12  C   UNL     1     -41.489  53.918 -53.815  1.00  0.00     0.032 A 
HETATM   13  C   UNL     1     -40.449  53.096 -53.365  1.00  0.00     0.039 A 
HETATM   14  C   UNL     1     -40.332  52.759 -52.017  1.00  0.00     0.068 A 
HETATM   15  C   UNL     1     -41.272  53.251 -51.114  1.00  0.00     0.039 A 
HETATM   16  C   UNL     1     -42.320  54.066 -51.565  1.00  0.00     0.032 A 
BRANCH  14  17
HETATM   17  O   UNL     1     -39.278  51.942 -51.721  1.00  0.00    -0.352 OA
BRANCH  17  18
HETATM   18  C   UNL     1     -39.427  50.554 -52.011  1.00  0.00     0.171 C 
HETATM   19  C   UNL     1     -39.752  49.838 -50.711  1.00  0.00     0.034 C 
ENDBRANCH  17  18
ENDBRANCH  14  17
ENDBRANCH   8  11
ENDBRANCH   6   7
ENDBRANCH   1   6
BRANCH   5  20
HETATM   20  N   UNL     1     -45.428  59.832 -55.162  1.00  0.00    -0.382 N 
HETATM   21  H   UNL     1     -45.889  60.481 -55.808  1.00  0.00     0.157 HD
HETATM   22  H   UNL     1     -45.980  59.681 -54.319  1.00  0.00     0.157 HD
ENDBRANCH   5  20
BRANCH   4  23
HETATM   23  C   UNL     1     -43.520  59.943 -57.731  1.00  0.00     0.280 C 
HETATM   24  N   UNL     1     -42.254  59.849 -58.279  1.00  0.00    -0.320 N 
HETATM   25  H   UNL     1     -41.837  58.926 -58.215  1.00  0.00     0.169 HD
HETATM   26  O   UNL     1     -44.364  60.788 -58.011  1.00  0.00    -0.265 OA
BRANCH  24  27
HETATM   27  C   UNL     1     -41.613  60.795 -59.110  1.00  0.00     0.057 A 
HETATM   28  C   UNL     1     -41.810  60.946 -60.495  1.00  0.00     0.060 A 
HETATM   29 CL   UNL     1     -43.058  60.141 -61.383  1.00  0.00    -0.082 Cl
HETATM   30  C   UNL     1     -41.094  61.922 -61.203  1.00  0.00     0.026 A 
HETATM   31  C   UNL     1     -40.208  62.772 -60.543  1.00  0.00     0.002 A 
HETATM   32  C   UNL     1     -40.048  62.666 -59.167  1.00  0.00     0.002 A 
HETATM   33  C   UNL     1     -40.754  61.693 -58.454  1.00  0.00     0.031 A 
ENDBRANCH  24  27
ENDBRANCH   4  23
TORSDOF 8
ENDMDL
MODEL 10
REMARK VINA RESULT:      -6.8     15.393     18.927
REMARK  8 active torsions:
REMARK  status: ('A' for Active; 'I' for Inactive)
REMARK    1  A    between atoms: C_2  and  O_3 
REMARK    2  A    between atoms: O_3  and  C_4 
REMARK    3  A    between atoms: C_7  and  N_8 
REMARK       I    between atoms: N_8  and  C_9 
REMARK    4  A    between atoms: C_9  and  C_10 
REMARK    5  A    between atoms: C_10  and  N_11 
REMARK    6  A    between atoms: C_14  and  C_15 
REMARK       I    between atoms: C_15  and  N_16 
REMARK    7  A    between atoms: N_16  and  C_17 
REMARK    8  A    between atoms: C_25  and  N_26 
ROOT
HETATM    1  N   UNL     1     -36.732  41.972 -55.502  1.00  0.00    -0.248 N 
HETATM    2  N   UNL     1     -37.935  41.396 -55.281  1.00  0.00     0.007 NA
HETATM    3  N   UNL     1     -38.354  40.898 -56.435  1.00  0.00    -0.150 NA
HETATM    4  C   UNL     1     -37.414  41.192 -57.402  1.00  0.00     0.187 A 
HETATM    5  C   UNL     1     -36.390  41.928 -56.829  1.00  0.00     0.151 A 
ENDROOT
BRANCH   1   6
HETATM    6  C   UNL     1     -35.941  42.399 -54.375  1.00  0.00     0.251 C 
BRANCH   6   7
HETATM    7  C   UNL     1     -35.149  41.266 -53.770  1.00  0.00     0.241 C 
HETATM    8  N   UNL     1     -34.405  41.634 -52.660  1.00  0.00    -0.326 N 
HETATM    9  H   UNL     1     -34.258  42.631 -52.516  1.00  0.00     0.169 HD
HETATM   10  O   UNL     1     -35.251  40.131 -54.230  1.00  0.00    -0.271 OA
BRANCH   8  11
HETATM   11  C   UNL     1     -33.765  40.776 -51.742  1.00  0.00     0.034 A 
HETATM   12  C   UNL     1     -34.431  40.093 -50.725  1.00  0.00     0.032 A 
HETATM   13  C   UNL     1     -33.713  39.303 -49.819  1.00  0.00     0.039 A 
HETATM   14  C   UNL     1     -32.328  39.174 -49.918  1.00  0.00     0.068 A 
HETATM   15  C   UNL     1     -31.659  39.849 -50.936  1.00  0.00     0.039 A 
HETATM   16  C   UNL     1     -32.374  40.649 -51.838  1.00  0.00     0.032 A 
BRANCH  14  17
HETATM   17  O   UNL     1     -31.758  38.382 -48.962  1.00  0.00    -0.352 OA
BRANCH  17  18
HETATM   18  C   UNL     1     -31.964  38.753 -47.600  1.00  0.00     0.171 C 
HETATM   19  C   UNL     1     -30.903  39.776 -47.230  1.00  0.00     0.034 C 
ENDBRANCH  17  18
ENDBRANCH  14  17
ENDBRANCH   8  11
ENDBRANCH   6   7
ENDBRANCH   1   6
BRANCH   5  20
HETATM   20  N   UNL     1     -35.254  42.466 -57.334  1.00  0.00    -0.382 N 
HETATM   21  H   UNL     1     -34.727  43.112 -56.737  1.00  0.00     0.157 HD
HETATM   22  H   UNL     1     -34.644  41.959 -57.973  1.00  0.00     0.157 HD
ENDBRANCH   5  20
BRANCH   4  23
HETATM   23  C   UNL     1     -37.534  40.751 -58.787  1.00  0.00     0.280 C 
HETATM   24  N   UNL     1     -38.168  39.526 -58.891  1.00  0.00    -0.320 N 
HETATM   25  H   UNL     1     -38.715  39.268 -58.077  1.00  0.00     0.169 HD
HETATM   26  O   UNL     1     -37.156  41.447 -59.724  1.00  0.00    -0.265 OA
BRANCH  24  27
HETATM   27  C   UNL     1     -38.334  38.751 -60.061  1.00  0.00     0.057 A 
HETATM   28  C   UNL     1     -37.302  38.271 -60.887  1.00  0.00     0.060 A 
HETATM   29 CL   UNL     1     -35.623  38.354 -60.476  1.00  0.00    -0.082 Cl
HETATM   30  C   UNL     1     -37.611  37.521 -62.031  1.00  0.00     0.026 A 
HETATM   31  C   UNL     1     -38.934  37.216 -62.346  1.00  0.00     0.002 A 
HETATM   32  C   UNL     1     -39.956  37.640 -61.505  1.00  0.00     0.002 A 
HETATM   33  C   UNL     1     -39.657  38.391 -60.366  1.00  0.00     0.031 A 
ENDBRANCH  24  27
ENDBRANCH   4  23
TORSDOF 8
ENDMDL
