MODEL 1
REMARK VINA RESULT:      -7.5      0.000      0.000
REMARK  7 active torsions:
REMARK  status: ('A' for Active; 'I' for Inactive)
REMARK    1  A    between atoms: C_2  and  C_3 
REMARK    2  A    between atoms: C_3  and  N_4 
REMARK    3  A    between atoms: C_3  and  C_20 
REMARK       I    between atoms: N_4  and  C_5 
REMARK       I    between atoms: C_5  and  N_6 
REMARK    4  A    between atoms: N_6  and  C_7 
REMARK    5  A    between atoms: C_7  and  C_8 
REMARK    6  A    between atoms: C_10  and  O_11 
REMARK    7  A    between atoms: O_11  and  C_12 
ROOT
HETATM    1  N   UNL     1     -41.391  53.859 -52.495  1.00  0.00    -0.334 N 
HETATM    2  C   UNL     1     -42.704  54.176 -52.388  1.00  0.00     0.316 C 
HETATM    3  N   UNL     1     -43.231  54.934 -53.379  1.00  0.00    -0.339 N 
HETATM    4  O   UNL     1     -43.422  53.826 -51.456  1.00  0.00    -0.247 OA
HETATM    5  H   UNL     1     -40.835  54.293 -53.211  1.00  0.00     0.165 HD
HETATM    6  H   UNL     1     -44.206  55.152 -53.221  1.00  0.00     0.164 HD
ENDROOT
BRANCH   3   7
HETATM    7  C   UNL     1     -42.661  55.324 -54.650  1.00  0.00     0.163 C 
BRANCH   7   8
HETATM    8  C   UNL     1     -42.241  56.769 -54.734  1.00  0.00    -0.035 A 
HETATM    9  C   UNL     1     -41.327  57.359 -53.854  1.00  0.00     0.066 A 
HETATM   10  C   UNL     1     -41.046  58.712 -53.991  1.00  0.00     0.164 A 
HETATM   11  N   UNL     1     -41.585  59.504 -54.940  1.00  0.00    -0.237 NA
HETATM   12  C   UNL     1     -42.452  58.918 -55.789  1.00  0.00     0.120 A 
HETATM   13  C   UNL     1     -42.806  57.579 -55.726  1.00  0.00     0.028 A 
BRANCH  10  14
HETATM   14  O   UNL     1     -40.162  59.257 -53.080  1.00  0.00    -0.329 OA
BRANCH  14  15
HETATM   15  C   UNL     1     -40.344  58.853 -51.705  1.00  0.00     0.130 C 
HETATM   16  C   UNL     1     -39.443  59.550 -50.649  1.00  0.00     0.032 C 
HETATM   17  C   UNL     1     -40.669  59.595 -49.721  1.00  0.00     0.005 C 
HETATM   18  C   UNL     1     -41.544  59.520 -50.983  1.00  0.00     0.032 C 
ENDBRANCH  14  15
ENDBRANCH  10  14
ENDBRANCH   7   8
ENDBRANCH   3   7
BRANCH   1  19
HETATM   19  C   UNL     1     -40.726  52.963 -51.560  1.00  0.00     0.119 C 
BRANCH  19  20
HETATM   20  C   UNL     1     -39.550  53.666 -50.858  1.00  0.00     0.025 C 
HETATM   21  C   UNL     1     -39.947  54.246 -49.506  1.00  0.00     0.007 C 
ENDBRANCH  19  20
BRANCH  19  22
HETATM   22  C   UNL     1     -40.256  51.711 -52.281  1.00  0.00    -0.033 A 
HETATM   23  C   UNL     1     -40.229  51.677 -53.680  1.00  0.00     0.028 A 
HETATM   24  C   UNL     1     -39.812  50.517 -54.315  1.00  0.00     0.116 A 
HETATM   25  N   UNL     1     -39.421  49.402 -53.663  1.00  0.00    -0.273 NA
HETATM   26  C   UNL     1     -39.445  49.453 -52.314  1.00  0.00     0.116 A 
HETATM   27  C   UNL     1     -39.850  50.564 -51.590  1.00  0.00     0.028 A 
ENDBRANCH  19  22
ENDBRANCH   1  19
TORSDOF 7
ENDMDL
MODEL 2
REMARK VINA RESULT:      -7.3      2.360      7.027
REMARK  7 active torsions:
REMARK  status: ('A' for Active; 'I' for Inactive)
REMARK    1  A    between atoms: C_2  and  C_3 
REMARK    2  A    between atoms: C_3  and  N_4 
REMARK    3  A    between atoms: C_3  and  C_20 
REMARK       I    between atoms: N_4  and  C_5 
REMARK       I    between atoms: C_5  and  N_6 
REMARK    4  A    between atoms: N_6  and  C_7 
REMARK    5  A    between atoms: C_7  and  C_8 
REMARK    6  A    between atoms: C_10  and  O_11 
REMARK    7  A    between atoms: O_11  and  C_12 
ROOT
HETATM    1  N   UNL     1     -43.809  55.771 -53.022  1.00  0.00    -0.334 N 
HETATM    2  C   UNL     1     -44.281  56.370 -51.901  1.00  0.00     0.316 C 
HETATM    3  N   UNL     1     -44.345  55.608 -50.784  1.00  0.00    -0.339 N 
HETATM    4  O   UNL     1     -44.651  57.539 -51.851  1.00  0.00    -0.247 OA
HETATM    5  H   UNL     1     -43.654  54.778 -53.022  1.00  0.00     0.165 HD
HETATM    6  H   UNL     1     -44.729  56.112 -49.995  1.00  0.00     0.164 HD
ENDROOT
BRANCH   3   7
HETATM    7  C   UNL     1     -43.819  54.284 -50.533  1.00  0.00     0.163 C 
BRANCH   7   8
HETATM    8  C   UNL     1     -42.317  54.214 -50.426  1.00  0.00    -0.035 A 
HETATM    9  C   UNL     1     -41.528  53.346 -51.188  1.00  0.00     0.066 A 
HETATM   10  C   UNL     1     -40.157  53.328 -50.975  1.00  0.00     0.164 A 
HETATM   11  N   UNL     1     -39.519  54.118 -50.087  1.00  0.00    -0.237 NA
HETATM   12  C   UNL     1     -40.290  54.960 -49.372  1.00  0.00     0.120 A 
HETATM   13  C   UNL     1     -41.668  55.042 -49.501  1.00  0.00     0.028 A 
BRANCH  10  14
HETATM   14  O   UNL     1     -39.423  52.433 -51.729  1.00  0.00    -0.329 OA
BRANCH  14  15
HETATM   15  C   UNL     1     -40.172  51.651 -52.685  1.00  0.00     0.130 C 
HETATM   16  C   UNL     1     -39.889  51.928 -54.187  1.00  0.00     0.032 C 
HETATM   17  C   UNL     1     -39.982  50.410 -54.422  1.00  0.00     0.005 C 
HETATM   18  C   UNL     1     -39.617  50.225 -52.939  1.00  0.00     0.032 C 
ENDBRANCH  14  15
ENDBRANCH  10  14
ENDBRANCH   7   8
ENDBRANCH   3   7
BRANCH   1  19
HETATM   19  C   UNL     1     -43.586  56.500 -54.262  1.00  0.00     0.119 C 
BRANCH  19  20
HETATM   20  C   UNL     1     -43.162  55.551 -55.396  1.00  0.00     0.025 C 
HETATM   21  C   UNL     1     -42.814  54.158 -54.886  1.00  0.00     0.007 C 
ENDBRANCH  19  20
BRANCH  19  22
HETATM   22  C   UNL     1     -42.546  57.587 -54.048  1.00  0.00    -0.033 A 
HETATM   23  C   UNL     1     -41.333  57.283 -53.420  1.00  0.00     0.028 A 
HETATM   24  C   UNL     1     -40.408  58.296 -53.222  1.00  0.00     0.116 A 
HETATM   25  N   UNL     1     -40.602  59.577 -53.603  1.00  0.00    -0.273 NA
HETATM   26  C   UNL     1     -41.773  59.853 -54.214  1.00  0.00     0.116 A 
HETATM   27  C   UNL     1     -42.761  58.910 -54.453  1.00  0.00     0.028 A 
ENDBRANCH  19  22
ENDBRANCH   1  19
TORSDOF 7
ENDMDL
MODEL 3
REMARK VINA RESULT:      -7.1      2.167      3.620
REMARK  7 active torsions:
REMARK  status: ('A' for Active; 'I' for Inactive)
REMARK    1  A    between atoms: C_2  and  C_3 
REMARK    2  A    between atoms: C_3  and  N_4 
REMARK    3  A    between atoms: C_3  and  C_20 
REMARK       I    between atoms: N_4  and  C_5 
REMARK       I    between atoms: C_5  and  N_6 
REMARK    4  A    between atoms: N_6  and  C_7 
REMARK    5  A    between atoms: C_7  and  C_8 
REMARK    6  A    between atoms: C_10  and  O_11 
REMARK    7  A    between atoms: O_11  and  C_12 
ROOT
HETATM    1  N   UNL     1     -41.219  53.807 -53.846  1.00  0.00    -0.334 N 
HETATM    2  C   UNL     1     -40.783  54.555 -54.889  1.00  0.00     0.316 C 
HETATM    3  N   UNL     1     -41.731  55.113 -55.678  1.00  0.00    -0.339 N 
HETATM    4  O   UNL     1     -39.598  54.742 -55.152  1.00  0.00    -0.247 OA
HETATM    5  H   UNL     1     -42.197  53.586 -53.774  1.00  0.00     0.165 HD
HETATM    6  H   UNL     1     -41.333  55.635 -56.448  1.00  0.00     0.164 HD
ENDROOT
BRANCH   3   7
HETATM    7  C   UNL     1     -43.163  55.194 -55.491  1.00  0.00     0.163 C 
BRANCH   7   8
HETATM    8  C   UNL     1     -43.632  56.420 -54.749  1.00  0.00    -0.035 A 
HETATM    9  C   UNL     1     -43.187  56.763 -53.467  1.00  0.00     0.066 A 
HETATM   10  C   UNL     1     -43.720  57.889 -52.855  1.00  0.00     0.164 A 
HETATM   11  N   UNL     1     -44.634  58.700 -53.426  1.00  0.00    -0.237 NA
HETATM   12  C   UNL     1     -45.041  58.365 -54.666  1.00  0.00     0.120 A 
HETATM   13  C   UNL     1     -44.579  57.254 -55.356  1.00  0.00     0.028 A 
BRANCH  10  14
HETATM   14  O   UNL     1     -43.274  58.171 -51.578  1.00  0.00    -0.329 OA
BRANCH  14  15
HETATM   15  C   UNL     1     -41.960  58.764 -51.486  1.00  0.00     0.130 C 
HETATM   16  C   UNL     1     -41.820  60.010 -50.569  1.00  0.00     0.032 C 
HETATM   17  C   UNL     1     -40.469  59.441 -50.103  1.00  0.00     0.005 C 
HETATM   18  C   UNL     1     -40.991  58.051 -50.507  1.00  0.00     0.032 C 
ENDBRANCH  14  15
ENDBRANCH  10  14
ENDBRANCH   7   8
ENDBRANCH   3   7
BRANCH   1  19
HETATM   19  C   UNL     1     -40.314  53.240 -52.859  1.00  0.00     0.119 C 
BRANCH  19  20
HETATM   20  C   UNL     1     -40.310  51.703 -52.925  1.00  0.00     0.025 C 
HETATM   21  C   UNL     1     -40.095  51.185 -54.341  1.00  0.00     0.007 C 
ENDBRANCH  19  20
BRANCH  19  22
HETATM   22  C   UNL     1     -40.691  53.722 -51.468  1.00  0.00    -0.033 A 
HETATM   23  C   UNL     1     -39.743  53.700 -50.438  1.00  0.00     0.028 A 
HETATM   24  C   UNL     1     -40.116  54.130 -49.174  1.00  0.00     0.116 A 
HETATM   25  N   UNL     1     -41.352  54.577 -48.866  1.00  0.00    -0.273 NA
HETATM   26  C   UNL     1     -42.252  54.599 -49.871  1.00  0.00     0.116 A 
HETATM   27  C   UNL     1     -41.976  54.187 -51.166  1.00  0.00     0.028 A 
ENDBRANCH  19  22
ENDBRANCH   1  19
TORSDOF 7
ENDMDL
MODEL 4
REMARK VINA RESULT:      -7.0      2.484      4.325
REMARK  7 active torsions:
REMARK  status: ('A' for Active; 'I' for Inactive)
REMARK    1  A    between atoms: C_2  and  C_3 
REMARK    2  A    between atoms: C_3  and  N_4 
REMARK    3  A    between atoms: C_3  and  C_20 
REMARK       I    between atoms: N_4  and  C_5 
REMARK       I    between atoms: C_5  and  N_6 
REMARK    4  A    between atoms: N_6  and  C_7 
REMARK    5  A    between atoms: C_7  and  C_8 
REMARK    6  A    between atoms: C_10  and  O_11 
REMARK    7  A    between atoms: O_11  and  C_12 
ROOT
HETATM    1  N   UNL     1     -41.767  55.141 -50.991  1.00  0.00    -0.334 N 
HETATM    2  C   UNL     1     -43.092  55.364 -50.807  1.00  0.00     0.316 C 
HETATM    3  N   UNL     1     -43.587  56.528 -51.292  1.00  0.00    -0.339 N 
HETATM    4  O   UNL     1     -43.845  54.587 -50.229  1.00  0.00    -0.247 OA
HETATM    5  H   UNL     1     -41.188  55.881 -51.350  1.00  0.00     0.165 HD
HETATM    6  H   UNL     1     -44.574  56.637 -51.096  1.00  0.00     0.164 HD
ENDROOT
BRANCH   3   7
HETATM    7  C   UNL     1     -42.966  57.515 -52.147  1.00  0.00     0.163 C 
BRANCH   7   8
HETATM    8  C   UNL     1     -43.489  57.540 -53.561  1.00  0.00    -0.035 A 
HETATM    9  C   UNL     1     -42.800  56.994 -54.649  1.00  0.00     0.066 A 
HETATM   10  C   UNL     1     -43.351  57.115 -55.917  1.00  0.00     0.164 A 
HETATM   11  N   UNL     1     -44.532  57.712 -56.175  1.00  0.00    -0.237 NA
HETATM   12  C   UNL     1     -45.191  58.220 -55.115  1.00  0.00     0.120 A 
HETATM   13  C   UNL     1     -44.719  58.161 -53.813  1.00  0.00     0.028 A 
BRANCH  10  14
HETATM   14  O   UNL     1     -42.620  56.588 -56.964  1.00  0.00    -0.329 OA
BRANCH  14  15
HETATM   15  C   UNL     1     -42.941  57.099 -58.277  1.00  0.00     0.130 C 
HETATM   16  C   UNL     1     -41.916  58.077 -58.914  1.00  0.00     0.032 C 
HETATM   17  C   UNL     1     -42.166  57.369 -60.257  1.00  0.00     0.005 C 
HETATM   18  C   UNL     1     -42.611  56.138 -59.449  1.00  0.00     0.032 C 
ENDBRANCH  14  15
ENDBRANCH  10  14
ENDBRANCH   7   8
ENDBRANCH   3   7
BRANCH   1  19
HETATM   19  C   UNL     1     -41.127  53.889 -50.618  1.00  0.00     0.119 C 
BRANCH  19  20
HETATM   20  C   UNL     1     -39.935  54.133 -49.675  1.00  0.00     0.025 C 
HETATM   21  C   UNL     1     -40.337  54.075 -48.207  1.00  0.00     0.007 C 
ENDBRANCH  19  20
BRANCH  19  22
HETATM   22  C   UNL     1     -40.689  53.136 -51.862  1.00  0.00    -0.033 A 
HETATM   23  C   UNL     1     -41.138  53.544 -53.123  1.00  0.00     0.028 A 
HETATM   24  C   UNL     1     -40.737  52.831 -54.242  1.00  0.00     0.116 A 
HETATM   25  N   UNL     1     -39.926  51.752 -54.195  1.00  0.00    -0.273 NA
HETATM   26  C   UNL     1     -39.495  51.376 -52.973  1.00  0.00     0.116 A 
HETATM   27  C   UNL     1     -39.844  52.021 -51.797  1.00  0.00     0.028 A 
ENDBRANCH  19  22
ENDBRANCH   1  19
TORSDOF 7
ENDMDL
MODEL 5
REMARK VINA RESULT:      -6.9      2.574      7.683
REMARK  7 active torsions:
REMARK  status: ('A' for Active; 'I' for Inactive)
REMARK    1  A    between atoms: C_2  and  C_3 
REMARK    2  A    between atoms: C_3  and  N_4 
REMARK    3  A    between atoms: C_3  and  C_20 
REMARK       I    between atoms: N_4  and  C_5 
REMARK       I    between atoms: C_5  and  N_6 
REMARK    4  A    between atoms: N_6  and  C_7 
REMARK    5  A    between atoms: C_7  and  C_8 
REMARK    6  A    between atoms: C_10  and  O_11 
REMARK    7  A    between atoms: O_11  and  C_12 
ROOT
HETATM    1  N   UNL     1     -42.666  57.775 -55.400  1.00  0.00    -0.334 N 
HETATM    2  C   UNL     1     -41.803  58.156 -54.426  1.00  0.00     0.316 C 
HETATM    3  N   UNL     1     -41.553  57.255 -53.446  1.00  0.00    -0.339 N 
HETATM    4  O   UNL     1     -41.256  59.254 -54.385  1.00  0.00    -0.247 OA
HETATM    5  H   UNL     1     -43.179  56.916 -55.295  1.00  0.00     0.165 HD
HETATM    6  H   UNL     1     -40.921  57.617 -52.743  1.00  0.00     0.164 HD
ENDROOT
BRANCH   3   7
HETATM    7  C   UNL     1     -41.921  55.860 -53.354  1.00  0.00     0.163 C 
BRANCH   7   8
HETATM    8  C   UNL     1     -41.186  55.085 -52.290  1.00  0.00    -0.035 A 
HETATM    9  C   UNL     1     -40.573  53.849 -52.521  1.00  0.00     0.066 A 
HETATM   10  C   UNL     1     -39.964  53.197 -51.457  1.00  0.00     0.164 A 
HETATM   11  N   UNL     1     -39.902  53.689 -50.203  1.00  0.00    -0.237 NA
HETATM   12  C   UNL     1     -40.484  54.887 -50.000  1.00  0.00     0.120 A 
HETATM   13  C   UNL     1     -41.128  55.610 -50.993  1.00  0.00     0.028 A 
BRANCH  10  14
HETATM   14  O   UNL     1     -39.399  51.965 -51.726  1.00  0.00    -0.329 OA
BRANCH  14  15
HETATM   15  C   UNL     1     -40.056  51.179 -52.745  1.00  0.00     0.130 C 
HETATM   16  C   UNL     1     -39.476  51.276 -54.183  1.00  0.00     0.032 C 
HETATM   17  C   UNL     1     -39.712  49.762 -54.316  1.00  0.00     0.005 C 
HETATM   18  C   UNL     1     -39.645  49.683 -52.781  1.00  0.00     0.032 C 
ENDBRANCH  14  15
ENDBRANCH  10  14
ENDBRANCH   7   8
ENDBRANCH   3   7
BRANCH   1  19
HETATM   19  C   UNL     1     -42.940  58.600 -56.566  1.00  0.00     0.119 C 
BRANCH  19  20
HETATM   20  C   UNL     1     -44.371  59.166 -56.523  1.00  0.00     0.025 C 
HETATM   21  C   UNL     1     -45.224  58.502 -55.450  1.00  0.00     0.007 C 
ENDBRANCH  19  20
BRANCH  19  22
HETATM   22  C   UNL     1     -42.713  57.799 -57.837  1.00  0.00    -0.033 A 
HETATM   23  C   UNL     1     -41.971  58.348 -58.889  1.00  0.00     0.028 A 
HETATM   24  C   UNL     1     -41.791  57.603 -60.044  1.00  0.00     0.116 A 
HETATM   25  N   UNL     1     -42.291  56.362 -60.224  1.00  0.00    -0.273 NA
HETATM   26  C   UNL     1     -42.998  55.843 -59.198  1.00  0.00     0.116 A 
HETATM   27  C   UNL     1     -43.236  56.510 -58.007  1.00  0.00     0.028 A 
ENDBRANCH  19  22
ENDBRANCH   1  19
TORSDOF 7
ENDMDL
MODEL 6
REMARK VINA RESULT:      -6.9      2.676      4.604
REMARK  7 active torsions:
REMARK  status: ('A' for Active; 'I' for Inactive)
REMARK    1  A    between atoms: C_2  and  C_3 
REMARK    2  A    between atoms: C_3  and  N_4 
REMARK    3  A    between atoms: C_3  and  C_20 
REMARK       I    between atoms: N_4  and  C_5 
REMARK       I    between atoms: C_5  and  N_6 
REMARK    4  A    between atoms: N_6  and  C_7 
REMARK    5  A    between atoms: C_7  and  C_8 
REMARK    6  A    between atoms: C_10  and  O_11 
REMARK    7  A    between atoms: O_11  and  C_12 
ROOT
HETATM    1  N   UNL     1     -41.846  54.930 -51.179  1.00  0.00    -0.334 N 
HETATM    2  C   UNL     1     -43.197  55.010 -51.269  1.00  0.00     0.316 C 
HETATM    3  N   UNL     1     -43.697  55.979 -52.072  1.00  0.00    -0.339 N 
HETATM    4  O   UNL     1     -43.970  54.270 -50.669  1.00  0.00    -0.247 OA
HETATM    5  H   UNL     1     -41.281  55.652 -51.589  1.00  0.00     0.165 HD
HETATM    6  H   UNL     1     -44.709  55.995 -52.071  1.00  0.00     0.164 HD
ENDROOT
BRANCH   3   7
HETATM    7  C   UNL     1     -43.020  56.849 -53.007  1.00  0.00     0.163 C 
BRANCH   7   8
HETATM    8  C   UNL     1     -43.062  56.385 -54.441  1.00  0.00    -0.035 A 
HETATM    9  C   UNL     1     -43.470  57.198 -55.504  1.00  0.00     0.066 A 
HETATM   10  C   UNL     1     -43.518  56.656 -56.780  1.00  0.00     0.164 A 
HETATM   11  N   UNL     1     -43.171  55.386 -57.076  1.00  0.00    -0.237 NA
HETATM   12  C   UNL     1     -42.765  54.620 -56.045  1.00  0.00     0.120 A 
HETATM   13  C   UNL     1     -42.696  55.066 -54.733  1.00  0.00     0.028 A 
BRANCH  10  14
HETATM   14  O   UNL     1     -43.957  57.487 -57.792  1.00  0.00    -0.329 OA
BRANCH  14  15
HETATM   15  C   UNL     1     -43.191  57.449 -59.017  1.00  0.00     0.130 C 
HETATM   16  C   UNL     1     -43.623  58.430 -60.141  1.00  0.00     0.032 C 
HETATM   17  C   UNL     1     -42.129  58.668 -60.424  1.00  0.00     0.005 C 
HETATM   18  C   UNL     1     -41.853  58.232 -58.974  1.00  0.00     0.032 C 
ENDBRANCH  14  15
ENDBRANCH  10  14
ENDBRANCH   7   8
ENDBRANCH   3   7
BRANCH   1  19
HETATM   19  C   UNL     1     -41.175  53.871 -50.440  1.00  0.00     0.119 C 
BRANCH  19  20
HETATM   20  C   UNL     1     -40.097  54.444 -49.503  1.00  0.00     0.025 C 
HETATM   21  C   UNL     1     -40.305  54.020 -48.055  1.00  0.00     0.007 C 
ENDBRANCH  19  20
BRANCH  19  22
HETATM   22  C   UNL     1     -40.574  52.862 -51.404  1.00  0.00    -0.033 A 
HETATM   23  C   UNL     1     -40.003  51.681 -50.917  1.00  0.00     0.028 A 
HETATM   24  C   UNL     1     -39.447  50.784 -51.816  1.00  0.00     0.116 A 
HETATM   25  N   UNL     1     -39.421  50.976 -53.151  1.00  0.00    -0.273 NA
HETATM   26  C   UNL     1     -39.982  52.116 -53.607  1.00  0.00     0.116 A 
HETATM   27  C   UNL     1     -40.558  53.075 -52.788  1.00  0.00     0.028 A 
ENDBRANCH  19  22
ENDBRANCH   1  19
TORSDOF 7
ENDMDL
MODEL 7
REMARK VINA RESULT:      -6.8      3.706      5.910
REMARK  7 active torsions:
REMARK  status: ('A' for Active; 'I' for Inactive)
REMARK    1  A    between atoms: C_2  and  C_3 
REMARK    2  A    between atoms: C_3  and  N_4 
REMARK    3  A    between atoms: C_3  and  C_20 
REMARK       I    between atoms: N_4  and  C_5 
REMARK       I    between atoms: C_5  and  N_6 
REMARK    4  A    between atoms: N_6  and  C_7 
REMARK    5  A    between atoms: C_7  and  C_8 
REMARK    6  A    between atoms: C_10  and  O_11 
REMARK    7  A    between atoms: O_11  and  C_12 
ROOT
HETATM    1  N   UNL     1     -41.346  53.849 -54.919  1.00  0.00    -0.334 N 
HETATM    2  C   UNL     1     -41.023  55.148 -55.139  1.00  0.00     0.316 C 
HETATM    3  N   UNL     1     -41.800  55.829 -56.014  1.00  0.00    -0.339 N 
HETATM    4  O   UNL     1     -40.080  55.721 -54.602  1.00  0.00    -0.247 OA
HETATM    5  H   UNL     1     -42.044  53.411 -55.494  1.00  0.00     0.165 HD
HETATM    6  H   UNL     1     -41.486  56.781 -56.148  1.00  0.00     0.164 HD
ENDROOT
BRANCH   3   7
HETATM    7  C   UNL     1     -43.050  55.448 -56.635  1.00  0.00     0.163 C 
BRANCH   7   8
HETATM    8  C   UNL     1     -43.157  55.799 -58.097  1.00  0.00    -0.035 A 
HETATM    9  C   UNL     1     -42.419  56.823 -58.701  1.00  0.00     0.066 A 
HETATM   10  C   UNL     1     -42.631  57.095 -60.046  1.00  0.00     0.164 A 
HETATM   11  N   UNL     1     -43.496  56.417 -60.828  1.00  0.00    -0.237 NA
HETATM   12  C   UNL     1     -44.188  55.425 -60.236  1.00  0.00     0.120 A 
HETATM   13  C   UNL     1     -44.058  55.085 -58.897  1.00  0.00     0.028 A 
BRANCH  10  14
HETATM   14  O   UNL     1     -41.902  58.134 -60.591  1.00  0.00    -0.329 OA
BRANCH  14  15
HETATM   15  C   UNL     1     -42.490  59.448 -60.470  1.00  0.00     0.130 C 
HETATM   16  C   UNL     1     -41.922  60.366 -59.353  1.00  0.00     0.032 C 
HETATM   17  C   UNL     1     -42.027  61.537 -60.345  1.00  0.00     0.005 C 
HETATM   18  C   UNL     1     -41.952  60.498 -61.477  1.00  0.00     0.032 C 
ENDBRANCH  14  15
ENDBRANCH  10  14
ENDBRANCH   7   8
ENDBRANCH   3   7
BRANCH   1  19
HETATM   19  C   UNL     1     -40.665  53.033 -53.925  1.00  0.00     0.119 C 
BRANCH  19  20
HETATM   20  C   UNL     1     -40.929  51.536 -54.160  1.00  0.00     0.025 C 
HETATM   21  C   UNL     1     -39.667  50.696 -54.015  1.00  0.00     0.007 C 
ENDBRANCH  19  20
BRANCH  19  22
HETATM   22  C   UNL     1     -41.094  53.447 -52.528  1.00  0.00    -0.033 A 
HETATM   23  C   UNL     1     -42.414  53.847 -52.289  1.00  0.00     0.028 A 
HETATM   24  C   UNL     1     -42.776  54.235 -51.009  1.00  0.00     0.116 A 
HETATM   25  N   UNL     1     -41.927  54.251 -49.959  1.00  0.00    -0.273 NA
HETATM   26  C   UNL     1     -40.660  53.855 -50.203  1.00  0.00     0.116 A 
HETATM   27  C   UNL     1     -40.201  53.454 -51.448  1.00  0.00     0.028 A 
ENDBRANCH  19  22
ENDBRANCH   1  19
TORSDOF 7
ENDMDL
MODEL 8
REMARK VINA RESULT:      -6.8      2.787      8.030
REMARK  7 active torsions:
REMARK  status: ('A' for Active; 'I' for Inactive)
REMARK    1  A    between atoms: C_2  and  C_3 
REMARK    2  A    between atoms: C_3  and  N_4 
REMARK    3  A    between atoms: C_3  and  C_20 
REMARK       I    between atoms: N_4  and  C_5 
REMARK       I    between atoms: C_5  and  N_6 
REMARK    4  A    between atoms: N_6  and  C_7 
REMARK    5  A    between atoms: C_7  and  C_8 
REMARK    6  A    between atoms: C_10  and  O_11 
REMARK    7  A    between atoms: O_11  and  C_12 
ROOT
HETATM    1  N   UNL     1     -43.146  57.465 -52.264  1.00  0.00    -0.334 N 
HETATM    2  C   UNL     1     -43.622  56.497 -53.086  1.00  0.00     0.316 C 
HETATM    3  N   UNL     1     -43.688  55.244 -52.577  1.00  0.00    -0.339 N 
HETATM    4  O   UNL     1     -43.980  56.693 -54.243  1.00  0.00    -0.247 OA
HETATM    5  H   UNL     1     -42.745  57.207 -51.380  1.00  0.00     0.165 HD
HETATM    6  H   UNL     1     -44.028  54.571 -53.252  1.00  0.00     0.164 HD
ENDROOT
BRANCH   3   7
HETATM    7  C   UNL     1     -43.499  54.784 -51.219  1.00  0.00     0.163 C 
BRANCH   7   8
HETATM    8  C   UNL     1     -42.080  54.410 -50.874  1.00  0.00    -0.035 A 
HETATM    9  C   UNL     1     -41.319  53.500 -51.617  1.00  0.00     0.066 A 
HETATM   10  C   UNL     1     -40.038  53.191 -51.183  1.00  0.00     0.164 A 
HETATM   11  N   UNL     1     -39.457  53.730 -50.091  1.00  0.00    -0.237 NA
HETATM   12  C   UNL     1     -40.196  54.615 -49.395  1.00  0.00     0.120 A 
HETATM   13  C   UNL     1     -41.490  54.980 -49.740  1.00  0.00     0.028 A 
BRANCH  10  14
HETATM   14  O   UNL     1     -39.336  52.264 -51.930  1.00  0.00    -0.329 OA
BRANCH  14  15
HETATM   15  C   UNL     1     -40.131  51.407 -52.780  1.00  0.00     0.130 C 
HETATM   16  C   UNL     1     -39.889  51.522 -54.309  1.00  0.00     0.032 C 
HETATM   17  C   UNL     1     -40.021  49.991 -54.385  1.00  0.00     0.005 C 
HETATM   18  C   UNL     1     -39.615  49.950 -52.902  1.00  0.00     0.032 C 
ENDBRANCH  14  15
ENDBRANCH  10  14
ENDBRANCH   7   8
ENDBRANCH   3   7
BRANCH   1  19
HETATM   19  C   UNL     1     -43.122  58.869 -52.644  1.00  0.00     0.119 C 
BRANCH  19  20
HETATM   20  C   UNL     1     -41.738  59.491 -52.389  1.00  0.00     0.025 C 
HETATM   21  C   UNL     1     -40.628  58.756 -53.128  1.00  0.00     0.007 C 
ENDBRANCH  19  20
BRANCH  19  22
HETATM   22  C   UNL     1     -44.205  59.630 -51.897  1.00  0.00    -0.033 A 
HETATM   23  C   UNL     1     -45.502  59.695 -52.418  1.00  0.00     0.028 A 
HETATM   24  C   UNL     1     -46.468  60.409 -51.726  1.00  0.00     0.116 A 
HETATM   25  N   UNL     1     -46.237  61.054 -50.563  1.00  0.00    -0.273 NA
HETATM   26  C   UNL     1     -44.983  60.976 -50.069  1.00  0.00     0.116 A 
HETATM   27  C   UNL     1     -43.949  60.291 -50.690  1.00  0.00     0.028 A 
ENDBRANCH  19  22
ENDBRANCH   1  19
TORSDOF 7
ENDMDL
MODEL 9
REMARK VINA RESULT:      -6.8      3.857      5.625
REMARK  7 active torsions:
REMARK  status: ('A' for Active; 'I' for Inactive)
REMARK    1  A    between atoms: C_2  and  C_3 
REMARK    2  A    between atoms: C_3  and  N_4 
REMARK    3  A    between atoms: C_3  and  C_20 
REMARK       I    between atoms: N_4  and  C_5 
REMARK       I    between atoms: C_5  and  N_6 
REMARK    4  A    between atoms: N_6  and  C_7 
REMARK    5  A    between atoms: C_7  and  C_8 
REMARK    6  A    between atoms: C_10  and  O_11 
REMARK    7  A    between atoms: O_11  and  C_12 
ROOT
HETATM    1  N   UNL     1     -42.230  55.219 -54.217  1.00  0.00    -0.334 N 
HETATM    2  C   UNL     1     -43.400  55.777 -54.615  1.00  0.00     0.316 C 
HETATM    3  N   UNL     1     -43.591  55.907 -55.949  1.00  0.00    -0.339 N 
HETATM    4  O   UNL     1     -44.271  56.168 -53.844  1.00  0.00    -0.247 OA
HETATM    5  H   UNL     1     -41.509  55.050 -54.896  1.00  0.00     0.165 HD
HETATM    6  H   UNL     1     -44.472  56.353 -56.170  1.00  0.00     0.164 HD
ENDROOT
BRANCH   3   7
HETATM    7  C   UNL     1     -42.818  55.380 -57.052  1.00  0.00     0.163 C 
BRANCH   7   8
HETATM    8  C   UNL     1     -43.354  55.726 -58.417  1.00  0.00    -0.035 A 
HETATM    9  C   UNL     1     -43.233  56.995 -58.994  1.00  0.00     0.066 A 
HETATM   10  C   UNL     1     -43.806  57.220 -60.239  1.00  0.00     0.164 A 
HETATM   11  N   UNL     1     -44.462  56.281 -60.951  1.00  0.00    -0.237 NA
HETATM   12  C   UNL     1     -44.556  55.060 -60.389  1.00  0.00     0.120 A 
HETATM   13  C   UNL     1     -44.030  54.740 -59.146  1.00  0.00     0.028 A 
BRANCH  10  14
HETATM   14  O   UNL     1     -43.688  58.496 -60.755  1.00  0.00    -0.329 OA
BRANCH  14  15
HETATM   15  C   UNL     1     -42.560  59.265 -60.282  1.00  0.00     0.130 C 
HETATM   16  C   UNL     1     -41.833  60.152 -61.330  1.00  0.00     0.032 C 
HETATM   17  C   UNL     1     -41.713  61.234 -60.242  1.00  0.00     0.005 C 
HETATM   18  C   UNL     1     -42.930  60.587 -59.558  1.00  0.00     0.032 C 
ENDBRANCH  14  15
ENDBRANCH  10  14
ENDBRANCH   7   8
ENDBRANCH   3   7
BRANCH   1  19
HETATM   19  C   UNL     1     -41.941  54.922 -52.822  1.00  0.00     0.119 C 
BRANCH  19  20
HETATM   20  C   UNL     1     -41.298  56.129 -52.118  1.00  0.00     0.025 C 
HETATM   21  C   UNL     1     -42.154  56.655 -50.973  1.00  0.00     0.007 C 
ENDBRANCH  19  20
BRANCH  19  22
HETATM   22  C   UNL     1     -41.047  53.698 -52.724  1.00  0.00    -0.033 A 
HETATM   23  C   UNL     1     -40.540  53.298 -51.482  1.00  0.00     0.028 A 
HETATM   24  C   UNL     1     -39.713  52.187 -51.422  1.00  0.00     0.116 A 
HETATM   25  N   UNL     1     -39.360  51.452 -52.498  1.00  0.00    -0.273 NA
HETATM   26  C   UNL     1     -39.863  51.845 -53.687  1.00  0.00     0.116 A 
HETATM   27  C   UNL     1     -40.694  52.944 -53.850  1.00  0.00     0.028 A 
ENDBRANCH  19  22
ENDBRANCH   1  19
TORSDOF 7
ENDMDL
MODEL 10
REMARK VINA RESULT:      -6.8      2.156      2.745
REMARK  7 active torsions:
REMARK  status: ('A' for Active; 'I' for Inactive)
REMARK    1  A    between atoms: C_2  and  C_3 
REMARK    2  A    between atoms: C_3  and  N_4 
REMARK    3  A    between atoms: C_3  and  C_20 
REMARK       I    between atoms: N_4  and  C_5 
REMARK       I    between atoms: C_5  and  N_6 
REMARK    4  A    between atoms: N_6  and  C_7 
REMARK    5  A    between atoms: C_7  and  C_8 
REMARK    6  A    between atoms: C_10  and  O_11 
REMARK    7  A    between atoms: O_11  and  C_12 
ROOT
HETATM    1  N   UNL     1     -42.122  54.859 -51.491  1.00  0.00    -0.334 N 
HETATM    2  C   UNL     1     -43.416  55.096 -51.164  1.00  0.00     0.316 C 
HETATM    3  N   UNL     1     -44.092  55.969 -51.948  1.00  0.00    -0.339 N 
HETATM    4  O   UNL     1     -43.990  54.576 -50.212  1.00  0.00    -0.247 OA
HETATM    5  H   UNL     1     -41.681  55.422 -52.198  1.00  0.00     0.165 HD
HETATM    6  H   UNL     1     -45.042  56.116 -51.630  1.00  0.00     0.164 HD
ENDROOT
BRANCH   3   7
HETATM    7  C   UNL     1     -43.713  56.572 -53.207  1.00  0.00     0.163 C 
BRANCH   7   8
HETATM    8  C   UNL     1     -42.998  57.893 -53.081  1.00  0.00    -0.035 A 
HETATM    9  C   UNL     1     -42.967  58.644 -51.901  1.00  0.00     0.066 A 
HETATM   10  C   UNL     1     -42.320  59.872 -51.907  1.00  0.00     0.164 A 
HETATM   11  N   UNL     1     -41.691  60.390 -52.982  1.00  0.00    -0.237 NA
HETATM   12  C   UNL     1     -41.716  59.648 -54.106  1.00  0.00     0.120 A 
HETATM   13  C   UNL     1     -42.346  58.417 -54.204  1.00  0.00     0.028 A 
BRANCH  10  14
HETATM   14  O   UNL     1     -42.343  60.592 -50.728  1.00  0.00    -0.329 OA
BRANCH  14  15
HETATM   15  C   UNL     1     -43.485  61.457 -50.540  1.00  0.00     0.130 C 
HETATM   16  C   UNL     1     -44.154  61.434 -49.138  1.00  0.00     0.032 C 
HETATM   17  C   UNL     1     -44.315  62.959 -49.256  1.00  0.00     0.005 C 
HETATM   18  C   UNL     1     -43.139  62.940 -50.247  1.00  0.00     0.032 C 
ENDBRANCH  14  15
ENDBRANCH  10  14
ENDBRANCH   7   8
ENDBRANCH   3   7
BRANCH   1  19
HETATM   19  C   UNL     1     -41.312  53.865 -50.803  1.00  0.00     0.119 C 
BRANCH  19  20
HETATM   20  C   UNL     1     -40.266  54.533 -49.893  1.00  0.00     0.025 C 
HETATM   21  C   UNL     1     -40.602  54.380 -48.416  1.00  0.00     0.007 C 
ENDBRANCH  19  20
BRANCH  19  22
HETATM   22  C   UNL     1     -40.645  52.946 -51.812  1.00  0.00    -0.033 A 
HETATM   23  C   UNL     1     -39.899  51.846 -51.373  1.00  0.00     0.028 A 
HETATM   24  C   UNL     1     -39.287  51.032 -52.313  1.00  0.00     0.116 A 
HETATM   25  N   UNL     1     -39.365  51.231 -53.645  1.00  0.00    -0.273 NA
HETATM   26  C   UNL     1     -40.094  52.291 -54.054  1.00  0.00     0.116 A 
HETATM   27  C   UNL     1     -40.740  53.164 -53.192  1.00  0.00     0.028 A 
ENDBRANCH  19  22
ENDBRANCH   1  19
TORSDOF 7
ENDMDL
