MODEL 1
REMARK VINA RESULT:      -9.0      0.000      0.000
REMARK  5 active torsions:
REMARK  status: ('A' for Active; 'I' for Inactive)
REMARK    1  A    between atoms: C_3  and  O_4 
REMARK    2  A    between atoms: C_6  and  N_7 
REMARK       I    between atoms: N_7  and  C_8 
REMARK    3  A    between atoms: C_8  and  C_9 
REMARK    4  A    between atoms: C_12  and  C_13 
REMARK    5  A    between atoms: C_18  and  C_19 
ROOT
HETATM    1  C   UNL     1     -42.820  58.186 -56.515  1.00  0.00     0.096 A 
HETATM    2  C   UNL     1     -42.962  57.449 -55.352  1.00  0.00     0.138 A 
HETATM    3  N   UNL     1     -42.444  58.231 -54.349  1.00  0.00    -0.240 N 
HETATM    4  C   UNL     1     -42.382  57.854 -52.951  1.00  0.00     0.221 C 
HETATM    5  C   UNL     1     -43.310  56.657 -52.677  1.00  0.00     0.066 C 
HETATM    6  C   UNL     1     -43.314  55.587 -53.783  1.00  0.00     0.118 C 
HETATM    7  N   UNL     1     -43.464  56.211 -55.100  1.00  0.00    -0.365 N 
HETATM    8  N   UNL     1     -42.007  59.429 -54.766  1.00  0.00    -0.181 NA
HETATM    9  C   UNL     1     -42.189  59.379 -56.090  1.00  0.00     0.160 A 
HETATM   10  H   UNL     1     -43.497  55.525 -55.859  1.00  0.00     0.161 HD
ENDROOT
BRANCH   1  11
HETATM   11  C   UNL     1     -43.208  57.840 -57.872  1.00  0.00     0.261 C 
HETATM   12  N   UNL     1     -44.518  57.405 -57.961  1.00  0.00    -0.323 N 
HETATM   13  H   UNL     1     -45.070  57.529 -57.120  1.00  0.00     0.169 HD
HETATM   14  O   UNL     1     -42.427  57.984 -58.804  1.00  0.00    -0.267 OA
BRANCH  12  15
HETATM   15  C   UNL     1     -45.188  56.898 -59.090  1.00  0.00     0.037 A 
HETATM   16  C   UNL     1     -44.662  55.921 -59.935  1.00  0.00     0.066 A 
HETATM   17  C   UNL     1     -45.415  55.458 -61.014  1.00  0.00     0.067 A 
HETATM   18  C   UNL     1     -46.686  55.958 -61.274  1.00  0.00     0.036 A 
HETATM   19  C   UNL     1     -47.216  56.934 -60.434  1.00  0.00     0.005 A 
HETATM   20  C   UNL     1     -46.473  57.398 -59.345  1.00  0.00     0.029 A 
BRANCH  17  21
HETATM   21  O   UNL     1     -44.865  54.490 -61.803  1.00  0.00    -0.361 OA
HETATM   22  H   UNL     1     -44.561  53.760 -61.241  1.00  0.00     0.217 HD
ENDBRANCH  17  21
ENDBRANCH  12  15
ENDBRANCH   1  11
BRANCH   4  23
HETATM   23  C   UNL     1     -40.948  57.628 -52.523  1.00  0.00     0.409 C 
HETATM   24  F   UNL     1     -40.308  58.753 -52.151  1.00  0.00    -0.169 F 
HETATM   25  F   UNL     1     -40.851  56.747 -51.502  1.00  0.00    -0.169 F 
HETATM   26  F   UNL     1     -40.238  57.091 -53.551  1.00  0.00    -0.169 F 
ENDBRANCH   4  23
BRANCH   6  27
HETATM   27  C   UNL     1     -42.174  54.583 -53.723  1.00  0.00    -0.035 A 
HETATM   28  C   UNL     1     -41.897  53.943 -52.498  1.00  0.00     0.012 A 
HETATM   29  C   UNL     1     -40.875  52.996 -52.395  1.00  0.00     0.043 A 
HETATM   30  C   UNL     1     -40.119  52.679 -53.515  1.00  0.00     0.116 A 
HETATM   31  F   UNL     1     -39.140  51.770 -53.416  1.00  0.00    -0.206 F 
HETATM   32  C   UNL     1     -40.368  53.289 -54.736  1.00  0.00     0.043 A 
HETATM   33  C   UNL     1     -41.393  54.232 -54.841  1.00  0.00     0.012 A 
ENDBRANCH   6  27
TORSDOF 5
ENDMDL
MODEL 2
REMARK VINA RESULT:      -8.9      1.847      2.512
REMARK  5 active torsions:
REMARK  status: ('A' for Active; 'I' for Inactive)
REMARK    1  A    between atoms: C_3  and  O_4 
REMARK    2  A    between atoms: C_6  and  N_7 
REMARK       I    between atoms: N_7  and  C_8 
REMARK    3  A    between atoms: C_8  and  C_9 
REMARK    4  A    between atoms: C_12  and  C_13 
REMARK    5  A    between atoms: C_18  and  C_19 
ROOT
HETATM    1  C   UNL     1     -43.857  57.683 -54.221  1.00  0.00     0.096 A 
HETATM    2  C   UNL     1     -43.652  56.743 -53.226  1.00  0.00     0.138 A 
HETATM    3  N   UNL     1     -43.017  57.410 -52.207  1.00  0.00    -0.240 N 
HETATM    4  C   UNL     1     -42.604  56.810 -50.954  1.00  0.00     0.221 C 
HETATM    5  C   UNL     1     -43.304  55.455 -50.751  1.00  0.00     0.066 C 
HETATM    6  C   UNL     1     -43.430  54.606 -52.028  1.00  0.00     0.118 C 
HETATM    7  N   UNL     1     -43.940  55.417 -53.136  1.00  0.00    -0.365 N 
HETATM    8  N   UNL     1     -42.824  58.715 -52.451  1.00  0.00    -0.181 NA
HETATM    9  C   UNL     1     -43.288  58.868 -53.695  1.00  0.00     0.160 A 
HETATM   10  H   UNL     1     -44.062  54.876 -53.996  1.00  0.00     0.161 HD
ENDROOT
BRANCH   1  11
HETATM   11  C   UNL     1     -44.495  57.521 -55.517  1.00  0.00     0.261 C 
HETATM   12  N   UNL     1     -43.640  57.008 -56.475  1.00  0.00    -0.323 N 
HETATM   13  H   UNL     1     -42.751  56.671 -56.122  1.00  0.00     0.169 HD
HETATM   14  O   UNL     1     -45.679  57.788 -55.670  1.00  0.00    -0.267 OA
BRANCH  12  15
HETATM   15  C   UNL     1     -43.890  56.819 -57.847  1.00  0.00     0.037 A 
HETATM   16  C   UNL     1     -44.402  57.806 -58.689  1.00  0.00     0.066 A 
HETATM   17  C   UNL     1     -44.587  57.535 -60.044  1.00  0.00     0.067 A 
HETATM   18  C   UNL     1     -44.277  56.290 -60.580  1.00  0.00     0.036 A 
HETATM   19  C   UNL     1     -43.766  55.300 -59.744  1.00  0.00     0.005 A 
HETATM   20  C   UNL     1     -43.569  55.565 -58.386  1.00  0.00     0.029 A 
BRANCH  17  21
HETATM   21  O   UNL     1     -45.076  58.538 -60.831  1.00  0.00    -0.361 OA
HETATM   22  H   UNL     1     -44.791  58.387 -61.746  1.00  0.00     0.217 HD
ENDBRANCH  17  21
ENDBRANCH  12  15
ENDBRANCH   1  11
BRANCH   4  23
HETATM   23  C   UNL     1     -41.094  56.739 -50.870  1.00  0.00     0.409 C 
HETATM   24  F   UNL     1     -40.515  57.898 -50.504  1.00  0.00    -0.169 F 
HETATM   25  F   UNL     1     -40.673  55.783 -50.011  1.00  0.00    -0.169 F 
HETATM   26  F   UNL     1     -40.579  56.405 -52.084  1.00  0.00    -0.169 F 
ENDBRANCH   4  23
BRANCH   6  27
HETATM   27  C   UNL     1     -42.198  53.795 -52.397  1.00  0.00    -0.035 A 
HETATM   28  C   UNL     1     -41.882  53.623 -53.760  1.00  0.00     0.012 A 
HETATM   29  C   UNL     1     -40.749  52.905 -54.151  1.00  0.00     0.043 A 
HETATM   30  C   UNL     1     -39.920  52.352 -53.185  1.00  0.00     0.116 A 
HETATM   31  F   UNL     1     -38.834  51.665 -53.561  1.00  0.00    -0.206 F 
HETATM   32  C   UNL     1     -40.202  52.505 -51.836  1.00  0.00     0.043 A 
HETATM   33  C   UNL     1     -41.333  53.227 -51.443  1.00  0.00     0.012 A 
ENDBRANCH   6  27
TORSDOF 5
ENDMDL
MODEL 3
REMARK VINA RESULT:      -8.6      4.308      7.507
REMARK  5 active torsions:
REMARK  status: ('A' for Active; 'I' for Inactive)
REMARK    1  A    between atoms: C_3  and  O_4 
REMARK    2  A    between atoms: C_6  and  N_7 
REMARK       I    between atoms: N_7  and  C_8 
REMARK    3  A    between atoms: C_8  and  C_9 
REMARK    4  A    between atoms: C_12  and  C_13 
REMARK    5  A    between atoms: C_18  and  C_19 
ROOT
HETATM    1  C   UNL     1     -41.449  55.678 -51.328  1.00  0.00     0.096 A 
HETATM    2  C   UNL     1     -41.336  56.706 -52.247  1.00  0.00     0.138 A 
HETATM    3  N   UNL     1     -41.283  57.863 -51.510  1.00  0.00    -0.240 N 
HETATM    4  C   UNL     1     -41.166  59.197 -52.064  1.00  0.00     0.221 C 
HETATM    5  C   UNL     1     -40.719  59.128 -53.535  1.00  0.00     0.066 C 
HETATM    6  C   UNL     1     -41.366  57.991 -54.345  1.00  0.00     0.118 C 
HETATM    7  N   UNL     1     -41.293  56.729 -53.606  1.00  0.00    -0.365 N 
HETATM    8  N   UNL     1     -41.320  57.662 -50.183  1.00  0.00    -0.181 NA
HETATM    9  C   UNL     1     -41.473  56.338 -50.076  1.00  0.00     0.160 A 
HETATM   10  H   UNL     1     -41.691  55.944 -54.128  1.00  0.00     0.161 HD
ENDROOT
BRANCH   1  11
HETATM   11  C   UNL     1     -41.535  54.246 -51.561  1.00  0.00     0.261 C 
HETATM   12  N   UNL     1     -40.346  53.704 -52.014  1.00  0.00    -0.323 N 
HETATM   13  H   UNL     1     -39.548  54.328 -51.976  1.00  0.00     0.169 HD
HETATM   14  O   UNL     1     -42.566  53.632 -51.320  1.00  0.00    -0.267 OA
BRANCH  12  15
HETATM   15  C   UNL     1     -40.099  52.383 -52.433  1.00  0.00     0.037 A 
HETATM   16  C   UNL     1     -39.730  51.350 -51.572  1.00  0.00     0.066 A 
HETATM   17  C   UNL     1     -39.537  50.063 -52.076  1.00  0.00     0.067 A 
HETATM   18  C   UNL     1     -39.698  49.786 -53.429  1.00  0.00     0.036 A 
HETATM   19  C   UNL     1     -40.066  50.815 -54.293  1.00  0.00     0.005 A 
HETATM   20  C   UNL     1     -40.271  52.105 -53.797  1.00  0.00     0.029 A 
BRANCH  17  21
HETATM   21  O   UNL     1     -39.191  49.081 -51.193  1.00  0.00    -0.361 OA
HETATM   22  H   UNL     1     -39.871  48.390 -51.208  1.00  0.00     0.217 HD
ENDBRANCH  17  21
ENDBRANCH  12  15
ENDBRANCH   1  11
BRANCH   4  23
HETATM   23  C   UNL     1     -42.443  59.978 -51.848  1.00  0.00     0.409 C 
HETATM   24  F   UNL     1     -43.550  59.212 -51.815  1.00  0.00    -0.169 F 
HETATM   25  F   UNL     1     -42.415  60.702 -50.706  1.00  0.00    -0.169 F 
HETATM   26  F   UNL     1     -42.613  60.875 -52.857  1.00  0.00    -0.169 F 
ENDBRANCH   4  23
BRANCH   6  27
HETATM   27  C   UNL     1     -42.754  58.286 -54.890  1.00  0.00    -0.035 A 
HETATM   28  C   UNL     1     -42.916  59.359 -55.791  1.00  0.00     0.012 A 
HETATM   29  C   UNL     1     -44.166  59.658 -56.336  1.00  0.00     0.043 A 
HETATM   30  C   UNL     1     -45.267  58.889 -55.990  1.00  0.00     0.116 A 
HETATM   31  F   UNL     1     -46.466  59.176 -56.514  1.00  0.00    -0.206 F 
HETATM   32  C   UNL     1     -45.141  57.825 -55.108  1.00  0.00     0.043 A 
HETATM   33  C   UNL     1     -43.891  57.522 -54.565  1.00  0.00     0.012 A 
ENDBRANCH   6  27
TORSDOF 5
ENDMDL
MODEL 4
REMARK VINA RESULT:      -8.5      1.330      2.059
REMARK  5 active torsions:
REMARK  status: ('A' for Active; 'I' for Inactive)
REMARK    1  A    between atoms: C_3  and  O_4 
REMARK    2  A    between atoms: C_6  and  N_7 
REMARK       I    between atoms: N_7  and  C_8 
REMARK    3  A    between atoms: C_8  and  C_9 
REMARK    4  A    between atoms: C_12  and  C_13 
REMARK    5  A    between atoms: C_18  and  C_19 
ROOT
HETATM    1  C   UNL     1     -42.665  58.022 -55.250  1.00  0.00     0.096 A 
HETATM    2  C   UNL     1     -42.967  57.209 -54.172  1.00  0.00     0.138 A 
HETATM    3  N   UNL     1     -42.703  57.958 -53.053  1.00  0.00    -0.240 N 
HETATM    4  C   UNL     1     -42.875  57.501 -51.688  1.00  0.00     0.221 C 
HETATM    5  C   UNL     1     -43.747  56.233 -51.653  1.00  0.00     0.066 C 
HETATM    6  C   UNL     1     -43.467  55.235 -52.790  1.00  0.00     0.118 C 
HETATM    7  N   UNL     1     -43.415  55.928 -54.080  1.00  0.00    -0.365 N 
HETATM    8  N   UNL     1     -42.285  59.205 -53.321  1.00  0.00    -0.181 NA
HETATM    9  C   UNL     1     -42.213  59.225 -54.655  1.00  0.00     0.160 A 
HETATM   10  H   UNL     1     -43.256  55.289 -54.863  1.00  0.00     0.161 HD
ENDROOT
BRANCH   1  11
HETATM   11  C   UNL     1     -42.768  57.737 -56.671  1.00  0.00     0.261 C 
HETATM   12  N   UNL     1     -43.968  57.141 -57.013  1.00  0.00    -0.323 N 
HETATM   13  H   UNL     1     -44.665  57.124 -56.277  1.00  0.00     0.169 HD
HETATM   14  O   UNL     1     -41.872  58.055 -57.441  1.00  0.00    -0.267 OA
BRANCH  12  15
HETATM   15  C   UNL     1     -44.361  56.641 -58.269  1.00  0.00     0.037 A 
HETATM   16  C   UNL     1     -45.313  57.251 -59.086  1.00  0.00     0.066 A 
HETATM   17  C   UNL     1     -45.615  56.698 -60.330  1.00  0.00     0.067 A 
HETATM   18  C   UNL     1     -44.990  55.539 -60.776  1.00  0.00     0.036 A 
HETATM   19  C   UNL     1     -44.040  54.926 -59.964  1.00  0.00     0.005 A 
HETATM   20  C   UNL     1     -43.723  55.477 -58.719  1.00  0.00     0.029 A 
BRANCH  17  21
HETATM   21  O   UNL     1     -46.542  57.338 -61.101  1.00  0.00    -0.361 OA
HETATM   22  H   UNL     1     -47.052  57.945 -60.542  1.00  0.00     0.217 HD
ENDBRANCH  17  21
ENDBRANCH  12  15
ENDBRANCH   1  11
BRANCH   4  23
HETATM   23  C   UNL     1     -41.533  57.340 -51.007  1.00  0.00     0.409 C 
HETATM   24  F   UNL     1     -41.564  56.534 -49.928  1.00  0.00    -0.169 F 
HETATM   25  F   UNL     1     -40.586  56.862 -51.845  1.00  0.00    -0.169 F 
HETATM   26  F   UNL     1     -41.083  58.551 -50.582  1.00  0.00    -0.169 F 
ENDBRANCH   4  23
BRANCH   6  27
HETATM   27  C   UNL     1     -42.288  54.303 -52.564  1.00  0.00    -0.035 A 
HETATM   28  C   UNL     1     -41.480  53.950 -53.664  1.00  0.00     0.012 A 
HETATM   29  C   UNL     1     -40.373  53.113 -53.505  1.00  0.00     0.043 A 
HETATM   30  C   UNL     1     -40.060  52.622 -52.246  1.00  0.00     0.116 A 
HETATM   31  F   UNL     1     -38.997  51.820 -52.094  1.00  0.00    -0.206 F 
HETATM   32  C   UNL     1     -40.833  52.951 -51.142  1.00  0.00     0.043 A 
HETATM   33  C   UNL     1     -41.939  53.791 -51.299  1.00  0.00     0.012 A 
ENDBRANCH   6  27
TORSDOF 5
ENDMDL
MODEL 5
REMARK VINA RESULT:      -8.5      3.567      6.532
REMARK  5 active torsions:
REMARK  status: ('A' for Active; 'I' for Inactive)
REMARK    1  A    between atoms: C_3  and  O_4 
REMARK    2  A    between atoms: C_6  and  N_7 
REMARK       I    between atoms: N_7  and  C_8 
REMARK    3  A    between atoms: C_8  and  C_9 
REMARK    4  A    between atoms: C_12  and  C_13 
REMARK    5  A    between atoms: C_18  and  C_19 
ROOT
HETATM    1  C   UNL     1     -42.681  55.672 -55.301  1.00  0.00     0.096 A 
HETATM    2  C   UNL     1     -43.146  56.714 -54.519  1.00  0.00     0.138 A 
HETATM    3  N   UNL     1     -43.174  57.814 -55.340  1.00  0.00    -0.240 N 
HETATM    4  C   UNL     1     -43.595  59.141 -54.937  1.00  0.00     0.221 C 
HETATM    5  C   UNL     1     -44.367  59.077 -53.608  1.00  0.00     0.066 C 
HETATM    6  C   UNL     1     -43.788  58.088 -52.581  1.00  0.00     0.118 C 
HETATM    7  N   UNL     1     -43.515  56.795 -53.212  1.00  0.00    -0.365 N 
HETATM    8  N   UNL     1     -42.794  57.558 -56.602  1.00  0.00    -0.181 NA
HETATM    9  C   UNL     1     -42.447  56.267 -56.563  1.00  0.00     0.160 A 
HETATM   10  H   UNL     1     -43.153  56.103 -52.551  1.00  0.00     0.161 HD
ENDROOT
BRANCH   1  11
HETATM   11  C   UNL     1     -42.465  54.280 -54.939  1.00  0.00     0.261 C 
HETATM   12  N   UNL     1     -41.336  54.097 -54.162  1.00  0.00    -0.323 N 
HETATM   13  H   UNL     1     -40.905  54.950 -53.823  1.00  0.00     0.169 HD
HETATM   14  O   UNL     1     -43.260  53.414 -55.279  1.00  0.00    -0.267 OA
BRANCH  12  15
HETATM   15  C   UNL     1     -40.774  52.884 -53.722  1.00  0.00     0.037 A 
HETATM   16  C   UNL     1     -40.665  51.743 -54.516  1.00  0.00     0.066 A 
HETATM   17  C   UNL     1     -40.064  50.595 -54.001  1.00  0.00     0.067 A 
HETATM   18  C   UNL     1     -39.573  50.558 -52.701  1.00  0.00     0.036 A 
HETATM   19  C   UNL     1     -39.681  51.694 -51.903  1.00  0.00     0.005 A 
HETATM   20  C   UNL     1     -40.273  52.853 -52.412  1.00  0.00     0.029 A 
BRANCH  17  21
HETATM   21  O   UNL     1     -39.965  49.507 -54.821  1.00  0.00    -0.361 OA
HETATM   22  H   UNL     1     -39.622  49.793 -55.682  1.00  0.00     0.217 HD
ENDBRANCH  17  21
ENDBRANCH  12  15
ENDBRANCH   1  11
BRANCH   4  23
HETATM   23  C   UNL     1     -42.418  60.091 -54.918  1.00  0.00     0.409 C 
HETATM   24  F   UNL     1     -42.577  61.136 -54.083  1.00  0.00    -0.169 F 
HETATM   25  F   UNL     1     -41.264  59.472 -54.581  1.00  0.00    -0.169 F 
HETATM   26  F   UNL     1     -42.219  60.606 -56.161  1.00  0.00    -0.169 F 
ENDBRANCH   4  23
BRANCH   6  27
HETATM   27  C   UNL     1     -42.621  58.611 -51.758  1.00  0.00    -0.035 A 
HETATM   28  C   UNL     1     -41.447  57.836 -51.677  1.00  0.00     0.012 A 
HETATM   29  C   UNL     1     -40.339  58.281 -50.951  1.00  0.00     0.043 A 
HETATM   30  C   UNL     1     -40.393  59.505 -50.300  1.00  0.00     0.116 A 
HETATM   31  F   UNL     1     -39.331  59.932 -49.605  1.00  0.00    -0.206 F 
HETATM   32  C   UNL     1     -41.533  60.293 -50.362  1.00  0.00     0.043 A 
HETATM   33  C   UNL     1     -42.640  59.850 -51.091  1.00  0.00     0.012 A 
ENDBRANCH   6  27
TORSDOF 5
ENDMDL
MODEL 6
REMARK VINA RESULT:      -8.3      4.181      7.307
REMARK  5 active torsions:
REMARK  status: ('A' for Active; 'I' for Inactive)
REMARK    1  A    between atoms: C_3  and  O_4 
REMARK    2  A    between atoms: C_6  and  N_7 
REMARK       I    between atoms: N_7  and  C_8 
REMARK    3  A    between atoms: C_8  and  C_9 
REMARK    4  A    between atoms: C_12  and  C_13 
REMARK    5  A    between atoms: C_18  and  C_19 
ROOT
HETATM    1  C   UNL     1     -41.758  55.523 -51.558  1.00  0.00     0.096 A 
HETATM    2  C   UNL     1     -41.765  56.532 -52.505  1.00  0.00     0.138 A 
HETATM    3  N   UNL     1     -42.770  57.388 -52.131  1.00  0.00    -0.240 N 
HETATM    4  C   UNL     1     -43.140  58.595 -52.842  1.00  0.00     0.221 C 
HETATM    5  C   UNL     1     -42.029  58.998 -53.828  1.00  0.00     0.066 C 
HETATM    6  C   UNL     1     -41.372  57.818 -54.565  1.00  0.00     0.118 C 
HETATM    7  N   UNL     1     -41.020  56.755 -53.621  1.00  0.00    -0.365 N 
HETATM    8  N   UNL     1     -43.395  57.030 -50.998  1.00  0.00    -0.181 NA
HETATM    9  C   UNL     1     -42.812  55.870 -50.679  1.00  0.00     0.160 A 
HETATM   10  H   UNL     1     -40.556  55.964 -54.074  1.00  0.00     0.161 HD
ENDROOT
BRANCH   1  11
HETATM   11  C   UNL     1     -40.890  54.360 -51.464  1.00  0.00     0.261 C 
HETATM   12  N   UNL     1     -41.052  53.483 -52.520  1.00  0.00    -0.323 N 
HETATM   13  H   UNL     1     -41.624  53.829 -53.283  1.00  0.00     0.169 HD
HETATM   14  O   UNL     1     -40.090  54.249 -50.545  1.00  0.00    -0.267 OA
BRANCH  12  15
HETATM   15  C   UNL     1     -40.456  52.220 -52.698  1.00  0.00     0.037 A 
HETATM   16  C   UNL     1     -39.966  51.437 -51.654  1.00  0.00     0.066 A 
HETATM   17  C   UNL     1     -39.418  50.183 -51.925  1.00  0.00     0.067 A 
HETATM   18  C   UNL     1     -39.343  49.695 -53.224  1.00  0.00     0.036 A 
HETATM   19  C   UNL     1     -39.830  50.473 -54.271  1.00  0.00     0.005 A 
HETATM   20  C   UNL     1     -40.389  51.728 -54.009  1.00  0.00     0.029 A 
BRANCH  17  21
HETATM   21  O   UNL     1     -38.966  49.446 -50.869  1.00  0.00    -0.361 OA
HETATM   22  H   UNL     1     -38.899  48.517 -51.139  1.00  0.00     0.217 HD
ENDBRANCH  17  21
ENDBRANCH  12  15
ENDBRANCH   1  11
BRANCH   4  23
HETATM   23  C   UNL     1     -44.502  58.440 -53.485  1.00  0.00     0.409 C 
HETATM   24  F   UNL     1     -44.779  57.180 -53.874  1.00  0.00    -0.169 F 
HETATM   25  F   UNL     1     -45.503  58.843 -52.670  1.00  0.00    -0.169 F 
HETATM   26  F   UNL     1     -44.582  59.223 -54.594  1.00  0.00    -0.169 F 
ENDBRANCH   4  23
BRANCH   6  27
HETATM   27  C   UNL     1     -42.125  57.310 -55.785  1.00  0.00    -0.035 A 
HETATM   28  C   UNL     1     -42.513  58.234 -56.776  1.00  0.00     0.012 A 
HETATM   29  C   UNL     1     -43.188  57.815 -57.925  1.00  0.00     0.043 A 
HETATM   30  C   UNL     1     -43.480  56.470 -58.097  1.00  0.00     0.116 A 
HETATM   31  F   UNL     1     -44.126  56.069 -59.200  1.00  0.00    -0.206 F 
HETATM   32  C   UNL     1     -43.109  55.535 -57.142  1.00  0.00     0.043 A 
HETATM   33  C   UNL     1     -42.431  55.952 -55.993  1.00  0.00     0.012 A 
ENDBRANCH   6  27
TORSDOF 5
ENDMDL
MODEL 7
REMARK VINA RESULT:      -8.1      2.153      2.713
REMARK  5 active torsions:
REMARK  status: ('A' for Active; 'I' for Inactive)
REMARK    1  A    between atoms: C_3  and  O_4 
REMARK    2  A    between atoms: C_6  and  N_7 
REMARK       I    between atoms: N_7  and  C_8 
REMARK    3  A    between atoms: C_8  and  C_9 
REMARK    4  A    between atoms: C_12  and  C_13 
REMARK    5  A    between atoms: C_18  and  C_19 
ROOT
HETATM    1  C   UNL     1     -43.024  57.762 -54.579  1.00  0.00     0.096 A 
HETATM    2  C   UNL     1     -43.168  56.869 -53.533  1.00  0.00     0.138 A 
HETATM    3  N   UNL     1     -42.870  57.576 -52.394  1.00  0.00    -0.240 N 
HETATM    4  C   UNL     1     -42.888  57.034 -51.051  1.00  0.00     0.221 C 
HETATM    5  C   UNL     1     -43.653  55.698 -51.023  1.00  0.00     0.066 C 
HETATM    6  C   UNL     1     -43.394  54.790 -52.237  1.00  0.00     0.118 C 
HETATM    7  N   UNL     1     -43.506  55.553 -53.482  1.00  0.00    -0.365 N 
HETATM    8  N   UNL     1     -42.574  58.866 -52.619  1.00  0.00    -0.181 NA
HETATM    9  C   UNL     1     -42.618  58.964 -53.952  1.00  0.00     0.160 A 
HETATM   10  H   UNL     1     -43.365  54.973 -54.313  1.00  0.00     0.161 HD
ENDROOT
BRANCH   1  11
HETATM   11  C   UNL     1     -43.225  57.546 -56.003  1.00  0.00     0.261 C 
HETATM   12  N   UNL     1     -42.969  58.676 -56.758  1.00  0.00    -0.323 N 
HETATM   13  H   UNL     1     -42.536  59.441 -56.254  1.00  0.00     0.169 HD
HETATM   14  O   UNL     1     -43.543  56.444 -56.431  1.00  0.00    -0.267 OA
BRANCH  12  15
HETATM   15  C   UNL     1     -43.157  58.854 -58.142  1.00  0.00     0.037 A 
HETATM   16  C   UNL     1     -44.350  58.574 -58.808  1.00  0.00     0.066 A 
HETATM   17  C   UNL     1     -44.452  58.813 -60.179  1.00  0.00     0.067 A 
HETATM   18  C   UNL     1     -43.380  59.321 -60.904  1.00  0.00     0.036 A 
HETATM   19  C   UNL     1     -42.186  59.602 -60.244  1.00  0.00     0.005 A 
HETATM   20  C   UNL     1     -42.077  59.375 -58.869  1.00  0.00     0.029 A 
BRANCH  17  21
HETATM   21  O   UNL     1     -45.644  58.537 -60.784  1.00  0.00    -0.361 OA
HETATM   22  H   UNL     1     -46.359  58.942 -60.269  1.00  0.00     0.217 HD
ENDBRANCH  17  21
ENDBRANCH  12  15
ENDBRANCH   1  11
BRANCH   4  23
HETATM   23  C   UNL     1     -41.485  56.947 -50.491  1.00  0.00     0.409 C 
HETATM   24  F   UNL     1     -41.009  58.122 -50.034  1.00  0.00    -0.169 F 
HETATM   25  F   UNL     1     -41.388  56.050 -49.484  1.00  0.00    -0.169 F 
HETATM   26  F   UNL     1     -40.628  56.522 -51.457  1.00  0.00    -0.169 F 
ENDBRANCH   4  23
BRANCH   6  27
HETATM   27  C   UNL     1     -42.130  53.947 -52.163  1.00  0.00    -0.035 A 
HETATM   28  C   UNL     1     -41.723  53.444 -50.911  1.00  0.00     0.012 A 
HETATM   29  C   UNL     1     -40.582  52.647 -50.793  1.00  0.00     0.043 A 
HETATM   30  C   UNL     1     -39.837  52.343 -51.924  1.00  0.00     0.116 A 
HETATM   31  F   UNL     1     -38.744  51.578 -51.810  1.00  0.00    -0.206 F 
HETATM   32  C   UNL     1     -40.213  52.820 -53.171  1.00  0.00     0.043 A 
HETATM   33  C   UNL     1     -41.356  53.614 -53.291  1.00  0.00     0.012 A 
ENDBRANCH   6  27
TORSDOF 5
ENDMDL
MODEL 8
REMARK VINA RESULT:      -8.0      3.961      7.245
REMARK  5 active torsions:
REMARK  status: ('A' for Active; 'I' for Inactive)
REMARK    1  A    between atoms: C_3  and  O_4 
REMARK    2  A    between atoms: C_6  and  N_7 
REMARK       I    between atoms: N_7  and  C_8 
REMARK    3  A    between atoms: C_8  and  C_9 
REMARK    4  A    between atoms: C_12  and  C_13 
REMARK    5  A    between atoms: C_18  and  C_19 
ROOT
HETATM    1  C   UNL     1     -42.604  55.636 -54.723  1.00  0.00     0.096 A 
HETATM    2  C   UNL     1     -43.432  56.725 -54.515  1.00  0.00     0.138 A 
HETATM    3  N   UNL     1     -43.324  57.498 -55.644  1.00  0.00    -0.240 N 
HETATM    4  C   UNL     1     -44.021  58.749 -55.864  1.00  0.00     0.221 C 
HETATM    5  C   UNL     1     -45.179  58.901 -54.861  1.00  0.00     0.066 C 
HETATM    6  C   UNL     1     -44.854  58.418 -53.437  1.00  0.00     0.118 C 
HETATM    7  N   UNL     1     -44.224  57.097 -53.474  1.00  0.00    -0.365 N 
HETATM    8  N   UNL     1     -42.515  56.978 -56.581  1.00  0.00    -0.181 NA
HETATM    9  C   UNL     1     -42.039  55.873 -55.999  1.00  0.00     0.160 A 
HETATM   10  H   UNL     1     -44.018  56.733 -52.540  1.00  0.00     0.161 HD
ENDROOT
BRANCH   1  11
HETATM   11  C   UNL     1     -42.346  54.501 -53.852  1.00  0.00     0.261 C 
HETATM   12  N   UNL     1     -41.113  53.919 -54.081  1.00  0.00    -0.323 N 
HETATM   13  H   UNL     1     -40.501  54.438 -54.700  1.00  0.00     0.169 HD
HETATM   14  O   UNL     1     -43.155  54.173 -52.994  1.00  0.00    -0.267 OA
BRANCH  12  15
HETATM   15  C   UNL     1     -40.583  52.752 -53.497  1.00  0.00     0.037 A 
HETATM   16  C   UNL     1     -40.351  51.569 -54.197  1.00  0.00     0.066 A 
HETATM   17  C   UNL     1     -39.793  50.472 -53.539  1.00  0.00     0.067 A 
HETATM   18  C   UNL     1     -39.467  50.530 -52.189  1.00  0.00     0.036 A 
HETATM   19  C   UNL     1     -39.697  51.710 -51.486  1.00  0.00     0.005 A 
HETATM   20  C   UNL     1     -40.248  52.817 -52.138  1.00  0.00     0.029 A 
BRANCH  17  21
HETATM   21  O   UNL     1     -39.571  49.340 -54.269  1.00  0.00    -0.361 OA
HETATM   22  H   UNL     1     -40.409  48.865 -54.377  1.00  0.00     0.217 HD
ENDBRANCH  17  21
ENDBRANCH  12  15
ENDBRANCH   1  11
BRANCH   4  23
HETATM   23  C   UNL     1     -43.049  59.909 -55.859  1.00  0.00     0.409 C 
HETATM   24  F   UNL     1     -43.591  61.070 -55.443  1.00  0.00    -0.169 F 
HETATM   25  F   UNL     1     -41.965  59.666 -55.089  1.00  0.00    -0.169 F 
HETATM   26  F   UNL     1     -42.577  60.122 -57.117  1.00  0.00    -0.169 F 
ENDBRANCH   4  23
BRANCH   6  27
HETATM   27  C   UNL     1     -44.107  59.414 -52.564  1.00  0.00    -0.035 A 
HETATM   28  C   UNL     1     -44.664  60.694 -52.365  1.00  0.00     0.012 A 
HETATM   29  C   UNL     1     -44.028  61.637 -51.555  1.00  0.00     0.043 A 
HETATM   30  C   UNL     1     -42.830  61.313 -50.936  1.00  0.00     0.116 A 
HETATM   31  F   UNL     1     -42.221  62.218 -50.159  1.00  0.00    -0.206 F 
HETATM   32  C   UNL     1     -42.256  60.062 -51.110  1.00  0.00     0.043 A 
HETATM   33  C   UNL     1     -42.894  59.116 -51.916  1.00  0.00     0.012 A 
ENDBRANCH   6  27
TORSDOF 5
ENDMDL
MODEL 9
REMARK VINA RESULT:      -7.8      2.284      2.841
REMARK  5 active torsions:
REMARK  status: ('A' for Active; 'I' for Inactive)
REMARK    1  A    between atoms: C_3  and  O_4 
REMARK    2  A    between atoms: C_6  and  N_7 
REMARK       I    between atoms: N_7  and  C_8 
REMARK    3  A    between atoms: C_8  and  C_9 
REMARK    4  A    between atoms: C_12  and  C_13 
REMARK    5  A    between atoms: C_18  and  C_19 
ROOT
HETATM    1  C   UNL     1     -42.607  58.745 -56.243  1.00  0.00     0.096 A 
HETATM    2  C   UNL     1     -42.898  57.794 -55.281  1.00  0.00     0.138 A 
HETATM    3  N   UNL     1     -42.586  58.374 -54.077  1.00  0.00    -0.240 N 
HETATM    4  C   UNL     1     -42.731  57.733 -52.785  1.00  0.00     0.221 C 
HETATM    5  C   UNL     1     -43.631  56.490 -52.901  1.00  0.00     0.066 C 
HETATM    6  C   UNL     1     -43.406  55.656 -54.174  1.00  0.00     0.118 C 
HETATM    7  N   UNL     1     -43.373  56.522 -55.355  1.00  0.00    -0.365 N 
HETATM    8  N   UNL     1     -42.146  59.638 -54.180  1.00  0.00    -0.181 NA
HETATM    9  C   UNL     1     -42.111  59.844 -55.501  1.00  0.00     0.160 A 
HETATM   10  H   UNL     1     -43.251  55.997 -56.225  1.00  0.00     0.161 HD
ENDROOT
BRANCH   1  11
HETATM   11  C   UNL     1     -42.756  58.664 -57.687  1.00  0.00     0.261 C 
HETATM   12  N   UNL     1     -42.685  59.899 -58.304  1.00  0.00    -0.323 N 
HETATM   13  H   UNL     1     -42.389  60.662 -57.705  1.00  0.00     0.169 HD
HETATM   14  O   UNL     1     -42.883  57.581 -58.244  1.00  0.00    -0.267 OA
BRANCH  12  15
HETATM   15  C   UNL     1     -42.886  60.202 -59.664  1.00  0.00     0.037 A 
HETATM   16  C   UNL     1     -44.101  60.032 -60.327  1.00  0.00     0.066 A 
HETATM   17  C   UNL     1     -44.213  60.390 -61.671  1.00  0.00     0.067 A 
HETATM   18  C   UNL     1     -43.132  60.910 -62.372  1.00  0.00     0.036 A 
HETATM   19  C   UNL     1     -41.916  61.081 -61.714  1.00  0.00     0.005 A 
HETATM   20  C   UNL     1     -41.795  60.734 -60.366  1.00  0.00     0.029 A 
BRANCH  17  21
HETATM   21  O   UNL     1     -45.427  60.219 -62.274  1.00  0.00    -0.361 OA
HETATM   22  H   UNL     1     -45.783  61.089 -62.515  1.00  0.00     0.217 HD
ENDBRANCH  17  21
ENDBRANCH  12  15
ENDBRANCH   1  11
BRANCH   4  23
HETATM   23  C   UNL     1     -41.375  57.452 -52.174  1.00  0.00     0.409 C 
HETATM   24  F   UNL     1     -40.432  57.115 -53.075  1.00  0.00    -0.169 F 
HETATM   25  F   UNL     1     -40.904  58.503 -51.465  1.00  0.00    -0.169 F 
HETATM   26  F   UNL     1     -41.470  56.418 -51.295  1.00  0.00    -0.169 F 
ENDBRANCH   4  23
BRANCH   6  27
HETATM   27  C   UNL     1     -42.243  54.679 -54.116  1.00  0.00    -0.035 A 
HETATM   28  C   UNL     1     -42.130  53.823 -53.002  1.00  0.00     0.012 A 
HETATM   29  C   UNL     1     -41.093  52.893 -52.911  1.00  0.00     0.043 A 
HETATM   30  C   UNL     1     -40.158  52.806 -53.932  1.00  0.00     0.116 A 
HETATM   31  F   UNL     1     -39.164  51.912 -53.845  1.00  0.00    -0.206 F 
HETATM   32  C   UNL     1     -40.242  53.631 -55.043  1.00  0.00     0.043 A 
HETATM   33  C   UNL     1     -41.281  54.560 -55.138  1.00  0.00     0.012 A 
ENDBRANCH   6  27
TORSDOF 5
ENDMDL
MODEL 10
REMARK VINA RESULT:      -7.8      3.365      4.127
REMARK  5 active torsions:
REMARK  status: ('A' for Active; 'I' for Inactive)
REMARK    1  A    between atoms: C_3  and  O_4 
REMARK    2  A    between atoms: C_6  and  N_7 
REMARK       I    between atoms: N_7  and  C_8 
REMARK    3  A    between atoms: C_8  and  C_9 
REMARK    4  A    between atoms: C_12  and  C_13 
REMARK    5  A    between atoms: C_18  and  C_19 
ROOT
HETATM    1  C   UNL     1     -42.266  59.372 -55.006  1.00  0.00     0.096 A 
HETATM    2  C   UNL     1     -42.712  58.201 -54.421  1.00  0.00     0.138 A 
HETATM    3  N   UNL     1     -42.632  58.405 -53.065  1.00  0.00    -0.240 N 
HETATM    4  C   UNL     1     -42.999  57.433 -52.056  1.00  0.00     0.221 C 
HETATM    5  C   UNL     1     -43.846  56.308 -52.677  1.00  0.00     0.066 C 
HETATM    6  C   UNL     1     -43.382  55.859 -54.074  1.00  0.00     0.118 C 
HETATM    7  N   UNL     1     -43.148  57.020 -54.935  1.00  0.00    -0.365 N 
HETATM    8  N   UNL     1     -42.198  59.630 -52.727  1.00  0.00    -0.181 NA
HETATM    9  C   UNL     1     -41.928  60.197 -53.907  1.00  0.00     0.160 A 
HETATM   10  H   UNL     1     -42.863  56.756 -55.882  1.00  0.00     0.161 HD
ENDROOT
BRANCH   1  11
HETATM   11  C   UNL     1     -42.149  59.706 -56.416  1.00  0.00     0.261 C 
HETATM   12  N   UNL     1     -41.882  61.046 -56.630  1.00  0.00    -0.323 N 
HETATM   13  H   UNL     1     -41.652  61.576 -55.797  1.00  0.00     0.169 HD
HETATM   14  O   UNL     1     -42.243  58.839 -57.275  1.00  0.00    -0.267 OA
BRANCH  12  15
HETATM   15  C   UNL     1     -41.808  61.730 -57.857  1.00  0.00     0.037 A 
HETATM   16  C   UNL     1     -40.612  62.032 -58.508  1.00  0.00     0.066 A 
HETATM   17  C   UNL     1     -40.639  62.687 -59.740  1.00  0.00     0.067 A 
HETATM   18  C   UNL     1     -41.840  63.055 -60.335  1.00  0.00     0.036 A 
HETATM   19  C   UNL     1     -43.037  62.756 -59.689  1.00  0.00     0.005 A 
HETATM   20  C   UNL     1     -43.021  62.092 -58.459  1.00  0.00     0.029 A 
BRANCH  17  21
HETATM   21  O   UNL     1     -39.444  62.948 -60.346  1.00  0.00    -0.361 OA
HETATM   22  H   UNL     1     -38.884  62.158 -60.291  1.00  0.00     0.217 HD
ENDBRANCH  17  21
ENDBRANCH  12  15
ENDBRANCH   1  11
BRANCH   4  23
HETATM   23  C   UNL     1     -41.772  56.940 -51.319  1.00  0.00     0.409 C 
HETATM   24  F   UNL     1     -40.713  56.713 -52.119  1.00  0.00    -0.169 F 
HETATM   25  F   UNL     1     -41.376  57.797 -50.351  1.00  0.00    -0.169 F 
HETATM   26  F   UNL     1     -42.052  55.767 -50.690  1.00  0.00    -0.169 F 
ENDBRANCH   4  23
BRANCH   6  27
HETATM   27  C   UNL     1     -42.235  54.860 -54.090  1.00  0.00    -0.035 A 
HETATM   28  C   UNL     1     -42.234  53.813 -53.147  1.00  0.00     0.012 A 
HETATM   29  C   UNL     1     -41.215  52.858 -53.133  1.00  0.00     0.043 A 
HETATM   30  C   UNL     1     -40.187  52.938 -54.062  1.00  0.00     0.116 A 
HETATM   31  F   UNL     1     -39.211  52.021 -54.050  1.00  0.00    -0.206 F 
HETATM   32  C   UNL     1     -40.161  53.955 -55.005  1.00  0.00     0.043 A 
HETATM   33  C   UNL     1     -41.181  54.909 -55.022  1.00  0.00     0.012 A 
ENDBRANCH   6  27
TORSDOF 5
ENDMDL
