MODEL 1
REMARK VINA RESULT:      -7.9      0.000      0.000
REMARK  4 active torsions:
REMARK  status: ('A' for Active; 'I' for Inactive)
REMARK    1  A    between atoms: C_4  and  N_5 
REMARK    2  A    between atoms: N_5  and  N_6 
REMARK       I    between atoms: N_6  and  C_7 
REMARK    3  A    between atoms: C_7  and  C_8 
REMARK    4  A    between atoms: C_9  and  C_10 
ROOT
HETATM    1  C   UNL     1     -41.269  56.441 -50.983  1.00  0.00     0.081 A 
HETATM    2  C   UNL     1     -41.384  56.877 -52.339  1.00  0.00     0.106 A 
HETATM    3  N   UNL     1     -41.046  58.171 -52.464  1.00  0.00    -0.173 NA
HETATM    4  N   UNL     1     -40.726  58.558 -51.224  1.00  0.00    -0.288 N 
HETATM    5  H   UNL     1     -40.437  59.521 -51.079  1.00  0.00     0.188 HD
HETATM    6  C   UNL     1     -40.818  57.560 -50.307  1.00  0.00     0.128 A 
ENDROOT
BRANCH   1   7
HETATM    7  C   UNL     1     -41.495  55.147 -50.362  1.00  0.00     0.270 C 
HETATM    8  N   UNL     1     -40.370  54.351 -50.234  1.00  0.00    -0.283 N 
HETATM    9  H   UNL     1     -39.459  54.609 -50.597  1.00  0.00     0.184 HD
HETATM   10  O   UNL     1     -42.615  54.798 -49.995  1.00  0.00    -0.266 OA
BRANCH   8  11
HETATM   11  N   UNL     1     -40.537  53.052 -49.726  1.00  0.00    -0.203 NA
HETATM   12  H   UNL     1     -40.149  52.956 -48.788  1.00  0.00     0.153 HD
BRANCH  11  13
HETATM   13  C   UNL     1     -40.181  52.006 -50.605  1.00  0.00     0.028 A 
HETATM   14  C   UNL     1     -40.014  52.213 -51.983  1.00  0.00     0.032 A 
HETATM   15  C   UNL     1     -39.732  51.147 -52.852  1.00  0.00    -0.060 A 
HETATM   16  C   UNL     1     -39.605  51.378 -54.328  1.00  0.00     0.048 C 
HETATM   17  C   UNL     1     -39.652  49.850 -52.335  1.00  0.00     0.007 A 
HETATM   18  C   UNL     1     -39.844  49.625 -50.973  1.00  0.00     0.002 A 
HETATM   19  C   UNL     1     -40.117  50.694 -50.119  1.00  0.00     0.025 A 
ENDBRANCH  11  13
ENDBRANCH   8  11
ENDBRANCH   1   7
BRANCH   2  20
HETATM   20  C   UNL     1     -41.710  56.093 -53.527  1.00  0.00     0.017 A 
HETATM   21  C   UNL     1     -42.974  56.128 -54.133  1.00  0.00     0.046 A 
HETATM   22 CL   UNL     1     -44.297  57.030 -53.480  1.00  0.00    -0.083 Cl
HETATM   23  C   UNL     1     -43.220  55.374 -55.287  1.00  0.00     0.025 A 
HETATM   24  C   UNL     1     -42.215  54.576 -55.835  1.00  0.00     0.002 A 
HETATM   25  C   UNL     1     -40.960  54.527 -55.234  1.00  0.00     0.001 A 
HETATM   26  C   UNL     1     -40.706  55.283 -54.088  1.00  0.00     0.016 A 
ENDBRANCH   2  20
TORSDOF 4
ENDMDL
MODEL 2
REMARK VINA RESULT:      -7.8      2.003      3.318
REMARK  4 active torsions:
REMARK  status: ('A' for Active; 'I' for Inactive)
REMARK    1  A    between atoms: C_4  and  N_5 
REMARK    2  A    between atoms: N_5  and  N_6 
REMARK       I    between atoms: N_6  and  C_7 
REMARK    3  A    between atoms: C_7  and  C_8 
REMARK    4  A    between atoms: C_9  and  C_10 
ROOT
HETATM    1  C   UNL     1     -42.637  54.988 -53.626  1.00  0.00     0.081 A 
HETATM    2  C   UNL     1     -42.683  56.388 -53.914  1.00  0.00     0.106 A 
HETATM    3  N   UNL     1     -43.312  56.624 -55.077  1.00  0.00    -0.173 NA
HETATM    4  N   UNL     1     -43.659  55.412 -55.526  1.00  0.00    -0.288 N 
HETATM    5  H   UNL     1     -44.153  55.350 -56.411  1.00  0.00     0.188 HD
HETATM    6  C   UNL     1     -43.302  54.404 -54.688  1.00  0.00     0.128 A 
ENDROOT
BRANCH   1   7
HETATM    7  C   UNL     1     -42.095  54.252 -52.496  1.00  0.00     0.270 C 
HETATM    8  N   UNL     1     -40.714  54.179 -52.448  1.00  0.00    -0.283 N 
HETATM    9  H   UNL     1     -40.110  54.554 -53.171  1.00  0.00     0.184 HD
HETATM   10  O   UNL     1     -42.829  53.727 -51.661  1.00  0.00    -0.266 OA
BRANCH   8  11
HETATM   11  N   UNL     1     -40.130  53.404 -51.433  1.00  0.00    -0.203 NA
HETATM   12  H   UNL     1     -39.329  53.872 -51.008  1.00  0.00     0.153 HD
BRANCH  11  13
HETATM   13  C   UNL     1     -39.900  52.051 -51.760  1.00  0.00     0.028 A 
HETATM   14  C   UNL     1     -39.830  51.604 -53.088  1.00  0.00     0.032 A 
HETATM   15  C   UNL     1     -39.674  50.243 -53.393  1.00  0.00    -0.060 A 
HETATM   16  C   UNL     1     -39.649  49.778 -54.819  1.00  0.00     0.048 C 
HETATM   17  C   UNL     1     -39.624  49.313 -52.350  1.00  0.00     0.007 A 
HETATM   18  C   UNL     1     -39.721  49.737 -51.027  1.00  0.00     0.002 A 
HETATM   19  C   UNL     1     -39.869  51.095 -50.737  1.00  0.00     0.025 A 
ENDBRANCH  11  13
ENDBRANCH   8  11
ENDBRANCH   1   7
BRANCH   2  20
HETATM   20  C   UNL     1     -42.238  57.506 -53.088  1.00  0.00     0.017 A 
HETATM   21  C   UNL     1     -43.043  58.081 -52.094  1.00  0.00     0.046 A 
HETATM   22 CL   UNL     1     -44.676  57.583 -51.813  1.00  0.00    -0.083 Cl
HETATM   23  C   UNL     1     -42.552  59.134 -51.314  1.00  0.00     0.025 A 
HETATM   24  C   UNL     1     -41.263  59.626 -51.526  1.00  0.00     0.002 A 
HETATM   25  C   UNL     1     -40.460  59.069 -52.517  1.00  0.00     0.001 A 
HETATM   26  C   UNL     1     -40.942  58.012 -53.293  1.00  0.00     0.016 A 
ENDBRANCH   2  20
TORSDOF 4
ENDMDL
MODEL 3
REMARK VINA RESULT:      -7.8      3.369      6.727
REMARK  4 active torsions:
REMARK  status: ('A' for Active; 'I' for Inactive)
REMARK    1  A    between atoms: C_4  and  N_5 
REMARK    2  A    between atoms: N_5  and  N_6 
REMARK       I    between atoms: N_6  and  C_7 
REMARK    3  A    between atoms: C_7  and  C_8 
REMARK    4  A    between atoms: C_9  and  C_10 
ROOT
HETATM    1  C   UNL     1     -42.478  55.592 -53.089  1.00  0.00     0.081 A 
HETATM    2  C   UNL     1     -42.254  54.326 -52.464  1.00  0.00     0.106 A 
HETATM    3  N   UNL     1     -43.174  54.082 -51.517  1.00  0.00    -0.173 NA
HETATM    4  N   UNL     1     -43.967  55.160 -51.529  1.00  0.00    -0.288 N 
HETATM    5  H   UNL     1     -44.745  55.193 -50.878  1.00  0.00     0.188 HD
HETATM    6  C   UNL     1     -43.612  56.080 -52.464  1.00  0.00     0.128 A 
ENDROOT
BRANCH   1   7
HETATM    7  C   UNL     1     -41.780  56.276 -54.165  1.00  0.00     0.270 C 
HETATM    8  N   UNL     1     -42.494  56.401 -55.344  1.00  0.00    -0.283 N 
HETATM    9  H   UNL     1     -43.414  55.998 -55.485  1.00  0.00     0.184 HD
HETATM   10  O   UNL     1     -40.634  56.694 -54.022  1.00  0.00    -0.266 OA
BRANCH   8  11
HETATM   11  N   UNL     1     -41.843  56.970 -56.451  1.00  0.00    -0.203 NA
HETATM   12  H   UNL     1     -41.510  57.914 -56.255  1.00  0.00     0.153 HD
BRANCH  11  13
HETATM   13  C   UNL     1     -42.519  56.843 -57.683  1.00  0.00     0.028 A 
HETATM   14  C   UNL     1     -43.234  55.687 -58.028  1.00  0.00     0.032 A 
HETATM   15  C   UNL     1     -43.838  55.549 -59.288  1.00  0.00    -0.060 A 
HETATM   16  C   UNL     1     -44.558  54.286 -59.656  1.00  0.00     0.048 C 
HETATM   17  C   UNL     1     -43.691  56.574 -60.228  1.00  0.00     0.007 A 
HETATM   18  C   UNL     1     -42.959  57.716 -59.912  1.00  0.00     0.002 A 
HETATM   19  C   UNL     1     -42.370  57.843 -58.653  1.00  0.00     0.025 A 
ENDBRANCH  11  13
ENDBRANCH   8  11
ENDBRANCH   1   7
BRANCH   2  20
HETATM   20  C   UNL     1     -41.261  53.308 -52.794  1.00  0.00     0.017 A 
HETATM   21  C   UNL     1     -40.256  52.913 -51.899  1.00  0.00     0.046 A 
HETATM   22 CL   UNL     1     -40.037  53.660 -50.354  1.00  0.00    -0.083 Cl
HETATM   23  C   UNL     1     -39.348  51.911 -52.260  1.00  0.00     0.025 A 
HETATM   24  C   UNL     1     -39.429  51.306 -53.516  1.00  0.00     0.002 A 
HETATM   25  C   UNL     1     -40.417  51.699 -54.414  1.00  0.00     0.001 A 
HETATM   26  C   UNL     1     -41.332  52.692 -54.056  1.00  0.00     0.016 A 
ENDBRANCH   2  20
TORSDOF 4
ENDMDL
MODEL 4
REMARK VINA RESULT:      -7.8      2.773      4.281
REMARK  4 active torsions:
REMARK  status: ('A' for Active; 'I' for Inactive)
REMARK    1  A    between atoms: C_4  and  N_5 
REMARK    2  A    between atoms: N_5  and  N_6 
REMARK       I    between atoms: N_6  and  C_7 
REMARK    3  A    between atoms: C_7  and  C_8 
REMARK    4  A    between atoms: C_9  and  C_10 
ROOT
HETATM    1  C   UNL     1     -43.708  57.026 -54.099  1.00  0.00     0.081 A 
HETATM    2  C   UNL     1     -43.623  57.392 -52.720  1.00  0.00     0.106 A 
HETATM    3  N   UNL     1     -44.481  58.382 -52.427  1.00  0.00    -0.173 NA
HETATM    4  N   UNL     1     -45.099  58.649 -53.584  1.00  0.00    -0.288 N 
HETATM    5  H   UNL     1     -45.802  59.381 -53.598  1.00  0.00     0.188 HD
HETATM    6  C   UNL     1     -44.693  57.852 -54.607  1.00  0.00     0.128 A 
ENDROOT
BRANCH   1   7
HETATM    7  C   UNL     1     -43.013  56.011 -54.874  1.00  0.00     0.270 C 
HETATM    8  N   UNL     1     -43.053  54.733 -54.341  1.00  0.00    -0.283 N 
HETATM    9  H   UNL     1     -43.479  54.514 -53.448  1.00  0.00     0.184 HD
HETATM   10  O   UNL     1     -42.426  56.289 -55.917  1.00  0.00    -0.266 OA
BRANCH   8  11
HETATM   11  N   UNL     1     -42.324  53.725 -54.993  1.00  0.00    -0.203 NA
HETATM   12  H   UNL     1     -42.928  53.102 -55.528  1.00  0.00     0.153 HD
BRANCH  11  13
HETATM   13  C   UNL     1     -41.369  53.057 -54.197  1.00  0.00     0.028 A 
HETATM   14  C   UNL     1     -40.822  51.820 -54.567  1.00  0.00     0.032 A 
HETATM   15  C   UNL     1     -39.929  51.135 -53.727  1.00  0.00    -0.060 A 
HETATM   16  C   UNL     1     -39.391  49.791 -54.118  1.00  0.00     0.048 C 
HETATM   17  C   UNL     1     -39.610  51.685 -52.482  1.00  0.00     0.007 A 
HETATM   18  C   UNL     1     -40.168  52.899 -52.087  1.00  0.00     0.002 A 
HETATM   19  C   UNL     1     -41.049  53.572 -52.934  1.00  0.00     0.025 A 
ENDBRANCH  11  13
ENDBRANCH   8  11
ENDBRANCH   1   7
BRANCH   2  20
HETATM   20  C   UNL     1     -42.831  56.778 -51.659  1.00  0.00     0.017 A 
HETATM   21  C   UNL     1     -41.559  57.245 -51.298  1.00  0.00     0.046 A 
HETATM   22 CL   UNL     1     -40.765  58.533 -52.137  1.00  0.00    -0.083 Cl
HETATM   23  C   UNL     1     -40.856  56.633 -50.253  1.00  0.00     0.025 A 
HETATM   24  C   UNL     1     -41.412  55.549 -49.570  1.00  0.00     0.002 A 
HETATM   25  C   UNL     1     -42.670  55.072 -49.929  1.00  0.00     0.001 A 
HETATM   26  C   UNL     1     -43.379  55.684 -50.965  1.00  0.00     0.016 A 
ENDBRANCH   2  20
TORSDOF 4
ENDMDL
MODEL 5
REMARK VINA RESULT:      -7.7      2.668      4.319
REMARK  4 active torsions:
REMARK  status: ('A' for Active; 'I' for Inactive)
REMARK    1  A    between atoms: C_4  and  N_5 
REMARK    2  A    between atoms: N_5  and  N_6 
REMARK       I    between atoms: N_6  and  C_7 
REMARK    3  A    between atoms: C_7  and  C_8 
REMARK    4  A    between atoms: C_9  and  C_10 
ROOT
HETATM    1  C   UNL     1     -42.326  57.681 -54.742  1.00  0.00     0.081 A 
HETATM    2  C   UNL     1     -41.728  58.869 -54.220  1.00  0.00     0.106 A 
HETATM    3  N   UNL     1     -41.601  59.808 -55.171  1.00  0.00    -0.173 NA
HETATM    4  N   UNL     1     -42.102  59.241 -56.275  1.00  0.00    -0.288 N 
HETATM    5  H   UNL     1     -42.105  59.780 -57.135  1.00  0.00     0.188 HD
HETATM    6  C   UNL     1     -42.570  57.982 -56.069  1.00  0.00     0.128 A 
ENDROOT
BRANCH   1   7
HETATM    7  C   UNL     1     -42.686  56.422 -54.110  1.00  0.00     0.270 C 
HETATM    8  N   UNL     1     -42.135  55.293 -54.691  1.00  0.00    -0.283 N 
HETATM    9  H   UNL     1     -41.569  55.318 -55.532  1.00  0.00     0.184 HD
HETATM   10  O   UNL     1     -43.438  56.384 -53.138  1.00  0.00    -0.266 OA
BRANCH   8  11
HETATM   11  N   UNL     1     -42.516  54.040 -54.185  1.00  0.00    -0.203 NA
HETATM   12  H   UNL     1     -43.330  54.106 -53.574  1.00  0.00     0.153 HD
BRANCH  11  13
HETATM   13  C   UNL     1     -41.467  53.252 -53.662  1.00  0.00     0.028 A 
HETATM   14  C   UNL     1     -41.002  52.101 -54.314  1.00  0.00     0.032 A 
HETATM   15  C   UNL     1     -40.009  51.289 -53.742  1.00  0.00    -0.060 A 
HETATM   16  C   UNL     1     -39.557  50.036 -54.431  1.00  0.00     0.048 C 
HETATM   17  C   UNL     1     -39.502  51.620 -52.482  1.00  0.00     0.007 A 
HETATM   18  C   UNL     1     -39.975  52.744 -51.808  1.00  0.00     0.002 A 
HETATM   19  C   UNL     1     -40.958  53.546 -52.391  1.00  0.00     0.025 A 
ENDBRANCH  11  13
ENDBRANCH   8  11
ENDBRANCH   1   7
BRANCH   2  20
HETATM   20  C   UNL     1     -41.359  59.177 -52.841  1.00  0.00     0.017 A 
HETATM   21  C   UNL     1     -42.264  59.725 -51.920  1.00  0.00     0.046 A 
HETATM   22 CL   UNL     1     -43.877  60.176 -52.352  1.00  0.00    -0.083 Cl
HETATM   23  C   UNL     1     -41.861  59.974 -50.603  1.00  0.00     0.025 A 
HETATM   24  C   UNL     1     -40.555  59.689 -50.199  1.00  0.00     0.002 A 
HETATM   25  C   UNL     1     -39.648  59.155 -51.110  1.00  0.00     0.001 A 
HETATM   26  C   UNL     1     -40.046  58.897 -52.423  1.00  0.00     0.016 A 
ENDBRANCH   2  20
TORSDOF 4
ENDMDL
MODEL 6
REMARK VINA RESULT:      -7.7      3.029      6.271
REMARK  4 active torsions:
REMARK  status: ('A' for Active; 'I' for Inactive)
REMARK    1  A    between atoms: C_4  and  N_5 
REMARK    2  A    between atoms: N_5  and  N_6 
REMARK       I    between atoms: N_6  and  C_7 
REMARK    3  A    between atoms: C_7  and  C_8 
REMARK    4  A    between atoms: C_9  and  C_10 
ROOT
HETATM    1  C   UNL     1     -41.755  54.644 -50.208  1.00  0.00     0.081 A 
HETATM    2  C   UNL     1     -40.633  54.220 -50.985  1.00  0.00     0.106 A 
HETATM    3  N   UNL     1     -39.565  53.982 -50.207  1.00  0.00    -0.173 NA
HETATM    4  N   UNL     1     -39.985  54.248 -48.965  1.00  0.00    -0.288 N 
HETATM    5  H   UNL     1     -39.327  54.136 -48.200  1.00  0.00     0.188 HD
HETATM    6  C   UNL     1     -41.290  54.623 -48.906  1.00  0.00     0.128 A 
ENDROOT
BRANCH   1   7
HETATM    7  C   UNL     1     -43.117  54.989 -50.584  1.00  0.00     0.270 C 
HETATM    8  N   UNL     1     -43.464  56.314 -50.384  1.00  0.00    -0.283 N 
HETATM    9  H   UNL     1     -42.849  56.994 -49.952  1.00  0.00     0.184 HD
HETATM   10  O   UNL     1     -43.891  54.147 -51.032  1.00  0.00    -0.266 OA
BRANCH   8  11
HETATM   11  N   UNL     1     -44.793  56.692 -50.640  1.00  0.00    -0.203 NA
HETATM   12  H   UNL     1     -45.384  55.888 -50.852  1.00  0.00     0.153 HD
BRANCH  11  13
HETATM   13  C   UNL     1     -44.954  57.775 -51.531  1.00  0.00     0.028 A 
HETATM   14  C   UNL     1     -45.615  58.955 -51.160  1.00  0.00     0.032 A 
HETATM   15  C   UNL     1     -45.831  59.992 -52.081  1.00  0.00    -0.060 A 
HETATM   16  C   UNL     1     -46.582  61.227 -51.680  1.00  0.00     0.048 C 
HETATM   17  C   UNL     1     -45.408  59.826 -53.404  1.00  0.00     0.007 A 
HETATM   18  C   UNL     1     -44.776  58.648 -53.795  1.00  0.00     0.002 A 
HETATM   19  C   UNL     1     -44.562  57.627 -52.867  1.00  0.00     0.025 A 
ENDBRANCH  11  13
ENDBRANCH   8  11
ENDBRANCH   1   7
BRANCH   2  20
HETATM   20  C   UNL     1     -40.566  53.945 -52.417  1.00  0.00     0.017 A 
HETATM   21  C   UNL     1     -40.702  54.948 -53.388  1.00  0.00     0.046 A 
HETATM   22 CL   UNL     1     -41.056  56.593 -52.986  1.00  0.00    -0.083 Cl
HETATM   23  C   UNL     1     -40.601  54.629 -54.747  1.00  0.00     0.025 A 
HETATM   24  C   UNL     1     -40.375  53.310 -55.146  1.00  0.00     0.002 A 
HETATM   25  C   UNL     1     -40.250  52.306 -54.190  1.00  0.00     0.001 A 
HETATM   26  C   UNL     1     -40.341  52.620 -52.832  1.00  0.00     0.016 A 
ENDBRANCH   2  20
TORSDOF 4
ENDMDL
MODEL 7
REMARK VINA RESULT:      -7.5      2.720      4.406
REMARK  4 active torsions:
REMARK  status: ('A' for Active; 'I' for Inactive)
REMARK    1  A    between atoms: C_4  and  N_5 
REMARK    2  A    between atoms: N_5  and  N_6 
REMARK       I    between atoms: N_6  and  C_7 
REMARK    3  A    between atoms: C_7  and  C_8 
REMARK    4  A    between atoms: C_9  and  C_10 
ROOT
HETATM    1  C   UNL     1     -42.249  56.766 -56.080  1.00  0.00     0.081 A 
HETATM    2  C   UNL     1     -42.202  57.915 -55.230  1.00  0.00     0.106 A 
HETATM    3  N   UNL     1     -42.451  59.040 -55.920  1.00  0.00    -0.173 NA
HETATM    4  N   UNL     1     -42.651  58.629 -57.177  1.00  0.00    -0.288 N 
HETATM    5  H   UNL     1     -42.858  59.327 -57.885  1.00  0.00     0.188 HD
HETATM    6  C   UNL     1     -42.567  57.281 -57.324  1.00  0.00     0.128 A 
ENDROOT
BRANCH   1   7
HETATM    7  C   UNL     1     -42.075  55.350 -55.801  1.00  0.00     0.270 C 
HETATM    8  N   UNL     1     -40.800  54.981 -55.408  1.00  0.00    -0.283 N 
HETATM    9  H   UNL     1     -40.018  55.625 -55.370  1.00  0.00     0.184 HD
HETATM   10  O   UNL     1     -43.001  54.553 -55.925  1.00  0.00    -0.266 OA
BRANCH   8  11
HETATM   11  N   UNL     1     -40.541  53.614 -55.213  1.00  0.00    -0.203 NA
HETATM   12  H   UNL     1     -41.175  53.024 -55.753  1.00  0.00     0.153 HD
BRANCH  11  13
HETATM   13  C   UNL     1     -40.387  53.212 -53.869  1.00  0.00     0.028 A 
HETATM   14  C   UNL     1     -40.647  54.077 -52.795  1.00  0.00     0.032 A 
HETATM   15  C   UNL     1     -40.417  53.683 -51.468  1.00  0.00    -0.060 A 
HETATM   16  C   UNL     1     -40.656  54.637 -50.335  1.00  0.00     0.048 C 
HETATM   17  C   UNL     1     -39.885  52.415 -51.217  1.00  0.00     0.007 A 
HETATM   18  C   UNL     1     -39.593  51.554 -52.273  1.00  0.00     0.002 A 
HETATM   19  C   UNL     1     -39.833  51.956 -53.589  1.00  0.00     0.025 A 
ENDBRANCH  11  13
ENDBRANCH   8  11
ENDBRANCH   1   7
BRANCH   2  20
HETATM   20  C   UNL     1     -42.021  57.974 -53.783  1.00  0.00     0.017 A 
HETATM   21  C   UNL     1     -43.058  57.701 -52.879  1.00  0.00     0.046 A 
HETATM   22 CL   UNL     1     -44.675  57.361 -53.390  1.00  0.00    -0.083 Cl
HETATM   23  C   UNL     1     -42.819  57.747 -51.501  1.00  0.00     0.025 A 
HETATM   24  C   UNL     1     -41.550  58.074 -51.016  1.00  0.00     0.002 A 
HETATM   25  C   UNL     1     -40.518  58.356 -51.906  1.00  0.00     0.001 A 
HETATM   26  C   UNL     1     -40.749  58.303 -53.283  1.00  0.00     0.016 A 
ENDBRANCH   2  20
TORSDOF 4
ENDMDL
MODEL 8
REMARK VINA RESULT:      -7.5      3.222      6.341
REMARK  4 active torsions:
REMARK  status: ('A' for Active; 'I' for Inactive)
REMARK    1  A    between atoms: C_4  and  N_5 
REMARK    2  A    between atoms: N_5  and  N_6 
REMARK       I    between atoms: N_6  and  C_7 
REMARK    3  A    between atoms: C_7  and  C_8 
REMARK    4  A    between atoms: C_9  and  C_10 
ROOT
HETATM    1  C   UNL     1     -42.797  56.194 -52.366  1.00  0.00     0.081 A 
HETATM    2  C   UNL     1     -42.592  54.847 -51.932  1.00  0.00     0.106 A 
HETATM    3  N   UNL     1     -43.476  54.503 -50.982  1.00  0.00    -0.173 NA
HETATM    4  N   UNL     1     -44.227  55.597 -50.806  1.00  0.00    -0.288 N 
HETATM    5  H   UNL     1     -44.973  55.563 -50.118  1.00  0.00     0.188 HD
HETATM    6  C   UNL     1     -43.881  56.625 -51.623  1.00  0.00     0.128 A 
ENDROOT
BRANCH   1   7
HETATM    7  C   UNL     1     -42.124  56.998 -53.372  1.00  0.00     0.270 C 
HETATM    8  N   UNL     1     -42.900  57.343 -54.466  1.00  0.00    -0.283 N 
HETATM    9  H   UNL     1     -43.850  57.016 -54.602  1.00  0.00     0.184 HD
HETATM   10  O   UNL     1     -40.946  57.326 -53.249  1.00  0.00    -0.266 OA
BRANCH   8  11
HETATM   11  N   UNL     1     -42.282  58.041 -55.517  1.00  0.00    -0.203 NA
HETATM   12  H   UNL     1     -42.507  59.035 -55.499  1.00  0.00     0.153 HD
BRANCH  11  13
HETATM   13  C   UNL     1     -42.402  57.447 -56.792  1.00  0.00     0.028 A 
HETATM   14  C   UNL     1     -42.101  58.143 -57.972  1.00  0.00     0.032 A 
HETATM   15  C   UNL     1     -42.297  57.561 -59.234  1.00  0.00    -0.060 A 
HETATM   16  C   UNL     1     -42.015  58.337 -60.486  1.00  0.00     0.048 C 
HETATM   17  C   UNL     1     -42.837  56.273 -59.313  1.00  0.00     0.007 A 
HETATM   18  C   UNL     1     -43.169  55.580 -58.151  1.00  0.00     0.002 A 
HETATM   19  C   UNL     1     -42.963  56.168 -56.902  1.00  0.00     0.025 A 
ENDBRANCH  11  13
ENDBRANCH   8  11
ENDBRANCH   1   7
BRANCH   2  20
HETATM   20  C   UNL     1     -41.655  53.854 -52.448  1.00  0.00     0.017 A 
HETATM   21  C   UNL     1     -40.610  53.327 -51.675  1.00  0.00     0.046 A 
HETATM   22 CL   UNL     1     -40.271  53.871 -50.069  1.00  0.00    -0.083 Cl
HETATM   23  C   UNL     1     -39.758  52.356 -52.215  1.00  0.00     0.025 A 
HETATM   24  C   UNL     1     -39.936  51.913 -53.527  1.00  0.00     0.002 A 
HETATM   25  C   UNL     1     -40.965  52.439 -54.305  1.00  0.00     0.001 A 
HETATM   26  C   UNL     1     -41.823  53.402 -53.769  1.00  0.00     0.016 A 
ENDBRANCH   2  20
TORSDOF 4
ENDMDL
MODEL 9
REMARK VINA RESULT:      -7.3     13.931     15.949
REMARK  4 active torsions:
REMARK  status: ('A' for Active; 'I' for Inactive)
REMARK    1  A    between atoms: C_4  and  N_5 
REMARK    2  A    between atoms: N_5  and  N_6 
REMARK       I    between atoms: N_6  and  C_7 
REMARK    3  A    between atoms: C_7  and  C_8 
REMARK    4  A    between atoms: C_9  and  C_10 
ROOT
HETATM    1  C   UNL     1     -37.125  40.874 -52.507  1.00  0.00     0.081 A 
HETATM    2  C   UNL     1     -36.269  40.141 -51.628  1.00  0.00     0.106 A 
HETATM    3  N   UNL     1     -36.981  39.398 -50.765  1.00  0.00    -0.173 NA
HETATM    4  N   UNL     1     -38.258  39.647 -51.077  1.00  0.00    -0.288 N 
HETATM    5  H   UNL     1     -38.984  39.184 -50.539  1.00  0.00     0.188 HD
HETATM    6  C   UNL     1     -38.400  40.501 -52.123  1.00  0.00     0.128 A 
ENDROOT
BRANCH   1   7
HETATM    7  C   UNL     1     -36.834  41.780 -53.606  1.00  0.00     0.270 C 
HETATM    8  N   UNL     1     -37.581  41.573 -54.753  1.00  0.00    -0.283 N 
HETATM    9  H   UNL     1     -38.243  40.812 -54.858  1.00  0.00     0.184 HD
HETATM   10  O   UNL     1     -35.974  42.652 -53.509  1.00  0.00    -0.266 OA
BRANCH   8  11
HETATM   11  N   UNL     1     -37.285  42.354 -55.882  1.00  0.00    -0.203 NA
HETATM   12  H   UNL     1     -37.713  43.278 -55.830  1.00  0.00     0.153 HD
BRANCH  11  13
HETATM   13  C   UNL     1     -37.455  41.710 -57.126  1.00  0.00     0.028 A 
HETATM   14  C   UNL     1     -37.879  40.377 -57.226  1.00  0.00     0.032 A 
HETATM   15  C   UNL     1     -37.971  39.731 -58.469  1.00  0.00    -0.060 A 
HETATM   16  C   UNL     1     -38.380  38.290 -58.553  1.00  0.00     0.048 C 
HETATM   17  C   UNL     1     -37.597  40.423 -59.625  1.00  0.00     0.007 A 
HETATM   18  C   UNL     1     -37.146  41.739 -59.540  1.00  0.00     0.002 A 
HETATM   19  C   UNL     1     -37.065  42.371 -58.298  1.00  0.00     0.025 A 
ENDBRANCH  11  13
ENDBRANCH   8  11
ENDBRANCH   1   7
BRANCH   2  20
HETATM   20  C   UNL     1     -34.812  40.049 -51.638  1.00  0.00     0.017 A 
HETATM   21  C   UNL     1     -34.098  39.455 -52.689  1.00  0.00     0.046 A 
HETATM   22 CL   UNL     1     -34.878  38.690 -54.030  1.00  0.00    -0.083 Cl
HETATM   23  C   UNL     1     -32.700  39.420 -52.656  1.00  0.00     0.025 A 
HETATM   24  C   UNL     1     -32.006  39.966 -51.574  1.00  0.00     0.002 A 
HETATM   25  C   UNL     1     -32.707  40.548 -50.522  1.00  0.00     0.001 A 
HETATM   26  C   UNL     1     -34.102  40.593 -50.553  1.00  0.00     0.016 A 
ENDBRANCH   2  20
TORSDOF 4
ENDMDL
MODEL 10
REMARK VINA RESULT:      -7.2      2.923      3.723
REMARK  4 active torsions:
REMARK  status: ('A' for Active; 'I' for Inactive)
REMARK    1  A    between atoms: C_4  and  N_5 
REMARK    2  A    between atoms: N_5  and  N_6 
REMARK       I    between atoms: N_6  and  C_7 
REMARK    3  A    between atoms: C_7  and  C_8 
REMARK    4  A    between atoms: C_9  and  C_10 
ROOT
HETATM    1  C   UNL     1     -43.590  56.565 -52.369  1.00  0.00     0.081 A 
HETATM    2  C   UNL     1     -43.920  57.936 -52.597  1.00  0.00     0.106 A 
HETATM    3  N   UNL     1     -44.413  58.509 -51.487  1.00  0.00    -0.173 NA
HETATM    4  N   UNL     1     -44.404  57.533 -50.571  1.00  0.00    -0.288 N 
HETATM    5  H   UNL     1     -44.744  57.745 -49.638  1.00  0.00     0.188 HD
HETATM    6  C   UNL     1     -43.900  56.361 -51.037  1.00  0.00     0.128 A 
ENDROOT
BRANCH   1   7
HETATM    7  C   UNL     1     -43.013  55.552 -53.238  1.00  0.00     0.270 C 
HETATM    8  N   UNL     1     -41.630  55.509 -53.255  1.00  0.00    -0.283 N 
HETATM    9  H   UNL     1     -41.044  56.166 -52.752  1.00  0.00     0.184 HD
HETATM   10  O   UNL     1     -43.721  54.806 -53.911  1.00  0.00    -0.266 OA
BRANCH   8  11
HETATM   11  N   UNL     1     -41.010  54.615 -54.143  1.00  0.00    -0.203 NA
HETATM   12  H   UNL     1     -41.582  54.438 -54.969  1.00  0.00     0.153 HD
BRANCH  11  13
HETATM   13  C   UNL     1     -40.474  53.448 -53.555  1.00  0.00     0.028 A 
HETATM   14  C   UNL     1     -40.250  52.276 -54.291  1.00  0.00     0.032 A 
HETATM   15  C   UNL     1     -39.786  51.103 -53.673  1.00  0.00    -0.060 A 
HETATM   16  C   UNL     1     -39.597  49.845 -54.467  1.00  0.00     0.048 C 
HETATM   17  C   UNL     1     -39.580  51.099 -52.290  1.00  0.00     0.007 A 
HETATM   18  C   UNL     1     -39.826  52.247 -51.541  1.00  0.00     0.002 A 
HETATM   19  C   UNL     1     -40.281  53.408 -52.168  1.00  0.00     0.025 A 
ENDBRANCH  11  13
ENDBRANCH   8  11
ENDBRANCH   1   7
BRANCH   2  20
HETATM   20  C   UNL     1     -43.699  58.742 -53.794  1.00  0.00     0.017 A 
HETATM   21  C   UNL     1     -42.438  59.248 -54.145  1.00  0.00     0.046 A 
HETATM   22 CL   UNL     1     -41.042  59.046 -53.144  1.00  0.00    -0.083 Cl
HETATM   23  C   UNL     1     -42.282  59.992 -55.319  1.00  0.00     0.025 A 
HETATM   24  C   UNL     1     -43.379  60.245 -56.145  1.00  0.00     0.002 A 
HETATM   25  C   UNL     1     -44.636  59.756 -55.799  1.00  0.00     0.001 A 
HETATM   26  C   UNL     1     -44.797  59.006 -54.633  1.00  0.00     0.016 A 
ENDBRANCH   2  20
TORSDOF 4
ENDMDL
