MODEL 1
REMARK VINA RESULT:      -8.6      0.000      0.000
REMARK  5 active torsions:
REMARK  status: ('A' for Active; 'I' for Inactive)
REMARK    1  A    between atoms: O_2  and  C_3 
REMARK    2  A    between atoms: C_4  and  C_5 
REMARK    3  A    between atoms: C_9  and  N_10 
REMARK       I    between atoms: N_10  and  C_11 
REMARK    4  A    between atoms: C_11  and  C_12 
REMARK    5  A    between atoms: C_12  and  C_13 
ROOT
HETATM    1  C   UNL     1     -41.918  54.268 -54.212  1.00  0.00     0.093 A 
HETATM    2  N   UNL     1     -43.259  54.258 -54.288  1.00  0.00    -0.172 NA
HETATM    3  N   UNL     1     -43.530  54.868 -55.456  1.00  0.00    -0.262 N 
HETATM    4  H   UNL     1     -44.497  54.985 -55.750  1.00  0.00     0.191 HD
HETATM    5  C   UNL     1     -42.412  55.223 -56.162  1.00  0.00     0.126 A 
HETATM    6  C   UNL     1     -41.349  54.879 -55.366  1.00  0.00     0.084 A 
ENDROOT
BRANCH   5   7
HETATM    7  N   UNL     1     -42.425  55.776 -57.424  1.00  0.00    -0.311 N 
HETATM    8  C   UNL     1     -43.129  56.929 -57.707  1.00  0.00     0.236 C 
HETATM    9  O   UNL     1     -43.699  57.642 -56.887  1.00  0.00    -0.272 OA
HETATM   10  H   UNL     1     -41.994  55.261 -58.181  1.00  0.00     0.170 HD
BRANCH   8  11
HETATM   11  C   UNL     1     -43.202  57.242 -59.181  1.00  0.00     0.068 A 
HETATM   12  C   UNL     1     -42.326  58.379 -59.703  1.00  0.00     0.026 A 
HETATM   13  C   UNL     1     -41.968  56.966 -60.037  1.00  0.00     0.026 A 
BRANCH  11  14
HETATM   14  C   UNL     1     -44.587  57.085 -59.804  1.00  0.00    -0.040 A 
HETATM   15  C   UNL     1     -44.945  55.894 -60.463  1.00  0.00     0.010 A 
HETATM   16  C   UNL     1     -46.190  55.749 -61.086  1.00  0.00     0.024 A 
HETATM   17  C   UNL     1     -47.099  56.801 -61.059  1.00  0.00     0.034 A 
HETATM   18 CL   UNL     1     -48.627  56.633 -61.832  1.00  0.00    -0.084 Cl
HETATM   19  C   UNL     1     -46.776  57.991 -60.414  1.00  0.00     0.024 A 
HETATM   20  C   UNL     1     -45.531  58.128 -59.794  1.00  0.00     0.010 A 
ENDBRANCH  11  14
ENDBRANCH   8  11
ENDBRANCH   5   7
BRANCH   1  21
HETATM   21  C   UNL     1     -41.193  53.638 -53.110  1.00  0.00     0.029 A 
HETATM   22  C   UNL     1     -40.461  52.450 -53.263  1.00  0.00     0.081 A 
HETATM   23  C   UNL     1     -39.802  51.872 -52.172  1.00  0.00     0.039 A 
HETATM   24  C   UNL     1     -39.842  52.492 -50.923  1.00  0.00     0.026 A 
HETATM   25  C   UNL     1     -40.552  53.680 -50.768  1.00  0.00     0.035 A 
HETATM   26  C   UNL     1     -41.227  54.251 -51.846  1.00  0.00     0.040 A 
HETATM   27 CL   UNL     1     -40.609  54.444 -49.227  1.00  0.00    -0.084 Cl
BRANCH  22  28
HETATM   28  O   UNL     1     -40.452  51.771 -54.455  1.00  0.00    -0.355 OA
HETATM   29  C   UNL     1     -40.043  50.417 -54.250  1.00  0.00     0.210 C 
ENDBRANCH  22  28
ENDBRANCH   1  21
TORSDOF 5
ENDMDL
MODEL 2
REMARK VINA RESULT:      -8.6      1.604      2.171
REMARK  5 active torsions:
REMARK  status: ('A' for Active; 'I' for Inactive)
REMARK    1  A    between atoms: O_2  and  C_3 
REMARK    2  A    between atoms: C_4  and  C_5 
REMARK    3  A    between atoms: C_9  and  N_10 
REMARK       I    between atoms: N_10  and  C_11 
REMARK    4  A    between atoms: C_11  and  C_12 
REMARK    5  A    between atoms: C_12  and  C_13 
ROOT
HETATM    1  C   UNL     1     -41.798  54.061 -54.453  1.00  0.00     0.093 A 
HETATM    2  N   UNL     1     -43.118  54.274 -54.343  1.00  0.00    -0.172 NA
HETATM    3  N   UNL     1     -43.424  55.030 -55.413  1.00  0.00    -0.262 N 
HETATM    4  H   UNL     1     -44.385  55.328 -55.560  1.00  0.00     0.191 HD
HETATM    5  C   UNL     1     -42.358  55.269 -56.238  1.00  0.00     0.126 A 
HETATM    6  C   UNL     1     -41.280  54.682 -55.625  1.00  0.00     0.084 A 
ENDROOT
BRANCH   5   7
HETATM    7  N   UNL     1     -42.432  55.936 -57.441  1.00  0.00    -0.311 N 
HETATM    8  C   UNL     1     -43.316  56.977 -57.643  1.00  0.00     0.236 C 
HETATM    9  O   UNL     1     -44.022  57.496 -56.784  1.00  0.00    -0.272 OA
HETATM   10  H   UNL     1     -41.899  55.581 -58.225  1.00  0.00     0.170 HD
BRANCH   8  11
HETATM   11  C   UNL     1     -43.403  57.421 -59.082  1.00  0.00     0.068 A 
HETATM   12  C   UNL     1     -42.637  58.682 -59.476  1.00  0.00     0.026 A 
HETATM   13  C   UNL     1     -42.139  57.349 -59.935  1.00  0.00     0.026 A 
BRANCH  11  14
HETATM   14  C   UNL     1     -44.760  57.192 -59.745  1.00  0.00    -0.040 A 
HETATM   15  C   UNL     1     -45.029  55.992 -60.429  1.00  0.00     0.010 A 
HETATM   16  C   UNL     1     -46.245  55.782 -61.088  1.00  0.00     0.024 A 
HETATM   17  C   UNL     1     -47.215  56.779 -61.073  1.00  0.00     0.034 A 
HETATM   18 CL   UNL     1     -48.709  56.533 -61.891  1.00  0.00    -0.084 Cl
HETATM   19  C   UNL     1     -46.980  57.976 -60.405  1.00  0.00     0.024 A 
HETATM   20  C   UNL     1     -45.763  58.178 -59.749  1.00  0.00     0.010 A 
ENDBRANCH  11  14
ENDBRANCH   8  11
ENDBRANCH   5   7
BRANCH   1  21
HETATM   21  C   UNL     1     -41.060  53.219 -53.513  1.00  0.00     0.029 A 
HETATM   22  C   UNL     1     -40.827  53.593 -52.180  1.00  0.00     0.081 A 
HETATM   23  C   UNL     1     -40.094  52.762 -51.323  1.00  0.00     0.039 A 
HETATM   24  C   UNL     1     -39.616  51.534 -51.782  1.00  0.00     0.026 A 
HETATM   25  C   UNL     1     -39.859  51.149 -53.098  1.00  0.00     0.035 A 
HETATM   26  C   UNL     1     -40.571  51.980 -53.962  1.00  0.00     0.040 A 
HETATM   27 CL   UNL     1     -39.264  49.638 -53.668  1.00  0.00    -0.084 Cl
BRANCH  22  28
HETATM   28  O   UNL     1     -41.218  54.820 -51.709  1.00  0.00    -0.355 OA
HETATM   29  C   UNL     1     -42.255  54.668 -50.738  1.00  0.00     0.210 C 
ENDBRANCH  22  28
ENDBRANCH   1  21
TORSDOF 5
ENDMDL
MODEL 3
REMARK VINA RESULT:      -8.1      2.921      4.136
REMARK  5 active torsions:
REMARK  status: ('A' for Active; 'I' for Inactive)
REMARK    1  A    between atoms: O_2  and  C_3 
REMARK    2  A    between atoms: C_4  and  C_5 
REMARK    3  A    between atoms: C_9  and  N_10 
REMARK       I    between atoms: N_10  and  C_11 
REMARK    4  A    between atoms: C_11  and  C_12 
REMARK    5  A    between atoms: C_12  and  C_13 
ROOT
HETATM    1  C   UNL     1     -41.837  54.198 -54.668  1.00  0.00     0.093 A 
HETATM    2  N   UNL     1     -43.179  54.250 -54.659  1.00  0.00    -0.172 NA
HETATM    3  N   UNL     1     -43.485  55.110 -55.646  1.00  0.00    -0.262 N 
HETATM    4  H   UNL     1     -44.460  55.322 -55.845  1.00  0.00     0.191 HD
HETATM    5  C   UNL     1     -42.392  55.575 -56.328  1.00  0.00     0.126 A 
HETATM    6  C   UNL     1     -41.305  55.028 -55.695  1.00  0.00     0.084 A 
ENDROOT
BRANCH   5   7
HETATM    7  N   UNL     1     -42.449  56.391 -57.437  1.00  0.00    -0.311 N 
HETATM    8  C   UNL     1     -43.484  57.283 -57.632  1.00  0.00     0.236 C 
HETATM    9  O   UNL     1     -44.373  57.540 -56.826  1.00  0.00    -0.272 OA
HETATM   10  H   UNL     1     -41.769  56.254 -58.173  1.00  0.00     0.170 HD
BRANCH   8  11
HETATM   11  C   UNL     1     -43.482  57.915 -59.002  1.00  0.00     0.068 A 
HETATM   12  C   UNL     1     -43.463  56.979 -60.208  1.00  0.00     0.026 A 
HETATM   13  C   UNL     1     -44.715  57.729 -59.882  1.00  0.00     0.026 A 
BRANCH  11  14
HETATM   14  C   UNL     1     -42.683  59.212 -59.110  1.00  0.00    -0.040 A 
HETATM   15  C   UNL     1     -42.485  59.830 -60.359  1.00  0.00     0.010 A 
HETATM   16  C   UNL     1     -41.712  60.989 -60.487  1.00  0.00     0.024 A 
HETATM   17  C   UNL     1     -41.120  61.549 -59.361  1.00  0.00     0.034 A 
HETATM   18 CL   UNL     1     -40.158  62.967 -59.513  1.00  0.00    -0.084 Cl
HETATM   19  C   UNL     1     -41.296  60.963 -58.111  1.00  0.00     0.024 A 
HETATM   20  C   UNL     1     -42.070  59.805 -57.991  1.00  0.00     0.010 A 
ENDBRANCH  11  14
ENDBRANCH   8  11
ENDBRANCH   5   7
BRANCH   1  21
HETATM   21  C   UNL     1     -41.083  53.317 -53.778  1.00  0.00     0.029 A 
HETATM   22  C   UNL     1     -40.851  53.620 -52.427  1.00  0.00     0.081 A 
HETATM   23  C   UNL     1     -40.102  52.756 -51.620  1.00  0.00     0.039 A 
HETATM   24  C   UNL     1     -39.605  51.563 -52.147  1.00  0.00     0.026 A 
HETATM   25  C   UNL     1     -39.847  51.248 -53.481  1.00  0.00     0.035 A 
HETATM   26  C   UNL     1     -40.575  52.114 -54.297  1.00  0.00     0.040 A 
HETATM   27 CL   UNL     1     -39.229  49.781 -54.136  1.00  0.00    -0.084 Cl
BRANCH  22  28
HETATM   28  O   UNL     1     -41.261  54.813 -51.888  1.00  0.00    -0.355 OA
HETATM   29  C   UNL     1     -42.187  54.582 -50.824  1.00  0.00     0.210 C 
ENDBRANCH  22  28
ENDBRANCH   1  21
TORSDOF 5
ENDMDL
MODEL 4
REMARK VINA RESULT:      -8.0      2.371      3.420
REMARK  5 active torsions:
REMARK  status: ('A' for Active; 'I' for Inactive)
REMARK    1  A    between atoms: O_2  and  C_3 
REMARK    2  A    between atoms: C_4  and  C_5 
REMARK    3  A    between atoms: C_9  and  N_10 
REMARK       I    between atoms: N_10  and  C_11 
REMARK    4  A    between atoms: C_11  and  C_12 
REMARK    5  A    between atoms: C_12  and  C_13 
ROOT
HETATM    1  C   UNL     1     -41.874  54.490 -54.007  1.00  0.00     0.093 A 
HETATM    2  N   UNL     1     -43.167  54.302 -54.312  1.00  0.00    -0.172 NA
HETATM    3  N   UNL     1     -43.342  54.987 -55.457  1.00  0.00    -0.262 N 
HETATM    4  H   UNL     1     -44.257  54.999 -55.902  1.00  0.00     0.191 HD
HETATM    5  C   UNL     1     -42.196  55.566 -55.930  1.00  0.00     0.126 A 
HETATM    6  C   UNL     1     -41.231  55.291 -54.994  1.00  0.00     0.084 A 
ENDROOT
BRANCH   5   7
HETATM    7  N   UNL     1     -42.095  56.240 -57.128  1.00  0.00    -0.311 N 
HETATM    8  C   UNL     1     -43.127  57.016 -57.616  1.00  0.00     0.236 C 
HETATM    9  O   UNL     1     -44.163  57.291 -57.019  1.00  0.00    -0.272 OA
HETATM   10  H   UNL     1     -41.284  56.073 -57.710  1.00  0.00     0.170 HD
BRANCH   8  11
HETATM   11  C   UNL     1     -42.910  57.481 -59.035  1.00  0.00     0.068 A 
HETATM   12  C   UNL     1     -42.419  56.448 -60.046  1.00  0.00     0.026 A 
HETATM   13  C   UNL     1     -43.831  56.933 -60.122  1.00  0.00     0.026 A 
BRANCH  11  14
HETATM   14  C   UNL     1     -42.369  58.903 -59.169  1.00  0.00    -0.040 A 
HETATM   15  C   UNL     1     -42.352  59.549 -60.419  1.00  0.00     0.010 A 
HETATM   16  C   UNL     1     -41.813  60.830 -60.573  1.00  0.00     0.024 A 
HETATM   17  C   UNL     1     -41.278  61.489 -59.471  1.00  0.00     0.034 A 
HETATM   18 CL   UNL     1     -40.603  63.060 -59.656  1.00  0.00    -0.084 Cl
HETATM   19  C   UNL     1     -41.280  60.878 -58.221  1.00  0.00     0.024 A 
HETATM   20  C   UNL     1     -41.821  59.597 -58.075  1.00  0.00     0.010 A 
ENDBRANCH  11  14
ENDBRANCH   8  11
ENDBRANCH   5   7
BRANCH   1  21
HETATM   21  C   UNL     1     -41.243  53.856 -52.852  1.00  0.00     0.029 A 
HETATM   22  C   UNL     1     -40.475  52.685 -52.953  1.00  0.00     0.081 A 
HETATM   23  C   UNL     1     -39.909  52.101 -51.813  1.00  0.00     0.039 A 
HETATM   24  C   UNL     1     -40.079  52.700 -50.564  1.00  0.00     0.026 A 
HETATM   25  C   UNL     1     -40.825  53.871 -50.459  1.00  0.00     0.035 A 
HETATM   26  C   UNL     1     -41.407  54.447 -51.588  1.00  0.00     0.040 A 
HETATM   27 CL   UNL     1     -41.042  54.608 -48.919  1.00  0.00    -0.084 Cl
BRANCH  22  28
HETATM   28  O   UNL     1     -40.341  52.026 -54.148  1.00  0.00    -0.355 OA
HETATM   29  C   UNL     1     -39.760  50.737 -53.941  1.00  0.00     0.210 C 
ENDBRANCH  22  28
ENDBRANCH   1  21
TORSDOF 5
ENDMDL
MODEL 5
REMARK VINA RESULT:      -8.0      2.070      2.810
REMARK  5 active torsions:
REMARK  status: ('A' for Active; 'I' for Inactive)
REMARK    1  A    between atoms: O_2  and  C_3 
REMARK    2  A    between atoms: C_4  and  C_5 
REMARK    3  A    between atoms: C_9  and  N_10 
REMARK       I    between atoms: N_10  and  C_11 
REMARK    4  A    between atoms: C_11  and  C_12 
REMARK    5  A    between atoms: C_12  and  C_13 
ROOT
HETATM    1  C   UNL     1     -41.767  54.039 -54.423  1.00  0.00     0.093 A 
HETATM    2  N   UNL     1     -43.067  54.297 -54.212  1.00  0.00    -0.172 NA
HETATM    3  N   UNL     1     -43.432  55.052 -55.264  1.00  0.00    -0.262 N 
HETATM    4  H   UNL     1     -44.391  55.381 -55.339  1.00  0.00     0.191 HD
HETATM    5  C   UNL     1     -42.427  55.247 -56.174  1.00  0.00     0.126 A 
HETATM    6  C   UNL     1     -41.324  54.631 -55.640  1.00  0.00     0.084 A 
ENDROOT
BRANCH   5   7
HETATM    7  N   UNL     1     -42.575  55.904 -57.376  1.00  0.00    -0.311 N 
HETATM    8  C   UNL     1     -42.805  57.264 -57.438  1.00  0.00     0.236 C 
HETATM    9  O   UNL     1     -42.782  58.040 -56.489  1.00  0.00    -0.272 OA
HETATM   10  H   UNL     1     -42.621  55.355 -58.224  1.00  0.00     0.170 HD
BRANCH   8  11
HETATM   11  C   UNL     1     -43.161  57.749 -58.822  1.00  0.00     0.068 A 
HETATM   12  C   UNL     1     -42.036  58.335 -59.673  1.00  0.00     0.026 A 
HETATM   13  C   UNL     1     -42.593  56.991 -60.019  1.00  0.00     0.026 A 
BRANCH  11  14
HETATM   14  C   UNL     1     -44.538  58.399 -58.940  1.00  0.00    -0.040 A 
HETATM   15  C   UNL     1     -44.697  59.783 -58.742  1.00  0.00     0.010 A 
HETATM   16  C   UNL     1     -45.956  60.389 -58.794  1.00  0.00     0.024 A 
HETATM   17  C   UNL     1     -47.083  59.614 -59.045  1.00  0.00     0.034 A 
HETATM   18 CL   UNL     1     -48.637  60.351 -59.099  1.00  0.00    -0.084 Cl
HETATM   19  C   UNL     1     -46.960  58.243 -59.246  1.00  0.00     0.024 A 
HETATM   20  C   UNL     1     -45.698  57.644 -59.193  1.00  0.00     0.010 A 
ENDBRANCH  11  14
ENDBRANCH   8  11
ENDBRANCH   5   7
BRANCH   1  21
HETATM   21  C   UNL     1     -40.985  53.183 -53.533  1.00  0.00     0.029 A 
HETATM   22  C   UNL     1     -40.676  53.541 -52.211  1.00  0.00     0.081 A 
HETATM   23  C   UNL     1     -39.904  52.697 -51.404  1.00  0.00     0.039 A 
HETATM   24  C   UNL     1     -39.460  51.471 -51.900  1.00  0.00     0.026 A 
HETATM   25  C   UNL     1     -39.778  51.101 -53.204  1.00  0.00     0.035 A 
HETATM   26  C   UNL     1     -40.530  51.946 -54.020  1.00  0.00     0.040 A 
HETATM   27 CL   UNL     1     -39.226  49.592 -53.821  1.00  0.00    -0.084 Cl
BRANCH  22  28
HETATM   28  O   UNL     1     -41.033  54.766 -51.707  1.00  0.00    -0.355 OA
HETATM   29  C   UNL     1     -41.998  54.610 -50.665  1.00  0.00     0.210 C 
ENDBRANCH  22  28
ENDBRANCH   1  21
TORSDOF 5
ENDMDL
MODEL 6
REMARK VINA RESULT:      -7.9      5.375      9.095
REMARK  5 active torsions:
REMARK  status: ('A' for Active; 'I' for Inactive)
REMARK    1  A    between atoms: O_2  and  C_3 
REMARK    2  A    between atoms: C_4  and  C_5 
REMARK    3  A    between atoms: C_9  and  N_10 
REMARK       I    between atoms: N_10  and  C_11 
REMARK    4  A    between atoms: C_11  and  C_12 
REMARK    5  A    between atoms: C_12  and  C_13 
ROOT
HETATM    1  C   UNL     1     -44.712  58.585 -51.336  1.00  0.00     0.093 A 
HETATM    2  N   UNL     1     -45.109  57.381 -50.893  1.00  0.00    -0.172 NA
HETATM    3  N   UNL     1     -44.313  56.510 -51.537  1.00  0.00    -0.262 N 
HETATM    4  H   UNL     1     -44.416  55.512 -51.367  1.00  0.00     0.191 HD
HETATM    5  C   UNL     1     -43.380  57.110 -52.341  1.00  0.00     0.126 A 
HETATM    6  C   UNL     1     -43.635  58.455 -52.259  1.00  0.00     0.084 A 
ENDROOT
BRANCH   5   7
HETATM    7  N   UNL     1     -42.393  56.440 -53.031  1.00  0.00    -0.311 N 
HETATM    8  C   UNL     1     -42.536  55.119 -53.407  1.00  0.00     0.236 C 
HETATM    9  O   UNL     1     -43.555  54.446 -53.292  1.00  0.00    -0.272 OA
HETATM   10  H   UNL     1     -41.503  56.900 -53.168  1.00  0.00     0.170 HD
BRANCH   8  11
HETATM   11  C   UNL     1     -41.267  54.508 -53.947  1.00  0.00     0.068 A 
HETATM   12  C   UNL     1     -41.078  54.501 -55.462  1.00  0.00     0.026 A 
HETATM   13  C   UNL     1     -40.256  55.429 -54.626  1.00  0.00     0.026 A 
BRANCH  11  14
HETATM   14  C   UNL     1     -40.759  53.293 -53.173  1.00  0.00    -0.040 A 
HETATM   15  C   UNL     1     -40.634  53.336 -51.772  1.00  0.00     0.010 A 
HETATM   16  C   UNL     1     -40.122  52.252 -51.051  1.00  0.00     0.024 A 
HETATM   17  C   UNL     1     -39.723  51.103 -51.725  1.00  0.00     0.034 A 
HETATM   18 CL   UNL     1     -39.082  49.772 -50.844  1.00  0.00    -0.084 Cl
HETATM   19  C   UNL     1     -39.835  51.029 -53.110  1.00  0.00     0.024 A 
HETATM   20  C   UNL     1     -40.348  52.115 -53.824  1.00  0.00     0.010 A 
ENDBRANCH  11  14
ENDBRANCH   8  11
ENDBRANCH   5   7
BRANCH   1  21
HETATM   21  C   UNL     1     -45.286  59.831 -50.833  1.00  0.00     0.029 A 
HETATM   22  C   UNL     1     -46.105  60.661 -51.616  1.00  0.00     0.081 A 
HETATM   23  C   UNL     1     -46.613  61.858 -51.097  1.00  0.00     0.039 A 
HETATM   24  C   UNL     1     -46.332  62.222 -49.780  1.00  0.00     0.026 A 
HETATM   25  C   UNL     1     -45.534  61.396 -48.993  1.00  0.00     0.035 A 
HETATM   26  C   UNL     1     -45.010  60.211 -49.509  1.00  0.00     0.040 A 
HETATM   27 CL   UNL     1     -45.181  61.846 -47.369  1.00  0.00    -0.084 Cl
BRANCH  22  28
HETATM   28  O   UNL     1     -46.349  60.376 -52.935  1.00  0.00    -0.355 OA
HETATM   29  C   UNL     1     -45.656  61.300 -53.777  1.00  0.00     0.210 C 
ENDBRANCH  22  28
ENDBRANCH   1  21
TORSDOF 5
ENDMDL
MODEL 7
REMARK VINA RESULT:      -7.8      2.947      8.746
REMARK  5 active torsions:
REMARK  status: ('A' for Active; 'I' for Inactive)
REMARK    1  A    between atoms: O_2  and  C_3 
REMARK    2  A    between atoms: C_4  and  C_5 
REMARK    3  A    between atoms: C_9  and  N_10 
REMARK       I    between atoms: N_10  and  C_11 
REMARK    4  A    between atoms: C_11  and  C_12 
REMARK    5  A    between atoms: C_12  and  C_13 
ROOT
HETATM    1  C   UNL     1     -43.237  57.135 -56.768  1.00  0.00     0.093 A 
HETATM    2  N   UNL     1     -44.358  57.499 -56.125  1.00  0.00    -0.172 NA
HETATM    3  N   UNL     1     -44.310  56.822 -54.963  1.00  0.00    -0.262 N 
HETATM    4  H   UNL     1     -45.060  56.931 -54.286  1.00  0.00     0.191 HD
HETATM    5  C   UNL     1     -43.172  56.075 -54.810  1.00  0.00     0.126 A 
HETATM    6  C   UNL     1     -42.471  56.229 -55.979  1.00  0.00     0.084 A 
ENDROOT
BRANCH   5   7
HETATM    7  N   UNL     1     -42.846  55.368 -53.673  1.00  0.00    -0.311 N 
HETATM    8  C   UNL     1     -41.735  55.681 -52.916  1.00  0.00     0.236 C 
HETATM    9  O   UNL     1     -41.006  56.654 -53.078  1.00  0.00    -0.272 OA
HETATM   10  H   UNL     1     -43.376  54.535 -53.453  1.00  0.00     0.170 HD
BRANCH   8  11
HETATM   11  C   UNL     1     -41.426  54.657 -51.851  1.00  0.00     0.068 A 
HETATM   12  C   UNL     1     -40.972  55.176 -50.488  1.00  0.00     0.026 A 
HETATM   13  C   UNL     1     -42.341  54.591 -50.630  1.00  0.00     0.026 A 
BRANCH  11  14
HETATM   14  C   UNL     1     -40.777  53.373 -52.363  1.00  0.00    -0.040 A 
HETATM   15  C   UNL     1     -40.899  52.997 -53.713  1.00  0.00     0.010 A 
HETATM   16  C   UNL     1     -40.358  51.799 -54.191  1.00  0.00     0.024 A 
HETATM   17  C   UNL     1     -39.684  50.953 -53.318  1.00  0.00     0.034 A 
HETATM   18 CL   UNL     1     -39.025  49.472 -53.896  1.00  0.00    -0.084 Cl
HETATM   19  C   UNL     1     -39.545  51.296 -51.976  1.00  0.00     0.024 A 
HETATM   20  C   UNL     1     -40.088  52.495 -51.507  1.00  0.00     0.010 A 
ENDBRANCH  11  14
ENDBRANCH   8  11
ENDBRANCH   5   7
BRANCH   1  21
HETATM   21  C   UNL     1     -42.861  57.698 -58.063  1.00  0.00     0.029 A 
HETATM   22  C   UNL     1     -42.873  56.947 -59.250  1.00  0.00     0.081 A 
HETATM   23  C   UNL     1     -42.482  57.524 -60.464  1.00  0.00     0.039 A 
HETATM   24  C   UNL     1     -42.106  58.867 -60.509  1.00  0.00     0.026 A 
HETATM   25  C   UNL     1     -42.108  59.622 -59.339  1.00  0.00     0.035 A 
HETATM   26  C   UNL     1     -42.478  59.048 -58.123  1.00  0.00     0.040 A 
HETATM   27 CL   UNL     1     -41.638  61.277 -59.391  1.00  0.00    -0.084 Cl
BRANCH  22  28
HETATM   28  O   UNL     1     -43.169  55.608 -59.238  1.00  0.00    -0.355 OA
HETATM   29  C   UNL     1     -44.213  55.324 -60.172  1.00  0.00     0.210 C 
ENDBRANCH  22  28
ENDBRANCH   1  21
TORSDOF 5
ENDMDL
MODEL 8
REMARK VINA RESULT:      -7.8      1.818      2.364
REMARK  5 active torsions:
REMARK  status: ('A' for Active; 'I' for Inactive)
REMARK    1  A    between atoms: O_2  and  C_3 
REMARK    2  A    between atoms: C_4  and  C_5 
REMARK    3  A    between atoms: C_9  and  N_10 
REMARK       I    between atoms: N_10  and  C_11 
REMARK    4  A    between atoms: C_11  and  C_12 
REMARK    5  A    between atoms: C_12  and  C_13 
ROOT
HETATM    1  C   UNL     1     -41.521  54.674 -54.502  1.00  0.00     0.093 A 
HETATM    2  N   UNL     1     -41.017  55.835 -54.951  1.00  0.00    -0.172 NA
HETATM    3  N   UNL     1     -41.730  56.100 -56.060  1.00  0.00    -0.262 N 
HETATM    4  H   UNL     1     -41.536  56.944 -56.593  1.00  0.00     0.191 HD
HETATM    5  C   UNL     1     -42.712  55.180 -56.315  1.00  0.00     0.126 A 
HETATM    6  C   UNL     1     -42.580  54.223 -55.340  1.00  0.00     0.084 A 
ENDROOT
BRANCH   5   7
HETATM    7  N   UNL     1     -43.632  55.278 -57.335  1.00  0.00    -0.311 N 
HETATM    8  C   UNL     1     -43.296  55.792 -58.572  1.00  0.00     0.236 C 
HETATM    9  O   UNL     1     -42.166  56.094 -58.941  1.00  0.00    -0.272 OA
HETATM   10  H   UNL     1     -44.601  55.066 -57.135  1.00  0.00     0.170 HD
BRANCH   8  11
HETATM   11  C   UNL     1     -44.486  56.023 -59.470  1.00  0.00     0.068 A 
HETATM   12  C   UNL     1     -44.394  55.512 -60.906  1.00  0.00     0.026 A 
HETATM   13  C   UNL     1     -45.285  54.808 -59.934  1.00  0.00     0.026 A 
BRANCH  11  14
HETATM   14  C   UNL     1     -45.214  57.347 -59.244  1.00  0.00    -0.040 A 
HETATM   15  C   UNL     1     -44.506  58.563 -59.246  1.00  0.00     0.010 A 
HETATM   16  C   UNL     1     -45.145  59.781 -58.989  1.00  0.00     0.024 A 
HETATM   17  C   UNL     1     -46.509  59.800 -58.722  1.00  0.00     0.034 A 
HETATM   18 CL   UNL     1     -47.299  61.292 -58.394  1.00  0.00    -0.084 Cl
HETATM   19  C   UNL     1     -47.238  58.614 -58.713  1.00  0.00     0.024 A 
HETATM   20  C   UNL     1     -46.593  57.401 -58.971  1.00  0.00     0.010 A 
ENDBRANCH  11  14
ENDBRANCH   8  11
ENDBRANCH   5   7
BRANCH   1  21
HETATM   21  C   UNL     1     -41.065  54.052 -53.261  1.00  0.00     0.029 A 
HETATM   22  C   UNL     1     -40.429  52.800 -53.227  1.00  0.00     0.081 A 
HETATM   23  C   UNL     1     -40.030  52.234 -52.011  1.00  0.00     0.039 A 
HETATM   24  C   UNL     1     -40.234  52.928 -50.817  1.00  0.00     0.026 A 
HETATM   25  C   UNL     1     -40.848  54.177 -50.845  1.00  0.00     0.035 A 
HETATM   26  C   UNL     1     -41.265  54.739 -52.051  1.00  0.00     0.040 A 
HETATM   27 CL   UNL     1     -41.107  55.032 -49.374  1.00  0.00    -0.084 Cl
BRANCH  22  28
HETATM   28  O   UNL     1     -40.272  52.054 -54.368  1.00  0.00    -0.355 OA
HETATM   29  C   UNL     1     -39.725  50.773 -54.049  1.00  0.00     0.210 C 
ENDBRANCH  22  28
ENDBRANCH   1  21
TORSDOF 5
ENDMDL
MODEL 9
REMARK VINA RESULT:      -7.7      5.806      9.777
REMARK  5 active torsions:
REMARK  status: ('A' for Active; 'I' for Inactive)
REMARK    1  A    between atoms: O_2  and  C_3 
REMARK    2  A    between atoms: C_4  and  C_5 
REMARK    3  A    between atoms: C_9  and  N_10 
REMARK       I    between atoms: N_10  and  C_11 
REMARK    4  A    between atoms: C_11  and  C_12 
REMARK    5  A    between atoms: C_12  and  C_13 
ROOT
HETATM    1  C   UNL     1     -44.373  58.699 -51.584  1.00  0.00     0.093 A 
HETATM    2  N   UNL     1     -45.107  57.854 -50.843  1.00  0.00    -0.172 NA
HETATM    3  N   UNL     1     -44.301  56.794 -50.651  1.00  0.00    -0.262 N 
HETATM    4  H   UNL     1     -44.633  56.001 -50.107  1.00  0.00     0.191 HD
HETATM    5  C   UNL     1     -43.055  56.946 -51.198  1.00  0.00     0.126 A 
HETATM    6  C   UNL     1     -43.080  58.158 -51.840  1.00  0.00     0.084 A 
ENDROOT
BRANCH   5   7
HETATM    7  N   UNL     1     -42.023  56.043 -51.059  1.00  0.00    -0.311 N 
HETATM    8  C   UNL     1     -42.249  54.727 -50.708  1.00  0.00     0.236 C 
HETATM    9  O   UNL     1     -43.347  54.190 -50.604  1.00  0.00    -0.272 OA
HETATM   10  H   UNL     1     -41.072  56.385 -51.112  1.00  0.00     0.170 HD
BRANCH   8  11
HETATM   11  C   UNL     1     -40.986  53.966 -50.388  1.00  0.00     0.068 A 
HETATM   12  C   UNL     1     -39.863  54.729 -49.689  1.00  0.00     0.026 A 
HETATM   13  C   UNL     1     -40.649  53.715 -48.921  1.00  0.00     0.026 A 
BRANCH  11  14
HETATM   14  C   UNL     1     -40.582  52.925 -51.431  1.00  0.00    -0.040 A 
HETATM   15  C   UNL     1     -40.005  51.703 -51.037  1.00  0.00     0.010 A 
HETATM   16  C   UNL     1     -39.580  50.759 -51.977  1.00  0.00     0.024 A 
HETATM   17  C   UNL     1     -39.724  51.026 -53.334  1.00  0.00     0.034 A 
HETATM   18 CL   UNL     1     -39.192  49.875 -54.496  1.00  0.00    -0.084 Cl
HETATM   19  C   UNL     1     -40.291  52.225 -53.756  1.00  0.00     0.024 A 
HETATM   20  C   UNL     1     -40.714  53.163 -52.811  1.00  0.00     0.010 A 
ENDBRANCH  11  14
ENDBRANCH   8  11
ENDBRANCH   5   7
BRANCH   1  21
HETATM   21  C   UNL     1     -44.857  60.023 -51.970  1.00  0.00     0.029 A 
HETATM   22  C   UNL     1     -44.835  61.124 -51.099  1.00  0.00     0.081 A 
HETATM   23  C   UNL     1     -45.332  62.367 -51.507  1.00  0.00     0.039 A 
HETATM   24  C   UNL     1     -45.827  62.531 -52.801  1.00  0.00     0.026 A 
HETATM   25  C   UNL     1     -45.836  61.448 -53.676  1.00  0.00     0.035 A 
HETATM   26  C   UNL     1     -45.360  60.201 -53.270  1.00  0.00     0.040 A 
HETATM   27 CL   UNL     1     -46.452  61.646 -55.271  1.00  0.00    -0.084 Cl
BRANCH  22  28
HETATM   28  O   UNL     1     -44.422  60.990 -49.798  1.00  0.00    -0.355 OA
HETATM   29  C   UNL     1     -45.536  61.110 -48.911  1.00  0.00     0.210 C 
ENDBRANCH  22  28
ENDBRANCH   1  21
TORSDOF 5
ENDMDL
MODEL 10
REMARK VINA RESULT:      -7.7      2.727      8.912
REMARK  5 active torsions:
REMARK  status: ('A' for Active; 'I' for Inactive)
REMARK    1  A    between atoms: O_2  and  C_3 
REMARK    2  A    between atoms: C_4  and  C_5 
REMARK    3  A    between atoms: C_9  and  N_10 
REMARK       I    between atoms: N_10  and  C_11 
REMARK    4  A    between atoms: C_11  and  C_12 
REMARK    5  A    between atoms: C_12  and  C_13 
ROOT
HETATM    1  C   UNL     1     -44.413  57.854 -55.465  1.00  0.00     0.093 A 
HETATM    2  N   UNL     1     -43.883  58.862 -54.756  1.00  0.00    -0.172 NA
HETATM    3  N   UNL     1     -43.383  58.269 -53.656  1.00  0.00    -0.262 N 
HETATM    4  H   UNL     1     -42.918  58.831 -52.948  1.00  0.00     0.191 HD
HETATM    5  C   UNL     1     -43.526  56.907 -53.656  1.00  0.00     0.126 A 
HETATM    6  C   UNL     1     -44.222  56.610 -54.800  1.00  0.00     0.084 A 
ENDROOT
BRANCH   5   7
HETATM    7  N   UNL     1     -43.017  56.066 -52.690  1.00  0.00    -0.311 N 
HETATM    8  C   UNL     1     -41.664  55.994 -52.427  1.00  0.00     0.236 C 
HETATM    9  O   UNL     1     -40.800  56.722 -52.905  1.00  0.00    -0.272 OA
HETATM   10  H   UNL     1     -43.644  55.410 -52.241  1.00  0.00     0.170 HD
BRANCH   8  11
HETATM   11  C   UNL     1     -41.291  54.861 -51.504  1.00  0.00     0.068 A 
HETATM   12  C   UNL     1     -40.694  55.227 -50.147  1.00  0.00     0.026 A 
HETATM   13  C   UNL     1     -42.088  54.691 -50.213  1.00  0.00     0.026 A 
BRANCH  11  14
HETATM   14  C   UNL     1     -40.735  53.620 -52.201  1.00  0.00    -0.040 A 
HETATM   15  C   UNL     1     -41.048  53.354 -53.547  1.00  0.00     0.010 A 
HETATM   16  C   UNL     1     -40.593  52.197 -54.188  1.00  0.00     0.024 A 
HETATM   17  C   UNL     1     -39.814  51.283 -53.487  1.00  0.00     0.034 A 
HETATM   18 CL   UNL     1     -39.260  49.853 -54.266  1.00  0.00    -0.084 Cl
HETATM   19  C   UNL     1     -39.486  51.518 -52.155  1.00  0.00     0.024 A 
HETATM   20  C   UNL     1     -39.945  52.676 -51.521  1.00  0.00     0.010 A 
ENDBRANCH  11  14
ENDBRANCH   8  11
ENDBRANCH   5   7
BRANCH   1  21
HETATM   21  C   UNL     1     -45.015  58.057 -56.782  1.00  0.00     0.029 A 
HETATM   22  C   UNL     1     -44.435  57.570 -57.965  1.00  0.00     0.081 A 
HETATM   23  C   UNL     1     -45.037  57.810 -59.206  1.00  0.00     0.039 A 
HETATM   24  C   UNL     1     -46.241  58.512 -59.274  1.00  0.00     0.026 A 
HETATM   25  C   UNL     1     -46.830  58.983 -58.103  1.00  0.00     0.035 A 
HETATM   26  C   UNL     1     -46.226  58.764 -56.866  1.00  0.00     0.040 A 
HETATM   27 CL   UNL     1     -48.312  59.855 -58.185  1.00  0.00    -0.084 Cl
BRANCH  22  28
HETATM   28  O   UNL     1     -43.219  56.937 -57.950  1.00  0.00    -0.355 OA
HETATM   29  C   UNL     1     -43.105  56.059 -59.072  1.00  0.00     0.210 C 
ENDBRANCH  22  28
ENDBRANCH   1  21
TORSDOF 5
ENDMDL
