MODEL 1
REMARK VINA RESULT:      -7.4      0.000      0.000
REMARK  5 active torsions:
REMARK  status: ('A' for Active; 'I' for Inactive)
REMARK    1  A    between atoms: C_2  and  C_3 
REMARK       I    between atoms: C_3  and  N_4 
REMARK    2  A    between atoms: N_4  and  C_5 
REMARK    3  A    between atoms: C_5  and  C_6 
REMARK    4  A    between atoms: C_5  and  C_17 
REMARK    5  A    between atoms: C_7  and  O_8 
ROOT
HETATM    1  C   UNL     1     -41.030  57.077 -53.715  1.00  0.00     0.154 C 
ENDROOT
BRANCH   1   2
HETATM    2  N   UNL     1     -41.016  57.653 -52.381  1.00  0.00    -0.348 N 
HETATM    3  C   UNL     1     -40.199  58.687 -52.018  1.00  0.00     0.218 C 
HETATM    4  O   UNL     1     -39.455  59.266 -52.807  1.00  0.00    -0.274 OA
HETATM    5  H   UNL     1     -41.547  57.137 -51.692  1.00  0.00     0.163 HD
BRANCH   3   6
HETATM    6  C   UNL     1     -40.350  59.171 -50.587  1.00  0.00     0.098 C 
HETATM    7  C   UNL     1     -41.566  60.041 -50.324  1.00  0.00     0.014 C 
ENDBRANCH   3   6
ENDBRANCH   1   2
BRANCH   1   8
HETATM    8  C   UNL     1     -42.315  57.498 -54.420  1.00  0.00     0.005 A 
HETATM    9  C   UNL     1     -42.459  58.747 -55.043  1.00  0.00     0.103 A 
HETATM   10  C   UNL     1     -43.636  59.152 -55.671  1.00  0.00     0.100 A 
HETATM   11  C   UNL     1     -44.719  58.253 -55.696  1.00  0.00    -0.004 A 
HETATM   12  N   UNL     1     -43.690  60.379 -56.236  1.00  0.00    -0.257 NA
HETATM   13  C   UNL     1     -44.596  56.989 -55.094  1.00  0.00     0.014 A 
HETATM   14  C   UNL     1     -45.894  58.663 -56.338  1.00  0.00     0.015 A 
HETATM   15  C   UNL     1     -43.407  56.620 -54.462  1.00  0.00     0.013 A 
HETATM   16  C   UNL     1     -45.961  59.926 -56.917  1.00  0.00     0.020 A 
HETATM   17  C   UNL     1     -44.845  60.739 -56.839  1.00  0.00     0.117 A 
BRANCH   9  18
HETATM   18  O   UNL     1     -41.389  59.620 -55.075  1.00  0.00    -0.358 OA
HETATM   19  H   UNL     1     -41.012  59.553 -54.169  1.00  0.00     0.218 HD
ENDBRANCH   9  18
ENDBRANCH   1   8
BRANCH   1  20
HETATM   20  C   UNL     1     -40.811  55.564 -53.743  1.00  0.00    -0.031 A 
HETATM   21  C   UNL     1     -40.374  54.956 -54.934  1.00  0.00     0.010 A 
HETATM   22  C   UNL     1     -40.169  53.575 -55.009  1.00  0.00     0.007 A 
HETATM   23  C   UNL     1     -40.397  52.763 -53.894  1.00  0.00    -0.062 A 
HETATM   24  C   UNL     1     -40.156  51.285 -53.954  1.00  0.00     0.048 C 
HETATM   25  C   UNL     1     -40.819  53.359 -52.703  1.00  0.00     0.007 A 
HETATM   26  C   UNL     1     -41.030  54.740 -52.629  1.00  0.00     0.010 A 
ENDBRANCH   1  20
TORSDOF 5
ENDMDL
MODEL 2
REMARK VINA RESULT:      -7.4      2.558      6.457
REMARK  5 active torsions:
REMARK  status: ('A' for Active; 'I' for Inactive)
REMARK    1  A    between atoms: C_2  and  C_3 
REMARK       I    between atoms: C_3  and  N_4 
REMARK    2  A    between atoms: N_4  and  C_5 
REMARK    3  A    between atoms: C_5  and  C_6 
REMARK    4  A    between atoms: C_5  and  C_17 
REMARK    5  A    between atoms: C_7  and  O_8 
ROOT
HETATM    1  C   UNL     1     -41.858  56.063 -54.072  1.00  0.00     0.154 C 
ENDROOT
BRANCH   1   2
HETATM    2  N   UNL     1     -40.948  57.113 -53.646  1.00  0.00    -0.348 N 
HETATM    3  C   UNL     1     -41.205  57.949 -52.595  1.00  0.00     0.218 C 
HETATM    4  O   UNL     1     -42.195  57.839 -51.874  1.00  0.00    -0.274 OA
HETATM    5  H   UNL     1     -40.175  57.284 -54.275  1.00  0.00     0.163 HD
BRANCH   3   6
HETATM    6  C   UNL     1     -40.120  58.964 -52.283  1.00  0.00     0.098 C 
HETATM    7  C   UNL     1     -39.952  59.300 -50.812  1.00  0.00     0.014 C 
ENDBRANCH   3   6
ENDBRANCH   1   2
BRANCH   1   8
HETATM    8  C   UNL     1     -41.248  54.710 -53.722  1.00  0.00     0.005 A 
HETATM    9  C   UNL     1     -41.235  54.204 -52.413  1.00  0.00     0.103 A 
HETATM   10  C   UNL     1     -40.660  52.979 -52.077  1.00  0.00     0.100 A 
HETATM   11  C   UNL     1     -40.087  52.210 -53.107  1.00  0.00    -0.004 A 
HETATM   12  N   UNL     1     -40.681  52.576 -50.788  1.00  0.00    -0.257 NA
HETATM   13  C   UNL     1     -40.101  52.685 -54.430  1.00  0.00     0.014 A 
HETATM   14  C   UNL     1     -39.520  50.976 -52.764  1.00  0.00     0.015 A 
HETATM   15  C   UNL     1     -40.674  53.923 -54.730  1.00  0.00     0.013 A 
HETATM   16  C   UNL     1     -39.534  50.555 -51.438  1.00  0.00     0.020 A 
HETATM   17  C   UNL     1     -40.118  51.382 -50.497  1.00  0.00     0.117 A 
BRANCH   9  18
HETATM   18  O   UNL     1     -41.840  54.922 -51.400  1.00  0.00    -0.358 OA
HETATM   19  H   UNL     1     -42.627  55.317 -51.837  1.00  0.00     0.218 HD
ENDBRANCH   9  18
ENDBRANCH   1   8
BRANCH   1  20
HETATM   20  C   UNL     1     -42.277  56.160 -55.540  1.00  0.00    -0.031 A 
HETATM   21  C   UNL     1     -42.080  57.369 -56.232  1.00  0.00     0.010 A 
HETATM   22  C   UNL     1     -42.456  57.505 -57.571  1.00  0.00     0.007 A 
HETATM   23  C   UNL     1     -43.043  56.437 -58.255  1.00  0.00    -0.062 A 
HETATM   24  C   UNL     1     -43.426  56.562 -59.699  1.00  0.00     0.048 C 
HETATM   25  C   UNL     1     -43.232  55.227 -57.580  1.00  0.00     0.007 A 
HETATM   26  C   UNL     1     -42.860  55.092 -56.239  1.00  0.00     0.010 A 
ENDBRANCH   1  20
TORSDOF 5
ENDMDL
MODEL 3
REMARK VINA RESULT:      -7.3      2.575      4.736
REMARK  5 active torsions:
REMARK  status: ('A' for Active; 'I' for Inactive)
REMARK    1  A    between atoms: C_2  and  C_3 
REMARK       I    between atoms: C_3  and  N_4 
REMARK    2  A    between atoms: N_4  and  C_5 
REMARK    3  A    between atoms: C_5  and  C_6 
REMARK    4  A    between atoms: C_5  and  C_17 
REMARK    5  A    between atoms: C_7  and  O_8 
ROOT
HETATM    1  C   UNL     1     -42.364  55.981 -54.681  1.00  0.00     0.154 C 
ENDROOT
BRANCH   1   2
HETATM    2  N   UNL     1     -42.019  56.484 -55.999  1.00  0.00    -0.348 N 
HETATM    3  C   UNL     1     -42.915  57.102 -56.826  1.00  0.00     0.218 C 
HETATM    4  O   UNL     1     -44.073  57.349 -56.497  1.00  0.00    -0.274 OA
HETATM    5  H   UNL     1     -41.102  56.212 -56.329  1.00  0.00     0.163 HD
BRANCH   3   6
HETATM    6  C   UNL     1     -42.359  57.585 -58.153  1.00  0.00     0.098 C 
HETATM    7  C   UNL     1     -42.704  56.720 -59.352  1.00  0.00     0.014 C 
ENDBRANCH   3   6
ENDBRANCH   1   2
BRANCH   1   8
HETATM    8  C   UNL     1     -42.229  57.115 -53.670  1.00  0.00     0.005 A 
HETATM    9  C   UNL     1     -43.334  57.667 -53.004  1.00  0.00     0.103 A 
HETATM   10  C   UNL     1     -43.226  58.719 -52.095  1.00  0.00     0.100 A 
HETATM   11  C   UNL     1     -41.944  59.232 -51.822  1.00  0.00    -0.004 A 
HETATM   12  N   UNL     1     -44.346  59.197 -51.509  1.00  0.00    -0.257 NA
HETATM   13  C   UNL     1     -40.819  58.686 -52.462  1.00  0.00     0.014 A 
HETATM   14  C   UNL     1     -41.843  60.281 -50.900  1.00  0.00     0.015 A 
HETATM   15  C   UNL     1     -40.963  57.641 -53.377  1.00  0.00     0.013 A 
HETATM   16  C   UNL     1     -42.990  60.783 -50.295  1.00  0.00     0.020 A 
HETATM   17  C   UNL     1     -44.206  60.215 -50.631  1.00  0.00     0.117 A 
BRANCH   9  18
HETATM   18  O   UNL     1     -44.592  57.141 -53.220  1.00  0.00    -0.358 OA
HETATM   19  H   UNL     1     -45.192  57.902 -53.053  1.00  0.00     0.218 HD
ENDBRANCH   9  18
ENDBRANCH   1   8
BRANCH   1  20
HETATM   20  C   UNL     1     -41.588  54.729 -54.268  1.00  0.00    -0.031 A 
HETATM   21  C   UNL     1     -41.741  54.226 -52.963  1.00  0.00     0.010 A 
HETATM   22  C   UNL     1     -41.046  53.089 -52.540  1.00  0.00     0.007 A 
HETATM   23  C   UNL     1     -40.176  52.425 -53.409  1.00  0.00    -0.062 A 
HETATM   24  C   UNL     1     -39.446  51.191 -52.976  1.00  0.00     0.048 C 
HETATM   25  C   UNL     1     -40.027  52.909 -54.712  1.00  0.00     0.007 A 
HETATM   26  C   UNL     1     -40.719  54.050 -55.135  1.00  0.00     0.010 A 
ENDBRANCH   1  20
TORSDOF 5
ENDMDL
MODEL 4
REMARK VINA RESULT:      -7.2      1.827      6.323
REMARK  5 active torsions:
REMARK  status: ('A' for Active; 'I' for Inactive)
REMARK    1  A    between atoms: C_2  and  C_3 
REMARK       I    between atoms: C_3  and  N_4 
REMARK    2  A    between atoms: N_4  and  C_5 
REMARK    3  A    between atoms: C_5  and  C_6 
REMARK    4  A    between atoms: C_5  and  C_17 
REMARK    5  A    between atoms: C_7  and  O_8 
ROOT
HETATM    1  C   UNL     1     -41.980  56.961 -52.953  1.00  0.00     0.154 C 
ENDROOT
BRANCH   1   2
HETATM    2  N   UNL     1     -40.842  57.839 -52.739  1.00  0.00    -0.348 N 
HETATM    3  C   UNL     1     -40.535  58.388 -51.525  1.00  0.00     0.218 C 
HETATM    4  O   UNL     1     -41.152  58.131 -50.494  1.00  0.00    -0.274 OA
HETATM    5  H   UNL     1     -40.376  58.139 -53.584  1.00  0.00     0.163 HD
BRANCH   3   6
HETATM    6  C   UNL     1     -39.290  59.256 -51.495  1.00  0.00     0.098 C 
HETATM    7  C   UNL     1     -38.906  59.789 -50.126  1.00  0.00     0.014 C 
ENDBRANCH   3   6
ENDBRANCH   1   2
BRANCH   1   8
HETATM    8  C   UNL     1     -41.470  55.563 -53.284  1.00  0.00     0.005 A 
HETATM    9  C   UNL     1     -40.983  54.686 -52.303  1.00  0.00     0.103 A 
HETATM   10  C   UNL     1     -40.492  53.414 -52.596  1.00  0.00     0.100 A 
HETATM   11  C   UNL     1     -40.508  52.990 -53.938  1.00  0.00    -0.004 A 
HETATM   12  N   UNL     1     -40.031  52.640 -51.589  1.00  0.00    -0.257 NA
HETATM   13  C   UNL     1     -41.005  53.842 -54.938  1.00  0.00     0.014 A 
HETATM   14  C   UNL     1     -40.022  51.707 -54.223  1.00  0.00     0.015 A 
HETATM   15  C   UNL     1     -41.478  55.115 -54.612  1.00  0.00     0.013 A 
HETATM   16  C   UNL     1     -39.542  50.905 -53.194  1.00  0.00     0.020 A 
HETATM   17  C   UNL     1     -39.565  51.412 -51.908  1.00  0.00     0.117 A 
BRANCH   9  18
HETATM   18  O   UNL     1     -41.010  55.066 -50.976  1.00  0.00    -0.358 OA
HETATM   19  H   UNL     1     -41.857  55.560 -50.895  1.00  0.00     0.218 HD
ENDBRANCH   9  18
ENDBRANCH   1   8
BRANCH   1  20
HETATM   20  C   UNL     1     -42.985  57.482 -53.982  1.00  0.00    -0.031 A 
HETATM   21  C   UNL     1     -42.540  58.348 -54.998  1.00  0.00     0.010 A 
HETATM   22  C   UNL     1     -43.423  58.855 -55.955  1.00  0.00     0.007 A 
HETATM   23  C   UNL     1     -44.778  58.512 -55.921  1.00  0.00    -0.062 A 
HETATM   24  C   UNL     1     -45.730  59.029 -56.957  1.00  0.00     0.048 C 
HETATM   25  C   UNL     1     -45.228  57.643 -54.924  1.00  0.00     0.007 A 
HETATM   26  C   UNL     1     -44.345  57.139 -53.963  1.00  0.00     0.010 A 
ENDBRANCH   1  20
TORSDOF 5
ENDMDL
MODEL 5
REMARK VINA RESULT:      -7.1      2.659      3.252
REMARK  5 active torsions:
REMARK  status: ('A' for Active; 'I' for Inactive)
REMARK    1  A    between atoms: C_2  and  C_3 
REMARK       I    between atoms: C_3  and  N_4 
REMARK    2  A    between atoms: N_4  and  C_5 
REMARK    3  A    between atoms: C_5  and  C_6 
REMARK    4  A    between atoms: C_5  and  C_17 
REMARK    5  A    between atoms: C_7  and  O_8 
ROOT
HETATM    1  C   UNL     1     -41.869  55.462 -52.853  1.00  0.00     0.154 C 
ENDROOT
BRANCH   1   2
HETATM    2  N   UNL     1     -43.043  55.790 -52.063  1.00  0.00    -0.348 N 
HETATM    3  C   UNL     1     -43.345  57.060 -51.657  1.00  0.00     0.218 C 
HETATM    4  O   UNL     1     -42.686  58.045 -51.984  1.00  0.00    -0.274 OA
HETATM    5  H   UNL     1     -43.548  54.991 -51.704  1.00  0.00     0.163 HD
BRANCH   3   6
HETATM    6  C   UNL     1     -44.631  57.207 -50.865  1.00  0.00     0.098 C 
HETATM    7  C   UNL     1     -45.265  58.586 -50.912  1.00  0.00     0.014 C 
ENDBRANCH   3   6
ENDBRANCH   1   2
BRANCH   1   8
HETATM    8  C   UNL     1     -42.239  55.509 -54.331  1.00  0.00     0.005 A 
HETATM    9  C   UNL     1     -42.031  56.647 -55.125  1.00  0.00     0.103 A 
HETATM   10  C   UNL     1     -42.387  56.709 -56.472  1.00  0.00     0.100 A 
HETATM   11  C   UNL     1     -42.961  55.568 -57.061  1.00  0.00    -0.004 A 
HETATM   12  N   UNL     1     -42.161  57.852 -57.158  1.00  0.00    -0.257 NA
HETATM   13  C   UNL     1     -43.165  54.409 -56.293  1.00  0.00     0.014 A 
HETATM   14  C   UNL     1     -43.306  55.635 -58.417  1.00  0.00     0.015 A 
HETATM   15  C   UNL     1     -42.809  54.383 -54.943  1.00  0.00     0.013 A 
HETATM   16  C   UNL     1     -43.082  56.808 -59.129  1.00  0.00     0.020 A 
HETATM   17  C   UNL     1     -42.515  57.878 -58.462  1.00  0.00     0.117 A 
BRANCH   9  18
HETATM   18  O   UNL     1     -41.421  57.757 -54.577  1.00  0.00    -0.358 OA
HETATM   19  H   UNL     1     -41.329  58.370 -55.341  1.00  0.00     0.218 HD
ENDBRANCH   9  18
ENDBRANCH   1   8
BRANCH   1  20
HETATM   20  C   UNL     1     -41.197  54.146 -52.454  1.00  0.00    -0.031 A 
HETATM   21  C   UNL     1     -41.232  53.738 -51.108  1.00  0.00     0.010 A 
HETATM   22  C   UNL     1     -40.625  52.548 -50.697  1.00  0.00     0.007 A 
HETATM   23  C   UNL     1     -39.962  51.735 -51.621  1.00  0.00    -0.062 A 
HETATM   24  C   UNL     1     -39.329  50.444 -51.197  1.00  0.00     0.048 C 
HETATM   25  C   UNL     1     -39.931  52.125 -52.962  1.00  0.00     0.007 A 
HETATM   26  C   UNL     1     -40.535  53.318 -53.374  1.00  0.00     0.010 A 
ENDBRANCH   1  20
TORSDOF 5
ENDMDL
MODEL 6
REMARK VINA RESULT:      -7.0      2.317      4.506
REMARK  5 active torsions:
REMARK  status: ('A' for Active; 'I' for Inactive)
REMARK    1  A    between atoms: C_2  and  C_3 
REMARK       I    between atoms: C_3  and  N_4 
REMARK    2  A    between atoms: N_4  and  C_5 
REMARK    3  A    between atoms: C_5  and  C_6 
REMARK    4  A    between atoms: C_5  and  C_17 
REMARK    5  A    between atoms: C_7  and  O_8 
ROOT
HETATM    1  C   UNL     1     -42.867  56.389 -55.141  1.00  0.00     0.154 C 
ENDROOT
BRANCH   1   2
HETATM    2  N   UNL     1     -42.228  57.136 -56.211  1.00  0.00    -0.348 N 
HETATM    3  C   UNL     1     -42.815  57.359 -57.426  1.00  0.00     0.218 C 
HETATM    4  O   UNL     1     -43.962  57.008 -57.694  1.00  0.00    -0.274 OA
HETATM    5  H   UNL     1     -41.254  57.355 -56.052  1.00  0.00     0.163 HD
BRANCH   3   6
HETATM    6  C   UNL     1     -42.002  58.187 -58.405  1.00  0.00     0.098 C 
HETATM    7  C   UNL     1     -41.951  57.646 -59.822  1.00  0.00     0.014 C 
ENDBRANCH   3   6
ENDBRANCH   1   2
BRANCH   1   8
HETATM    8  C   UNL     1     -43.207  57.348 -54.005  1.00  0.00     0.005 A 
HETATM    9  C   UNL     1     -42.234  58.118 -53.351  1.00  0.00     0.103 A 
HETATM   10  C   UNL     1     -42.529  58.980 -52.296  1.00  0.00     0.100 A 
HETATM   11  C   UNL     1     -43.871  59.094 -51.888  1.00  0.00    -0.004 A 
HETATM   12  N   UNL     1     -41.526  59.675 -51.715  1.00  0.00    -0.257 NA
HETATM   13  C   UNL     1     -44.869  58.347 -52.537  1.00  0.00     0.014 A 
HETATM   14  C   UNL     1     -44.162  59.970 -50.834  1.00  0.00     0.015 A 
HETATM   15  C   UNL     1     -44.537  57.482 -53.582  1.00  0.00     0.013 A 
HETATM   16  C   UNL     1     -43.135  60.686 -50.228  1.00  0.00     0.020 A 
HETATM   17  C   UNL     1     -41.848  60.504 -50.698  1.00  0.00     0.117 A 
BRANCH   9  18
HETATM   18  O   UNL     1     -40.921  58.058 -53.774  1.00  0.00    -0.358 OA
HETATM   19  H   UNL     1     -40.538  58.907 -53.458  1.00  0.00     0.218 HD
ENDBRANCH   9  18
ENDBRANCH   1   8
BRANCH   1  20
HETATM   20  C   UNL     1     -42.069  55.173 -54.668  1.00  0.00    -0.031 A 
HETATM   21  C   UNL     1     -40.921  54.784 -55.383  1.00  0.00     0.010 A 
HETATM   22  C   UNL     1     -40.166  53.675 -54.992  1.00  0.00     0.007 A 
HETATM   23  C   UNL     1     -40.540  52.920 -53.876  1.00  0.00    -0.062 A 
HETATM   24  C   UNL     1     -39.725  51.744 -53.432  1.00  0.00     0.048 C 
HETATM   25  C   UNL     1     -41.672  53.305 -53.152  1.00  0.00     0.007 A 
HETATM   26  C   UNL     1     -42.430  54.413 -53.545  1.00  0.00     0.010 A 
ENDBRANCH   1  20
TORSDOF 5
ENDMDL
MODEL 7
REMARK VINA RESULT:      -7.0      2.419      7.100
REMARK  5 active torsions:
REMARK  status: ('A' for Active; 'I' for Inactive)
REMARK    1  A    between atoms: C_2  and  C_3 
REMARK       I    between atoms: C_3  and  N_4 
REMARK    2  A    between atoms: N_4  and  C_5 
REMARK    3  A    between atoms: C_5  and  C_6 
REMARK    4  A    between atoms: C_5  and  C_17 
REMARK    5  A    between atoms: C_7  and  O_8 
ROOT
HETATM    1  C   UNL     1     -41.398  56.591 -54.148  1.00  0.00     0.154 C 
ENDROOT
BRANCH   1   2
HETATM    2  N   UNL     1     -42.409  56.324 -55.157  1.00  0.00    -0.348 N 
HETATM    3  C   UNL     1     -42.589  57.105 -56.264  1.00  0.00     0.218 C 
HETATM    4  O   UNL     1     -41.866  58.059 -56.540  1.00  0.00    -0.274 OA
HETATM    5  H   UNL     1     -43.074  55.604 -54.908  1.00  0.00     0.163 HD
BRANCH   3   6
HETATM    6  C   UNL     1     -43.677  56.647 -57.219  1.00  0.00     0.098 C 
HETATM    7  C   UNL     1     -43.185  55.958 -58.479  1.00  0.00     0.014 C 
ENDBRANCH   3   6
ENDBRANCH   1   2
BRANCH   1   8
HETATM    8  C   UNL     1     -41.004  55.276 -53.485  1.00  0.00     0.005 A 
HETATM    9  C   UNL     1     -40.583  54.157 -54.220  1.00  0.00     0.103 A 
HETATM   10  C   UNL     1     -40.241  52.942 -53.628  1.00  0.00     0.100 A 
HETATM   11  C   UNL     1     -40.303  52.847 -52.225  1.00  0.00    -0.004 A 
HETATM   12  N   UNL     1     -39.858  51.913 -54.415  1.00  0.00    -0.257 NA
HETATM   13  C   UNL     1     -40.706  53.957 -51.463  1.00  0.00     0.014 A 
HETATM   14  C   UNL     1     -39.949  51.627 -51.636  1.00  0.00     0.015 A 
HETATM   15  C   UNL     1     -41.054  55.156 -52.089  1.00  0.00     0.013 A 
HETATM   16  C   UNL     1     -39.558  50.560 -52.439  1.00  0.00     0.020 A 
HETATM   17  C   UNL     1     -39.531  50.750 -53.808  1.00  0.00     0.117 A 
BRANCH   9  18
HETATM   18  O   UNL     1     -40.465  54.250 -55.593  1.00  0.00    -0.358 OA
HETATM   19  H   UNL     1     -39.926  53.462 -55.831  1.00  0.00     0.218 HD
ENDBRANCH   9  18
ENDBRANCH   1   8
BRANCH   1  20
HETATM   20  C   UNL     1     -41.797  57.666 -53.134  1.00  0.00    -0.031 A 
HETATM   21  C   UNL     1     -40.816  58.551 -52.652  1.00  0.00     0.010 A 
HETATM   22  C   UNL     1     -41.132  59.542 -51.718  1.00  0.00     0.007 A 
HETATM   23  C   UNL     1     -42.439  59.674 -51.239  1.00  0.00    -0.062 A 
HETATM   24  C   UNL     1     -42.796  60.749 -50.258  1.00  0.00     0.048 C 
HETATM   25  C   UNL     1     -43.424  58.807 -51.722  1.00  0.00     0.007 A 
HETATM   26  C   UNL     1     -43.106  57.812 -52.652  1.00  0.00     0.010 A 
ENDBRANCH   1  20
TORSDOF 5
ENDMDL
MODEL 8
REMARK VINA RESULT:      -7.0      2.504      2.883
REMARK  5 active torsions:
REMARK  status: ('A' for Active; 'I' for Inactive)
REMARK    1  A    between atoms: C_2  and  C_3 
REMARK       I    between atoms: C_3  and  N_4 
REMARK    2  A    between atoms: N_4  and  C_5 
REMARK    3  A    between atoms: C_5  and  C_6 
REMARK    4  A    between atoms: C_5  and  C_17 
REMARK    5  A    between atoms: C_7  and  O_8 
ROOT
HETATM    1  C   UNL     1     -41.992  56.594 -54.588  1.00  0.00     0.154 C 
ENDROOT
BRANCH   1   2
HETATM    2  N   UNL     1     -43.114  56.942 -53.733  1.00  0.00    -0.348 N 
HETATM    3  C   UNL     1     -43.175  58.099 -53.008  1.00  0.00     0.218 C 
HETATM    4  O   UNL     1     -42.319  58.978 -53.070  1.00  0.00    -0.274 OA
HETATM    5  H   UNL     1     -43.785  56.198 -53.592  1.00  0.00     0.163 HD
BRANCH   3   6
HETATM    6  C   UNL     1     -44.443  58.299 -52.197  1.00  0.00     0.098 C 
HETATM    7  C   UNL     1     -44.696  57.254 -51.124  1.00  0.00     0.014 C 
ENDBRANCH   3   6
ENDBRANCH   1   2
BRANCH   1   8
HETATM    8  C   UNL     1     -42.402  56.789 -56.043  1.00  0.00     0.005 A 
HETATM    9  C   UNL     1     -42.346  58.037 -56.682  1.00  0.00     0.103 A 
HETATM   10  C   UNL     1     -42.740  58.232 -58.005  1.00  0.00     0.100 A 
HETATM   11  C   UNL     1     -43.193  57.117 -58.735  1.00  0.00    -0.004 A 
HETATM   12  N   UNL     1     -42.665  59.473 -58.536  1.00  0.00    -0.257 NA
HETATM   13  C   UNL     1     -43.242  55.852 -58.125  1.00  0.00     0.014 A 
HETATM   14  C   UNL     1     -43.576  57.319 -60.067  1.00  0.00     0.015 A 
HETATM   15  C   UNL     1     -42.853  55.693 -56.793  1.00  0.00     0.013 A 
HETATM   16  C   UNL     1     -43.507  58.593 -60.620  1.00  0.00     0.020 A 
HETATM   17  C   UNL     1     -43.051  59.626 -59.822  1.00  0.00     0.117 A 
BRANCH   9  18
HETATM   18  O   UNL     1     -41.855  59.131 -55.997  1.00  0.00    -0.358 OA
HETATM   19  H   UNL     1     -41.854  59.844 -56.675  1.00  0.00     0.218 HD
ENDBRANCH   9  18
ENDBRANCH   1   8
BRANCH   1  20
HETATM   20  C   UNL     1     -41.411  55.204 -54.319  1.00  0.00    -0.031 A 
HETATM   21  C   UNL     1     -41.938  54.432 -53.268  1.00  0.00     0.010 A 
HETATM   22  C   UNL     1     -41.433  53.160 -52.981  1.00  0.00     0.007 A 
HETATM   23  C   UNL     1     -40.384  52.627 -53.735  1.00  0.00    -0.062 A 
HETATM   24  C   UNL     1     -39.851  51.255 -53.454  1.00  0.00     0.048 C 
HETATM   25  C   UNL     1     -39.862  53.382 -54.790  1.00  0.00     0.007 A 
HETATM   26  C   UNL     1     -40.364  54.656 -55.075  1.00  0.00     0.010 A 
ENDBRANCH   1  20
TORSDOF 5
ENDMDL
MODEL 9
REMARK VINA RESULT:      -6.7      3.169      5.335
REMARK  5 active torsions:
REMARK  status: ('A' for Active; 'I' for Inactive)
REMARK    1  A    between atoms: C_2  and  C_3 
REMARK       I    between atoms: C_3  and  N_4 
REMARK    2  A    between atoms: N_4  and  C_5 
REMARK    3  A    between atoms: C_5  and  C_6 
REMARK    4  A    between atoms: C_5  and  C_17 
REMARK    5  A    between atoms: C_7  and  O_8 
ROOT
HETATM    1  C   UNL     1     -42.459  55.918 -53.979  1.00  0.00     0.154 C 
ENDROOT
BRANCH   1   2
HETATM    2  N   UNL     1     -41.426  54.898 -53.930  1.00  0.00    -0.348 N 
HETATM    3  C   UNL     1     -41.460  53.834 -53.072  1.00  0.00     0.218 C 
HETATM    4  O   UNL     1     -42.403  53.610 -52.317  1.00  0.00    -0.274 OA
HETATM    5  H   UNL     1     -40.598  55.108 -54.473  1.00  0.00     0.163 HD
BRANCH   3   6
HETATM    6  C   UNL     1     -40.304  52.858 -53.191  1.00  0.00     0.098 C 
HETATM    7  C   UNL     1     -40.458  51.800 -54.269  1.00  0.00     0.014 C 
ENDBRANCH   3   6
ENDBRANCH   1   2
BRANCH   1   8
HETATM    8  C   UNL     1     -42.623  56.386 -55.422  1.00  0.00     0.005 A 
HETATM    9  C   UNL     1     -43.087  55.540 -56.441  1.00  0.00     0.103 A 
HETATM   10  C   UNL     1     -43.219  55.950 -57.767  1.00  0.00     0.100 A 
HETATM   11  C   UNL     1     -42.889  57.280 -58.088  1.00  0.00    -0.004 A 
HETATM   12  N   UNL     1     -43.663  55.064 -58.686  1.00  0.00    -0.257 NA
HETATM   13  C   UNL     1     -42.437  58.152 -57.083  1.00  0.00     0.014 A 
HETATM   14  C   UNL     1     -43.034  57.686 -59.420  1.00  0.00     0.015 A 
HETATM   15  C   UNL     1     -42.304  57.707 -55.766  1.00  0.00     0.013 A 
HETATM   16  C   UNL     1     -43.485  56.780 -60.374  1.00  0.00     0.020 A 
HETATM   17  C   UNL     1     -43.782  55.494 -59.962  1.00  0.00     0.117 A 
BRANCH   9  18
HETATM   18  O   UNL     1     -43.466  54.248 -56.134  1.00  0.00    -0.358 OA
HETATM   19  H   UNL     1     -42.646  53.727 -56.284  1.00  0.00     0.218 HD
ENDBRANCH   9  18
ENDBRANCH   1   8
BRANCH   1  20
HETATM   20  C   UNL     1     -42.239  57.077 -53.005  1.00  0.00    -0.031 A 
HETATM   21  C   UNL     1     -43.349  57.651 -52.359  1.00  0.00     0.010 A 
HETATM   22  C   UNL     1     -43.196  58.717 -51.468  1.00  0.00     0.007 A 
HETATM   23  C   UNL     1     -41.928  59.241 -51.200  1.00  0.00    -0.062 A 
HETATM   24  C   UNL     1     -41.749  60.366 -50.227  1.00  0.00     0.048 C 
HETATM   25  C   UNL     1     -40.818  58.669 -51.827  1.00  0.00     0.007 A 
HETATM   26  C   UNL     1     -40.970  57.606 -52.723  1.00  0.00     0.010 A 
ENDBRANCH   1  20
TORSDOF 5
ENDMDL
MODEL 10
REMARK VINA RESULT:      -6.7      2.734      3.114
REMARK  5 active torsions:
REMARK  status: ('A' for Active; 'I' for Inactive)
REMARK    1  A    between atoms: C_2  and  C_3 
REMARK       I    between atoms: C_3  and  N_4 
REMARK    2  A    between atoms: N_4  and  C_5 
REMARK    3  A    between atoms: C_5  and  C_6 
REMARK    4  A    between atoms: C_5  and  C_17 
REMARK    5  A    between atoms: C_7  and  O_8 
ROOT
HETATM    1  C   UNL     1     -42.255  56.842 -54.029  1.00  0.00     0.154 C 
ENDROOT
BRANCH   1   2
HETATM    2  N   UNL     1     -43.495  56.954 -53.282  1.00  0.00    -0.348 N 
HETATM    3  C   UNL     1     -43.571  57.495 -52.028  1.00  0.00     0.218 C 
HETATM    4  O   UNL     1     -42.609  57.998 -51.454  1.00  0.00    -0.274 OA
HETATM    5  H   UNL     1     -44.281  56.465 -53.691  1.00  0.00     0.163 HD
BRANCH   3   6
HETATM    6  C   UNL     1     -44.962  57.551 -51.421  1.00  0.00     0.098 C 
HETATM    7  C   UNL     1     -45.373  58.905 -50.871  1.00  0.00     0.014 C 
ENDBRANCH   3   6
ENDBRANCH   1   2
BRANCH   1   8
HETATM    8  C   UNL     1     -42.474  57.393 -55.434  1.00  0.00     0.005 A 
HETATM    9  C   UNL     1     -43.193  56.692 -56.415  1.00  0.00     0.103 A 
HETATM   10  C   UNL     1     -43.381  57.175 -57.709  1.00  0.00     0.100 A 
HETATM   11  C   UNL     1     -42.840  58.432 -58.035  1.00  0.00    -0.004 A 
HETATM   12  N   UNL     1     -44.077  56.426 -58.594  1.00  0.00    -0.257 NA
HETATM   13  C   UNL     1     -42.130  59.163 -57.066  1.00  0.00     0.014 A 
HETATM   14  C   UNL     1     -43.041  58.915 -59.334  1.00  0.00     0.015 A 
HETATM   15  C   UNL     1     -41.948  58.645 -55.782  1.00  0.00     0.013 A 
HETATM   16  C   UNL     1     -43.752  58.150 -60.252  1.00  0.00     0.020 A 
HETATM   17  C   UNL     1     -44.243  56.925 -59.840  1.00  0.00     0.117 A 
BRANCH   9  18
HETATM   18  O   UNL     1     -43.776  55.481 -56.097  1.00  0.00    -0.358 OA
HETATM   19  H   UNL     1     -44.738  55.687 -56.081  1.00  0.00     0.218 HD
ENDBRANCH   9  18
ENDBRANCH   1   8
BRANCH   1  20
HETATM   20  C   UNL     1     -41.654  55.435 -54.034  1.00  0.00    -0.031 A 
HETATM   21  C   UNL     1     -40.586  55.148 -54.905  1.00  0.00     0.010 A 
HETATM   22  C   UNL     1     -40.012  53.874 -54.950  1.00  0.00     0.007 A 
HETATM   23  C   UNL     1     -40.492  52.851 -54.128  1.00  0.00    -0.062 A 
HETATM   24  C   UNL     1     -39.868  51.489 -54.148  1.00  0.00     0.048 C 
HETATM   25  C   UNL     1     -41.544  53.129 -53.251  1.00  0.00     0.007 A 
HETATM   26  C   UNL     1     -42.122  54.402 -53.209  1.00  0.00     0.010 A 
ENDBRANCH   1  20
TORSDOF 5
ENDMDL
