MODEL 1
REMARK VINA RESULT:      -7.6      0.000      0.000
REMARK  5 active torsions:
REMARK  status: ('A' for Active; 'I' for Inactive)
REMARK    1  A    between atoms: C_2  and  N_3 
REMARK    2  A    between atoms: N_3  and  C_6 
REMARK    3  A    between atoms: C_6  and  C_7 
REMARK    4  A    between atoms: C_8  and  N_9 
REMARK       I    between atoms: N_9  and  C_10 
REMARK    5  A    between atoms: C_10  and  C_11 
ROOT
HETATM    1  N   UNL     1     -41.213  55.700 -53.219  1.00  0.00    -0.322 N 
HETATM    2  C   UNL     1     -40.540  54.625 -53.756  1.00  0.00     0.259 C 
HETATM    3  O   UNL     1     -40.181  54.536 -54.921  1.00  0.00    -0.267 OA
HETATM    4  H   UNL     1     -41.260  55.678 -52.202  1.00  0.00     0.169 HD
ENDROOT
BRANCH   1   5
HETATM    5  C   UNL     1     -41.565  56.947 -53.805  1.00  0.00     0.043 A 
HETATM    6  C   UNL     1     -42.390  57.197 -54.927  1.00  0.00    -0.006 A 
HETATM    7  C   UNL     1     -42.542  58.538 -55.361  1.00  0.00     0.011 A 
HETATM    8  C   UNL     1     -41.946  59.605 -54.695  1.00  0.00     0.001 A 
HETATM    9  C   UNL     1     -41.185  59.360 -53.566  1.00  0.00     0.002 A 
HETATM   10  C   UNL     1     -41.002  58.049 -53.127  1.00  0.00     0.030 A 
BRANCH   6  11
HETATM   11  C   UNL     1     -43.189  56.182 -55.710  1.00  0.00     0.273 C 
BRANCH  11  12
HETATM   12  N   UNL     1     -42.426  55.618 -56.860  1.00  0.00    -0.072 N 
HETATM   13  H   UNL     1     -42.156  54.652 -56.641  1.00  0.00     0.277 HD
HETATM   14  H   UNL     1     -41.561  56.163 -56.920  1.00  0.00     0.277 HD
BRANCH  12  15
HETATM   15  C   UNL     1     -43.108  55.713 -58.177  1.00  0.00     0.228 C 
HETATM   16  C   UNL     1     -42.755  57.048 -58.803  1.00  0.00     0.034 C 
ENDBRANCH  12  15
ENDBRANCH  11  12
ENDBRANCH   6  11
ENDBRANCH   1   5
BRANCH   2  17
HETATM   17  C   UNL     1     -40.334  53.528 -52.837  1.00  0.00     0.067 A 
HETATM   18  C   UNL     1     -40.115  52.139 -53.095  1.00  0.00     0.015 A 
HETATM   19  C   UNL     1     -39.884  51.557 -51.851  1.00  0.00     0.086 A 
HETATM   20  C   UNL     1     -40.035  51.315 -54.236  1.00  0.00     0.015 A 
HETATM   21  C   UNL     1     -39.589  50.211 -51.655  1.00  0.00     0.038 A 
HETATM   22  O   UNL     1     -39.963  52.493 -50.869  1.00  0.00    -0.321 OA
HETATM   23  C   UNL     1     -39.515  49.415 -52.801  1.00  0.00     0.003 A 
HETATM   24  C   UNL     1     -39.733  49.955 -54.070  1.00  0.00     0.001 A 
HETATM   25  C   UNL     1     -40.215  53.681 -51.470  1.00  0.00     0.160 A 
ENDBRANCH   2  17
TORSDOF 5
ENDMDL
MODEL 2
REMARK VINA RESULT:      -7.5      1.613      3.228
REMARK  5 active torsions:
REMARK  status: ('A' for Active; 'I' for Inactive)
REMARK    1  A    between atoms: C_2  and  N_3 
REMARK    2  A    between atoms: N_3  and  C_6 
REMARK    3  A    between atoms: C_6  and  C_7 
REMARK    4  A    between atoms: C_8  and  N_9 
REMARK       I    between atoms: N_9  and  C_10 
REMARK    5  A    between atoms: C_10  and  C_11 
ROOT
HETATM    1  N   UNL     1     -42.103  54.802 -54.208  1.00  0.00    -0.322 N 
HETATM    2  C   UNL     1     -40.763  54.512 -54.080  1.00  0.00     0.259 C 
HETATM    3  O   UNL     1     -39.875  54.997 -54.765  1.00  0.00    -0.267 OA
HETATM    4  H   UNL     1     -42.666  54.451 -53.435  1.00  0.00     0.169 HD
ENDROOT
BRANCH   1   5
HETATM    5  C   UNL     1     -42.762  55.743 -55.045  1.00  0.00     0.043 A 
HETATM    6  C   UNL     1     -43.471  56.910 -54.676  1.00  0.00    -0.006 A 
HETATM    7  C   UNL     1     -44.102  57.664 -55.699  1.00  0.00     0.011 A 
HETATM    8  C   UNL     1     -44.004  57.314 -57.043  1.00  0.00     0.001 A 
HETATM    9  C   UNL     1     -43.265  56.202 -57.404  1.00  0.00     0.002 A 
HETATM   10  C   UNL     1     -42.650  55.432 -56.417  1.00  0.00     0.030 A 
BRANCH   6  11
HETATM   11  C   UNL     1     -43.601  57.495 -53.289  1.00  0.00     0.273 C 
BRANCH  11  12
HETATM   12  N   UNL     1     -44.418  56.638 -52.382  1.00  0.00    -0.072 N 
HETATM   13  H   UNL     1     -44.679  55.778 -52.878  1.00  0.00     0.277 HD
HETATM   14  H   UNL     1     -45.283  57.158 -52.207  1.00  0.00     0.277 HD
BRANCH  12  15
HETATM   15  C   UNL     1     -43.796  56.344 -51.064  1.00  0.00     0.228 C 
HETATM   16  C   UNL     1     -43.690  54.839 -50.910  1.00  0.00     0.034 C 
ENDBRANCH  12  15
ENDBRANCH  11  12
ENDBRANCH   6  11
ENDBRANCH   1   5
BRANCH   2  17
HETATM   17  C   UNL     1     -40.460  53.504 -53.089  1.00  0.00     0.067 A 
HETATM   18  C   UNL     1     -40.214  52.103 -53.245  1.00  0.00     0.015 A 
HETATM   19  C   UNL     1     -39.881  51.637 -51.976  1.00  0.00     0.086 A 
HETATM   20  C   UNL     1     -40.184  51.188 -54.316  1.00  0.00     0.015 A 
HETATM   21  C   UNL     1     -39.531  50.321 -51.689  1.00  0.00     0.038 A 
HETATM   22  O   UNL     1     -39.925  52.650 -51.072  1.00  0.00    -0.321 OA
HETATM   23  C   UNL     1     -39.507  49.432 -52.767  1.00  0.00     0.003 A 
HETATM   24  C   UNL     1     -39.827  49.856 -54.059  1.00  0.00     0.001 A 
HETATM   25  C   UNL     1     -40.255  53.776 -51.751  1.00  0.00     0.160 A 
ENDBRANCH   2  17
TORSDOF 5
ENDMDL
MODEL 3
REMARK VINA RESULT:      -7.5      1.791      7.089
REMARK  5 active torsions:
REMARK  status: ('A' for Active; 'I' for Inactive)
REMARK    1  A    between atoms: C_2  and  N_3 
REMARK    2  A    between atoms: N_3  and  C_6 
REMARK    3  A    between atoms: C_6  and  C_7 
REMARK    4  A    between atoms: C_8  and  N_9 
REMARK       I    between atoms: N_9  and  C_10 
REMARK    5  A    between atoms: C_10  and  C_11 
ROOT
HETATM    1  N   UNL     1     -40.732  53.664 -53.940  1.00  0.00    -0.322 N 
HETATM    2  C   UNL     1     -41.848  54.428 -53.678  1.00  0.00     0.259 C 
HETATM    3  O   UNL     1     -42.768  54.091 -52.948  1.00  0.00    -0.267 OA
HETATM    4  H   UNL     1     -39.993  54.181 -54.414  1.00  0.00     0.169 HD
ENDROOT
BRANCH   1   5
HETATM    5  C   UNL     1     -40.329  52.411 -53.401  1.00  0.00     0.043 A 
HETATM    6  C   UNL     1     -39.882  52.115 -52.092  1.00  0.00    -0.006 A 
HETATM    7  C   UNL     1     -39.473  50.787 -51.807  1.00  0.00     0.011 A 
HETATM    8  C   UNL     1     -39.542  49.772 -52.758  1.00  0.00     0.001 A 
HETATM    9  C   UNL     1     -40.031  50.055 -54.020  1.00  0.00     0.002 A 
HETATM   10  C   UNL     1     -40.422  51.356 -54.334  1.00  0.00     0.030 A 
BRANCH   6  11
HETATM   11  C   UNL     1     -39.833  53.058 -50.913  1.00  0.00     0.273 C 
BRANCH  11  12
HETATM   12  N   UNL     1     -41.187  53.366 -50.370  1.00  0.00    -0.072 N 
HETATM   13  H   UNL     1     -41.584  52.515 -49.957  1.00  0.00     0.277 HD
HETATM   14  H   UNL     1     -41.767  53.606 -51.180  1.00  0.00     0.277 HD
BRANCH  12  15
HETATM   15  C   UNL     1     -41.241  54.512 -49.425  1.00  0.00     0.228 C 
HETATM   16  C   UNL     1     -40.984  55.788 -50.204  1.00  0.00     0.034 C 
ENDBRANCH  12  15
ENDBRANCH  11  12
ENDBRANCH   6  11
ENDBRANCH   1   5
BRANCH   2  17
HETATM   17  C   UNL     1     -41.902  55.676 -54.403  1.00  0.00     0.067 A 
HETATM   18  C   UNL     1     -42.320  55.945 -55.745  1.00  0.00     0.015 A 
HETATM   19  C   UNL     1     -42.259  57.329 -55.887  1.00  0.00     0.086 A 
HETATM   20  C   UNL     1     -42.790  55.187 -56.836  1.00  0.00     0.015 A 
HETATM   21  C   UNL     1     -42.621  58.018 -57.041  1.00  0.00     0.038 A 
HETATM   22  O   UNL     1     -41.822  57.905 -54.736  1.00  0.00    -0.321 OA
HETATM   23  C   UNL     1     -43.085  57.245 -58.109  1.00  0.00     0.003 A 
HETATM   24  C   UNL     1     -43.169  55.855 -58.010  1.00  0.00     0.001 A 
HETATM   25  C   UNL     1     -41.627  56.907 -53.841  1.00  0.00     0.160 A 
ENDBRANCH   2  17
TORSDOF 5
ENDMDL
MODEL 4
REMARK VINA RESULT:      -7.4      2.122      7.351
REMARK  5 active torsions:
REMARK  status: ('A' for Active; 'I' for Inactive)
REMARK    1  A    between atoms: C_2  and  N_3 
REMARK    2  A    between atoms: N_3  and  C_6 
REMARK    3  A    between atoms: C_6  and  C_7 
REMARK    4  A    between atoms: C_8  and  N_9 
REMARK       I    between atoms: N_9  and  C_10 
REMARK    5  A    between atoms: C_10  and  C_11 
ROOT
HETATM    1  N   UNL     1     -40.610  53.643 -53.423  1.00  0.00    -0.322 N 
HETATM    2  C   UNL     1     -41.748  54.340 -53.082  1.00  0.00     0.259 C 
HETATM    3  O   UNL     1     -42.736  53.849 -52.555  1.00  0.00    -0.267 OA
HETATM    4  H   UNL     1     -39.829  54.246 -53.674  1.00  0.00     0.169 HD
ENDROOT
BRANCH   1   5
HETATM    5  C   UNL     1     -40.261  52.284 -53.187  1.00  0.00     0.043 A 
HETATM    6  C   UNL     1     -40.001  51.639 -51.956  1.00  0.00    -0.006 A 
HETATM    7  C   UNL     1     -39.606  50.277 -51.983  1.00  0.00     0.011 A 
HETATM    8  C   UNL     1     -39.513  49.557 -53.171  1.00  0.00     0.001 A 
HETATM    9  C   UNL     1     -39.821  50.178 -54.368  1.00  0.00     0.002 A 
HETATM   10  C   UNL     1     -40.193  51.522 -54.373  1.00  0.00     0.030 A 
BRANCH   6  11
HETATM   11  C   UNL     1     -40.144  52.229 -50.572  1.00  0.00     0.273 C 
BRANCH  11  12
HETATM   12  N   UNL     1     -39.481  53.559 -50.447  1.00  0.00    -0.072 N 
HETATM   13  H   UNL     1     -39.730  54.135 -51.259  1.00  0.00     0.277 HD
HETATM   14  H   UNL     1     -38.474  53.379 -50.504  1.00  0.00     0.277 HD
BRANCH  12  15
HETATM   15  C   UNL     1     -39.738  54.272 -49.168  1.00  0.00     0.228 C 
HETATM   16  C   UNL     1     -41.236  54.443 -49.008  1.00  0.00     0.034 C 
ENDBRANCH  12  15
ENDBRANCH  11  12
ENDBRANCH   6  11
ENDBRANCH   1   5
BRANCH   2  17
HETATM   17  C   UNL     1     -41.733  55.733 -53.463  1.00  0.00     0.067 A 
HETATM   18  C   UNL     1     -41.526  56.904 -52.668  1.00  0.00     0.015 A 
HETATM   19  C   UNL     1     -41.519  57.970 -53.563  1.00  0.00     0.086 A 
HETATM   20  C   UNL     1     -41.293  57.181 -51.306  1.00  0.00     0.015 A 
HETATM   21  C   UNL     1     -41.309  59.298 -53.203  1.00  0.00     0.038 A 
HETATM   22  O   UNL     1     -41.721  57.526 -54.831  1.00  0.00    -0.321 OA
HETATM   23  C   UNL     1     -41.080  59.548 -51.847  1.00  0.00     0.003 A 
HETATM   24  C   UNL     1     -41.071  58.510 -50.914  1.00  0.00     0.001 A 
HETATM   25  C   UNL     1     -41.830  56.177 -54.768  1.00  0.00     0.160 A 
ENDBRANCH   2  17
TORSDOF 5
ENDMDL
MODEL 5
REMARK VINA RESULT:      -7.3      1.824      3.509
REMARK  5 active torsions:
REMARK  status: ('A' for Active; 'I' for Inactive)
REMARK    1  A    between atoms: C_2  and  N_3 
REMARK    2  A    between atoms: N_3  and  C_6 
REMARK    3  A    between atoms: C_6  and  C_7 
REMARK    4  A    between atoms: C_8  and  N_9 
REMARK       I    between atoms: N_9  and  C_10 
REMARK    5  A    between atoms: C_10  and  C_11 
ROOT
HETATM    1  N   UNL     1     -42.007  55.426 -52.980  1.00  0.00    -0.322 N 
HETATM    2  C   UNL     1     -40.857  54.815 -53.429  1.00  0.00     0.259 C 
HETATM    3  O   UNL     1     -40.216  55.168 -54.408  1.00  0.00    -0.267 OA
HETATM    4  H   UNL     1     -42.291  55.115 -52.052  1.00  0.00     0.169 HD
ENDROOT
BRANCH   1   5
HETATM    5  C   UNL     1     -42.661  56.602 -53.439  1.00  0.00     0.043 A 
HETATM    6  C   UNL     1     -42.206  57.941 -53.399  1.00  0.00    -0.006 A 
HETATM    7  C   UNL     1     -43.074  58.959 -53.868  1.00  0.00     0.011 A 
HETATM    8  C   UNL     1     -44.329  58.674 -54.400  1.00  0.00     0.001 A 
HETATM    9  C   UNL     1     -44.748  57.359 -54.487  1.00  0.00     0.002 A 
HETATM   10  C   UNL     1     -43.922  56.339 -54.017  1.00  0.00     0.030 A 
BRANCH   6  11
HETATM   11  C   UNL     1     -40.848  58.426 -52.949  1.00  0.00     0.273 C 
BRANCH  11  12
HETATM   12  N   UNL     1     -40.619  58.213 -51.491  1.00  0.00    -0.072 N 
HETATM   13  H   UNL     1     -39.854  57.539 -51.367  1.00  0.00     0.277 HD
HETATM   14  H   UNL     1     -41.470  57.769 -51.134  1.00  0.00     0.277 HD
BRANCH  12  15
HETATM   15  C   UNL     1     -40.393  59.451 -50.702  1.00  0.00     0.228 C 
HETATM   16  C   UNL     1     -38.901  59.618 -50.490  1.00  0.00     0.034 C 
ENDBRANCH  12  15
ENDBRANCH  11  12
ENDBRANCH   6  11
ENDBRANCH   1   5
BRANCH   2  17
HETATM   17  C   UNL     1     -40.474  53.639 -52.683  1.00  0.00     0.067 A 
HETATM   18  C   UNL     1     -40.259  52.296 -53.127  1.00  0.00     0.015 A 
HETATM   19  C   UNL     1     -39.813  51.597 -52.008  1.00  0.00     0.086 A 
HETATM   20  C   UNL     1     -40.341  51.603 -54.351  1.00  0.00     0.015 A 
HETATM   21  C   UNL     1     -39.451  50.253 -52.013  1.00  0.00     0.038 A 
HETATM   22  O   UNL     1     -39.760  52.418 -50.927  1.00  0.00    -0.321 OA
HETATM   23  C   UNL     1     -39.540  49.588 -53.238  1.00  0.00     0.003 A 
HETATM   24  C   UNL     1     -39.976  50.249 -54.388  1.00  0.00     0.001 A 
HETATM   25  C   UNL     1     -40.140  53.650 -51.343  1.00  0.00     0.160 A 
ENDBRANCH   2  17
TORSDOF 5
ENDMDL
MODEL 6
REMARK VINA RESULT:      -7.1      2.096      6.917
REMARK  5 active torsions:
REMARK  status: ('A' for Active; 'I' for Inactive)
REMARK    1  A    between atoms: C_2  and  N_3 
REMARK    2  A    between atoms: N_3  and  C_6 
REMARK    3  A    between atoms: C_6  and  C_7 
REMARK    4  A    between atoms: C_8  and  N_9 
REMARK       I    between atoms: N_9  and  C_10 
REMARK    5  A    between atoms: C_10  and  C_11 
ROOT
HETATM    1  N   UNL     1     -41.276  54.798 -55.044  1.00  0.00    -0.322 N 
HETATM    2  C   UNL     1     -42.553  55.210 -55.355  1.00  0.00     0.259 C 
HETATM    3  O   UNL     1     -43.571  54.788 -54.827  1.00  0.00    -0.267 OA
HETATM    4  H   UNL     1     -40.553  55.391 -55.448  1.00  0.00     0.169 HD
ENDROOT
BRANCH   1   5
HETATM    5  C   UNL     1     -40.820  53.906 -54.035  1.00  0.00     0.043 A 
HETATM    6  C   UNL     1     -40.797  54.094 -52.633  1.00  0.00    -0.006 A 
HETATM    7  C   UNL     1     -40.231  53.072 -51.829  1.00  0.00     0.011 A 
HETATM    8  C   UNL     1     -39.744  51.886 -52.373  1.00  0.00     0.001 A 
HETATM    9  C   UNL     1     -39.818  51.685 -53.739  1.00  0.00     0.002 A 
HETATM   10  C   UNL     1     -40.353  52.681 -54.556  1.00  0.00     0.030 A 
BRANCH   6  11
HETATM   11  C   UNL     1     -41.364  55.264 -51.863  1.00  0.00     0.273 C 
BRANCH  11  12
HETATM   12  N   UNL     1     -42.851  55.216 -51.765  1.00  0.00    -0.072 N 
HETATM   13  H   UNL     1     -43.115  54.648 -50.951  1.00  0.00     0.277 HD
HETATM   14  H   UNL     1     -43.173  54.714 -52.598  1.00  0.00     0.277 HD
BRANCH  12  15
HETATM   15  C   UNL     1     -43.524  56.541 -51.751  1.00  0.00     0.228 C 
HETATM   16  C   UNL     1     -42.634  57.538 -52.467  1.00  0.00     0.034 C 
ENDBRANCH  12  15
ENDBRANCH  11  12
ENDBRANCH   6  11
ENDBRANCH   1   5
BRANCH   2  17
HETATM   17  C   UNL     1     -42.627  56.164 -56.438  1.00  0.00     0.067 A 
HETATM   18  C   UNL     1     -43.097  56.000 -57.780  1.00  0.00     0.015 A 
HETATM   19  C   UNL     1     -43.031  57.265 -58.358  1.00  0.00     0.086 A 
HETATM   20  C   UNL     1     -43.617  54.944 -58.554  1.00  0.00     0.015 A 
HETATM   21  C   UNL     1     -43.433  57.557 -59.658  1.00  0.00     0.038 A 
HETATM   22  O   UNL     1     -42.543  58.168 -57.468  1.00  0.00    -0.321 OA
HETATM   23  C   UNL     1     -43.946  56.494 -60.406  1.00  0.00     0.003 A 
HETATM   24  C   UNL     1     -44.037  55.210 -59.866  1.00  0.00     0.001 A 
HETATM   25  C   UNL     1     -42.320  57.504 -56.308  1.00  0.00     0.160 A 
ENDBRANCH   2  17
TORSDOF 5
ENDMDL
MODEL 7
REMARK VINA RESULT:      -7.1      2.907      4.309
REMARK  5 active torsions:
REMARK  status: ('A' for Active; 'I' for Inactive)
REMARK    1  A    between atoms: C_2  and  N_3 
REMARK    2  A    between atoms: N_3  and  C_6 
REMARK    3  A    between atoms: C_6  and  C_7 
REMARK    4  A    between atoms: C_8  and  N_9 
REMARK       I    between atoms: N_9  and  C_10 
REMARK    5  A    between atoms: C_10  and  C_11 
ROOT
HETATM    1  N   UNL     1     -42.407  56.009 -51.576  1.00  0.00    -0.322 N 
HETATM    2  C   UNL     1     -41.388  55.607 -50.742  1.00  0.00     0.259 C 
HETATM    3  O   UNL     1     -40.851  56.316 -49.903  1.00  0.00    -0.267 OA
HETATM    4  H   UNL     1     -42.851  55.236 -52.070  1.00  0.00     0.169 HD
ENDROOT
BRANCH   1   5
HETATM    5  C   UNL     1     -43.125  57.236 -51.623  1.00  0.00     0.043 A 
HETATM    6  C   UNL     1     -42.686  58.500 -52.082  1.00  0.00    -0.006 A 
HETATM    7  C   UNL     1     -43.574  59.599 -51.970  1.00  0.00     0.011 A 
HETATM    8  C   UNL     1     -44.865  59.460 -51.467  1.00  0.00     0.001 A 
HETATM    9  C   UNL     1     -45.308  58.211 -51.070  1.00  0.00     0.002 A 
HETATM   10  C   UNL     1     -44.449  57.115 -51.152  1.00  0.00     0.030 A 
BRANCH   6  11
HETATM   11  C   UNL     1     -41.365  58.819 -52.742  1.00  0.00     0.273 C 
BRANCH  11  12
HETATM   12  N   UNL     1     -40.211  58.679 -51.808  1.00  0.00    -0.072 N 
HETATM   13  H   UNL     1     -39.337  58.735 -52.343  1.00  0.00     0.277 HD
HETATM   14  H   UNL     1     -40.269  57.730 -51.428  1.00  0.00     0.277 HD
BRANCH  12  15
HETATM   15  C   UNL     1     -40.213  59.623 -50.659  1.00  0.00     0.228 C 
HETATM   16  C   UNL     1     -38.781  59.823 -50.203  1.00  0.00     0.034 C 
ENDBRANCH  12  15
ENDBRANCH  11  12
ENDBRANCH   6  11
ENDBRANCH   1   5
BRANCH   2  17
HETATM   17  C   UNL     1     -40.922  54.258 -50.973  1.00  0.00     0.067 A 
HETATM   18  C   UNL     1     -40.633  53.581 -52.199  1.00  0.00     0.015 A 
HETATM   19  C   UNL     1     -40.128  52.336 -51.831  1.00  0.00     0.086 A 
HETATM   20  C   UNL     1     -40.691  53.892 -53.572  1.00  0.00     0.015 A 
HETATM   21  C   UNL     1     -39.686  51.370 -52.730  1.00  0.00     0.038 A 
HETATM   22  O   UNL     1     -40.109  52.215 -50.478  1.00  0.00    -0.321 OA
HETATM   23  C   UNL     1     -39.752  51.702 -54.085  1.00  0.00     0.003 A 
HETATM   24  C   UNL     1     -40.245  52.940 -54.501  1.00  0.00     0.001 A 
HETATM   25  C   UNL     1     -40.569  53.382 -49.966  1.00  0.00     0.160 A 
ENDBRANCH   2  17
TORSDOF 5
ENDMDL
MODEL 8
REMARK VINA RESULT:      -7.0      2.225      6.898
REMARK  5 active torsions:
REMARK  status: ('A' for Active; 'I' for Inactive)
REMARK    1  A    between atoms: C_2  and  N_3 
REMARK    2  A    between atoms: N_3  and  C_6 
REMARK    3  A    between atoms: C_6  and  C_7 
REMARK    4  A    between atoms: C_8  and  N_9 
REMARK       I    between atoms: N_9  and  C_10 
REMARK    5  A    between atoms: C_10  and  C_11 
ROOT
HETATM    1  N   UNL     1     -41.585  55.381 -54.794  1.00  0.00    -0.322 N 
HETATM    2  C   UNL     1     -42.565  54.991 -55.680  1.00  0.00     0.259 C 
HETATM    3  O   UNL     1     -43.245  53.982 -55.568  1.00  0.00    -0.267 OA
HETATM    4  H   UNL     1     -41.259  56.334 -54.948  1.00  0.00     0.169 HD
ENDROOT
BRANCH   1   5
HETATM    5  C   UNL     1     -41.191  54.812 -53.552  1.00  0.00     0.043 A 
HETATM    6  C   UNL     1     -40.586  53.557 -53.307  1.00  0.00    -0.006 A 
HETATM    7  C   UNL     1     -40.342  53.182 -51.961  1.00  0.00     0.011 A 
HETATM    8  C   UNL     1     -40.637  54.024 -50.893  1.00  0.00     0.001 A 
HETATM    9  C   UNL     1     -41.179  55.272 -51.141  1.00  0.00     0.002 A 
HETATM   10  C   UNL     1     -41.447  55.660 -52.454  1.00  0.00     0.030 A 
BRANCH   6  11
HETATM   11  C   UNL     1     -40.110  52.560 -54.338  1.00  0.00     0.273 C 
BRANCH  11  12
HETATM   12  N   UNL     1     -40.977  51.348 -54.403  1.00  0.00    -0.072 N 
HETATM   13  H   UNL     1     -41.635  51.449 -55.184  1.00  0.00     0.277 HD
HETATM   14  H   UNL     1     -41.531  51.351 -53.542  1.00  0.00     0.277 HD
BRANCH  12  15
HETATM   15  C   UNL     1     -40.247  50.055 -54.464  1.00  0.00     0.228 C 
HETATM   16  C   UNL     1     -39.619  49.796 -53.108  1.00  0.00     0.034 C 
ENDBRANCH  12  15
ENDBRANCH  11  12
ENDBRANCH   6  11
ENDBRANCH   1   5
BRANCH   2  17
HETATM   17  C   UNL     1     -42.700  55.846 -56.837  1.00  0.00     0.067 A 
HETATM   18  C   UNL     1     -43.309  55.590 -58.106  1.00  0.00     0.015 A 
HETATM   19  C   UNL     1     -43.239  56.792 -58.806  1.00  0.00     0.086 A 
HETATM   20  C   UNL     1     -43.955  54.501 -58.724  1.00  0.00     0.015 A 
HETATM   21  C   UNL     1     -43.755  56.989 -60.083  1.00  0.00     0.038 A 
HETATM   22  O   UNL     1     -42.621  57.742 -58.056  1.00  0.00    -0.321 OA
HETATM   23  C   UNL     1     -44.391  55.895 -60.675  1.00  0.00     0.003 A 
HETATM   24  C   UNL     1     -44.491  54.672 -60.009  1.00  0.00     0.001 A 
HETATM   25  C   UNL     1     -42.316  57.173 -56.865  1.00  0.00     0.160 A 
ENDBRANCH   2  17
TORSDOF 5
ENDMDL
MODEL 9
REMARK VINA RESULT:      -6.9      2.340      7.350
REMARK  5 active torsions:
REMARK  status: ('A' for Active; 'I' for Inactive)
REMARK    1  A    between atoms: C_2  and  N_3 
REMARK    2  A    between atoms: N_3  and  C_6 
REMARK    3  A    between atoms: C_6  and  C_7 
REMARK    4  A    between atoms: C_8  and  N_9 
REMARK       I    between atoms: N_9  and  C_10 
REMARK    5  A    between atoms: C_10  and  C_11 
ROOT
HETATM    1  N   UNL     1     -40.919  54.013 -53.098  1.00  0.00    -0.322 N 
HETATM    2  C   UNL     1     -42.109  54.579 -52.697  1.00  0.00     0.259 C 
HETATM    3  O   UNL     1     -43.062  53.957 -52.251  1.00  0.00    -0.267 OA
HETATM    4  H   UNL     1     -40.183  54.698 -53.261  1.00  0.00     0.169 HD
ENDROOT
BRANCH   1   5
HETATM    5  C   UNL     1     -40.472  52.666 -53.021  1.00  0.00     0.043 A 
HETATM    6  C   UNL     1     -40.130  51.911 -51.874  1.00  0.00    -0.006 A 
HETATM    7  C   UNL     1     -39.646  50.592 -52.059  1.00  0.00     0.011 A 
HETATM    8  C   UNL     1     -39.541  50.012 -53.321  1.00  0.00     0.001 A 
HETATM    9  C   UNL     1     -39.927  50.734 -54.435  1.00  0.00     0.002 A 
HETATM   10  C   UNL     1     -40.389  52.041 -54.284  1.00  0.00     0.030 A 
BRANCH   6  11
HETATM   11  C   UNL     1     -40.270  52.338 -50.432  1.00  0.00     0.273 C 
BRANCH  11  12
HETATM   12  N   UNL     1     -39.592  53.635 -50.151  1.00  0.00    -0.072 N 
HETATM   13  H   UNL     1     -39.722  54.262 -50.953  1.00  0.00     0.277 HD
HETATM   14  H   UNL     1     -38.591  53.424 -50.095  1.00  0.00     0.277 HD
BRANCH  12  15
HETATM   15  C   UNL     1     -39.984  54.288 -48.875  1.00  0.00     0.228 C 
HETATM   16  C   UNL     1     -41.263  55.068 -49.110  1.00  0.00     0.034 C 
ENDBRANCH  12  15
ENDBRANCH  11  12
ENDBRANCH   6  11
ENDBRANCH   1   5
BRANCH   2  17
HETATM   17  C   UNL     1     -42.195  56.006 -52.908  1.00  0.00     0.067 A 
HETATM   18  C   UNL     1     -43.174  56.776 -53.611  1.00  0.00     0.015 A 
HETATM   19  C   UNL     1     -42.816  58.108 -53.415  1.00  0.00     0.086 A 
HETATM   20  C   UNL     1     -44.346  56.507 -54.345  1.00  0.00     0.015 A 
HETATM   21  C   UNL     1     -43.533  59.195 -53.906  1.00  0.00     0.038 A 
HETATM   22  O   UNL     1     -41.689  58.189 -52.661  1.00  0.00    -0.321 OA
HETATM   23  C   UNL     1     -44.692  58.903 -54.629  1.00  0.00     0.003 A 
HETATM   24  C   UNL     1     -45.094  57.583 -54.846  1.00  0.00     0.001 A 
HETATM   25  C   UNL     1     -41.330  56.922 -52.342  1.00  0.00     0.160 A 
ENDBRANCH   2  17
TORSDOF 5
ENDMDL
MODEL 10
REMARK VINA RESULT:      -6.9      2.249      2.677
REMARK  5 active torsions:
REMARK  status: ('A' for Active; 'I' for Inactive)
REMARK    1  A    between atoms: C_2  and  N_3 
REMARK    2  A    between atoms: N_3  and  C_6 
REMARK    3  A    between atoms: C_6  and  C_7 
REMARK    4  A    between atoms: C_8  and  N_9 
REMARK       I    between atoms: N_9  and  C_10 
REMARK    5  A    between atoms: C_10  and  C_11 
ROOT
HETATM    1  N   UNL     1     -42.563  55.800 -51.915  1.00  0.00    -0.322 N 
HETATM    2  C   UNL     1     -41.431  55.628 -51.150  1.00  0.00     0.259 C 
HETATM    3  O   UNL     1     -40.846  56.522 -50.558  1.00  0.00    -0.267 OA
HETATM    4  H   UNL     1     -43.013  54.923 -52.172  1.00  0.00     0.169 HD
ENDROOT
BRANCH   1   5
HETATM    5  C   UNL     1     -43.355  56.961 -52.134  1.00  0.00     0.043 A 
HETATM    6  C   UNL     1     -43.244  57.927 -53.161  1.00  0.00    -0.006 A 
HETATM    7  C   UNL     1     -44.120  59.041 -53.131  1.00  0.00     0.011 A 
HETATM    8  C   UNL     1     -45.104  59.183 -52.156  1.00  0.00     0.001 A 
HETATM    9  C   UNL     1     -45.245  58.208 -51.186  1.00  0.00     0.002 A 
HETATM   10  C   UNL     1     -44.384  57.111 -51.179  1.00  0.00     0.030 A 
BRANCH   6  11
HETATM   11  C   UNL     1     -42.309  57.890 -54.347  1.00  0.00     0.273 C 
BRANCH  11  12
HETATM   12  N   UNL     1     -42.957  57.331 -55.568  1.00  0.00    -0.072 N 
HETATM   13  H   UNL     1     -42.657  57.876 -56.385  1.00  0.00     0.277 HD
HETATM   14  H   UNL     1     -43.962  57.493 -55.453  1.00  0.00     0.277 HD
BRANCH  12  15
HETATM   15  C   UNL     1     -42.758  55.873 -55.776  1.00  0.00     0.228 C 
HETATM   16  C   UNL     1     -42.943  55.571 -57.251  1.00  0.00     0.034 C 
ENDBRANCH  12  15
ENDBRANCH  11  12
ENDBRANCH   6  11
ENDBRANCH   1   5
BRANCH   2  17
HETATM   17  C   UNL     1     -40.914  54.278 -51.143  1.00  0.00     0.067 A 
HETATM   18  C   UNL     1     -40.600  53.406 -52.232  1.00  0.00     0.015 A 
HETATM   19  C   UNL     1     -40.046  52.267 -51.654  1.00  0.00     0.086 A 
HETATM   20  C   UNL     1     -40.674  53.467 -53.638  1.00  0.00     0.015 A 
HETATM   21  C   UNL     1     -39.568  51.174 -52.372  1.00  0.00     0.038 A 
HETATM   22  O   UNL     1     -40.019  52.388 -50.301  1.00  0.00    -0.321 OA
HETATM   23  C   UNL     1     -39.651  51.258 -53.764  1.00  0.00     0.003 A 
HETATM   24  C   UNL     1     -40.193  52.383 -54.389  1.00  0.00     0.001 A 
HETATM   25  C   UNL     1     -40.524  53.608 -50.000  1.00  0.00     0.160 A 
ENDBRANCH   2  17
TORSDOF 5
ENDMDL
