MODEL 1
REMARK VINA RESULT:      -8.4      0.000      0.000
REMARK  10 active torsions:
REMARK  status: ('A' for Active; 'I' for Inactive)
REMARK    1  A    between atoms: N_2  and  C_4 
REMARK    2  A    between atoms: C_4  and  C_5 
REMARK    3  A    between atoms: C_5  and  C_6 
REMARK    4  A    between atoms: C_6  and  N_7 
REMARK       I    between atoms: N_7  and  C_8 
REMARK    5  A    between atoms: C_8  and  C_9 
REMARK    6  A    between atoms: C_9  and  N_10 
REMARK       I    between atoms: N_10  and  C_11 
REMARK    7  A    between atoms: C_11  and  C_12 
REMARK    8  A    between atoms: C_19  and  C_20 
REMARK    9  A    between atoms: C_21  and  C_22 
REMARK   10  A    between atoms: N_30  and  C_31 
ROOT
HETATM    1  C   UNL     1     -42.775  56.979 -58.224  1.00  0.00     0.104 C 
HETATM    2  C   UNL     1     -42.970  56.477 -56.990  1.00  0.00     0.050 C 
ENDROOT
BRANCH   1   3
HETATM    3  C   UNL     1     -43.501  56.290 -59.335  1.00  0.00     0.268 C 
HETATM    4  N   UNL     1     -44.868  56.240 -59.176  1.00  0.00    -0.356 N 
HETATM    5  H   UNL     1     -45.233  56.480 -58.256  1.00  0.00     0.162 HD
HETATM    6  O   UNL     1     -42.905  55.816 -60.293  1.00  0.00    -0.266 OA
BRANCH   4   7
HETATM    7  C   UNL     1     -45.708  55.476 -60.075  1.00  0.00     0.124 C 
BRANCH   7   8
HETATM    8  C   UNL     1     -47.050  56.163 -60.326  1.00  0.00     0.047 C 
BRANCH   8   9
HETATM    9  C   UNL     1     -46.892  57.662 -60.571  1.00  0.00     0.235 C 
BRANCH   9  10
HETATM   10  N   UNL     1     -47.698  58.088 -61.792  1.00  0.00    -0.079 N 
HETATM   11  C   UNL     1     -48.508  59.338 -61.569  1.00  0.00     0.269 C 
HETATM   12  H   UNL     1     -47.033  58.290 -62.551  1.00  0.00     0.278 HD
HETATM   13  C   UNL     1     -48.575  56.968 -62.294  1.00  0.00     0.269 C 
ENDBRANCH   9  10
ENDBRANCH   8   9
ENDBRANCH   7   8
ENDBRANCH   4   7
ENDBRANCH   1   3
BRANCH   1  14
HETATM   14  N   UNL     1     -42.106  58.148 -58.525  1.00  0.00    -0.318 N 
HETATM   15  C   UNL     1     -42.765  59.285 -58.971  1.00  0.00     0.256 C 
HETATM   16  O   UNL     1     -43.986  59.400 -59.023  1.00  0.00    -0.267 OA
HETATM   17  H   UNL     1     -41.238  58.315 -58.021  1.00  0.00     0.169 HD
BRANCH  15  18
HETATM   18  C   UNL     1     -41.904  60.458 -59.270  1.00  0.00     0.032 A 
HETATM   19  C   UNL     1     -41.776  60.951 -60.573  1.00  0.00     0.017 A 
HETATM   20  C   UNL     1     -40.976  62.071 -60.813  1.00  0.00     0.001 A 
HETATM   21  C   UNL     1     -40.307  62.695 -59.759  1.00  0.00     0.000 A 
HETATM   22  C   UNL     1     -40.443  62.209 -58.458  1.00  0.00     0.001 A 
HETATM   23  C   UNL     1     -41.247  61.097 -58.211  1.00  0.00     0.017 A 
ENDBRANCH  15  18
ENDBRANCH   1  14
BRANCH   2  24
HETATM   24  C   UNL     1     -42.717  57.152 -55.761  1.00  0.00     0.015 A 
HETATM   25  C   UNL     1     -42.071  56.667 -54.588  1.00  0.00     0.099 A 
HETATM   26  N   UNL     1     -42.026  57.632 -53.658  1.00  0.00    -0.166 NA
HETATM   27  N   UNL     1     -42.665  58.704 -54.195  1.00  0.00    -0.244 N 
HETATM   28  C   UNL     1     -43.049  58.457 -55.493  1.00  0.00     0.132 A 
BRANCH  25  29
HETATM   29  C   UNL     1     -41.491  55.347 -54.306  1.00  0.00    -0.005 A 
HETATM   30  C   UNL     1     -40.482  54.794 -55.109  1.00  0.00     0.015 A 
HETATM   31  C   UNL     1     -39.950  53.532 -54.825  1.00  0.00     0.020 A 
HETATM   32  C   UNL     1     -40.412  52.819 -53.722  1.00  0.00     0.011 A 
HETATM   33 BR   UNL     1     -39.684  51.118 -53.337  1.00  0.00    -0.051 Br
HETATM   34  C   UNL     1     -41.399  53.354 -52.901  1.00  0.00     0.020 A 
HETATM   35  C   UNL     1     -41.934  54.614 -53.194  1.00  0.00     0.015 A 
ENDBRANCH  25  29
BRANCH  27  36
HETATM   36  C   UNL     1     -42.843  59.894 -53.436  1.00  0.00     0.058 A 
HETATM   37  C   UNL     1     -43.098  61.104 -54.104  1.00  0.00     0.031 A 
HETATM   38  C   UNL     1     -43.283  62.283 -53.380  1.00  0.00     0.002 A 
HETATM   39  C   UNL     1     -43.208  62.267 -51.990  1.00  0.00     0.000 A 
HETATM   40  C   UNL     1     -42.948  61.072 -51.320  1.00  0.00     0.002 A 
HETATM   41  C   UNL     1     -42.766  59.885 -52.037  1.00  0.00     0.031 A 
ENDBRANCH  27  36
ENDBRANCH   2  24
TORSDOF 10
ENDMDL
MODEL 2
REMARK VINA RESULT:      -8.4      3.030      6.430
REMARK  10 active torsions:
REMARK  status: ('A' for Active; 'I' for Inactive)
REMARK    1  A    between atoms: N_2  and  C_4 
REMARK    2  A    between atoms: C_4  and  C_5 
REMARK    3  A    between atoms: C_5  and  C_6 
REMARK    4  A    between atoms: C_6  and  N_7 
REMARK       I    between atoms: N_7  and  C_8 
REMARK    5  A    between atoms: C_8  and  C_9 
REMARK    6  A    between atoms: C_9  and  N_10 
REMARK       I    between atoms: N_10  and  C_11 
REMARK    7  A    between atoms: C_11  and  C_12 
REMARK    8  A    between atoms: C_19  and  C_20 
REMARK    9  A    between atoms: C_21  and  C_22 
REMARK   10  A    between atoms: N_30  and  C_31 
ROOT
HETATM    1  C   UNL     1     -42.818  56.396 -57.313  1.00  0.00     0.104 C 
HETATM    2  C   UNL     1     -43.119  57.699 -57.151  1.00  0.00     0.050 C 
ENDROOT
BRANCH   1   3
HETATM    3  C   UNL     1     -43.114  55.817 -58.659  1.00  0.00     0.268 C 
HETATM    4  N   UNL     1     -44.346  55.207 -58.758  1.00  0.00    -0.356 N 
HETATM    5  H   UNL     1     -44.839  55.026 -57.886  1.00  0.00     0.162 HD
HETATM    6  O   UNL     1     -42.311  55.891 -59.580  1.00  0.00    -0.266 OA
BRANCH   4   7
HETATM    7  C   UNL     1     -44.729  54.460 -59.938  1.00  0.00     0.124 C 
BRANCH   7   8
HETATM    8  C   UNL     1     -45.448  55.338 -60.962  1.00  0.00     0.047 C 
BRANCH   8   9
HETATM    9  C   UNL     1     -46.431  56.303 -60.301  1.00  0.00     0.235 C 
BRANCH   9  10
HETATM   10  N   UNL     1     -46.241  57.711 -60.852  1.00  0.00    -0.079 N 
HETATM   11  C   UNL     1     -45.357  58.576 -59.994  1.00  0.00     0.269 C 
HETATM   12  H   UNL     1     -45.784  57.629 -61.771  1.00  0.00     0.278 HD
HETATM   13  C   UNL     1     -47.564  58.389 -61.106  1.00  0.00     0.269 C 
ENDBRANCH   9  10
ENDBRANCH   8   9
ENDBRANCH   7   8
ENDBRANCH   4   7
ENDBRANCH   1   3
BRANCH   1  14
HETATM   14  N   UNL     1     -42.127  55.607 -56.415  1.00  0.00    -0.318 N 
HETATM   15  C   UNL     1     -42.744  55.012 -55.324  1.00  0.00     0.256 C 
HETATM   16  O   UNL     1     -43.954  55.027 -55.122  1.00  0.00    -0.267 OA
HETATM   17  H   UNL     1     -41.312  55.117 -56.778  1.00  0.00     0.169 HD
BRANCH  15  18
HETATM   18  C   UNL     1     -41.862  54.207 -54.441  1.00  0.00     0.032 A 
HETATM   19  C   UNL     1     -42.124  54.083 -53.072  1.00  0.00     0.017 A 
HETATM   20  C   UNL     1     -41.286  53.298 -52.276  1.00  0.00     0.001 A 
HETATM   21  C   UNL     1     -40.193  52.641 -52.842  1.00  0.00     0.000 A 
HETATM   22  C   UNL     1     -39.937  52.757 -54.209  1.00  0.00     0.001 A 
HETATM   23  C   UNL     1     -40.775  53.532 -55.010  1.00  0.00     0.017 A 
ENDBRANCH  15  18
ENDBRANCH   1  14
BRANCH   2  24
HETATM   24  C   UNL     1     -42.604  58.557 -56.137  1.00  0.00     0.015 A 
HETATM   25  C   UNL     1     -42.214  59.924 -56.232  1.00  0.00     0.099 A 
HETATM   26  N   UNL     1     -41.795  60.364 -55.037  1.00  0.00    -0.166 NA
HETATM   27  N   UNL     1     -41.868  59.300 -54.196  1.00  0.00    -0.244 N 
HETATM   28  C   UNL     1     -42.406  58.202 -54.826  1.00  0.00     0.132 A 
BRANCH  25  29
HETATM   29  C   UNL     1     -42.224  60.832 -57.387  1.00  0.00    -0.005 A 
HETATM   30  C   UNL     1     -41.430  60.598 -58.520  1.00  0.00     0.015 A 
HETATM   31  C   UNL     1     -41.450  61.480 -59.605  1.00  0.00     0.020 A 
HETATM   32  C   UNL     1     -42.280  62.598 -59.572  1.00  0.00     0.011 A 
HETATM   33 BR   UNL     1     -42.311  63.782 -61.044  1.00  0.00    -0.051 Br
HETATM   34  C   UNL     1     -43.089  62.841 -58.467  1.00  0.00     0.020 A 
HETATM   35  C   UNL     1     -43.059  61.960 -57.381  1.00  0.00     0.015 A 
ENDBRANCH  25  29
BRANCH  27  36
HETATM   36  C   UNL     1     -41.438  59.415 -52.845  1.00  0.00     0.058 A 
HETATM   37  C   UNL     1     -42.260  60.072 -51.914  1.00  0.00     0.031 A 
HETATM   38  C   UNL     1     -41.862  60.192 -50.582  1.00  0.00     0.002 A 
HETATM   39  C   UNL     1     -40.641  59.665 -50.169  1.00  0.00     0.000 A 
HETATM   40  C   UNL     1     -39.814  59.019 -51.088  1.00  0.00     0.002 A 
HETATM   41  C   UNL     1     -40.208  58.892 -52.424  1.00  0.00     0.031 A 
ENDBRANCH  27  36
ENDBRANCH   2  24
TORSDOF 10
ENDMDL
MODEL 3
REMARK VINA RESULT:      -8.3      2.264      6.615
REMARK  10 active torsions:
REMARK  status: ('A' for Active; 'I' for Inactive)
REMARK    1  A    between atoms: N_2  and  C_4 
REMARK    2  A    between atoms: C_4  and  C_5 
REMARK    3  A    between atoms: C_5  and  C_6 
REMARK    4  A    between atoms: C_6  and  N_7 
REMARK       I    between atoms: N_7  and  C_8 
REMARK    5  A    between atoms: C_8  and  C_9 
REMARK    6  A    between atoms: C_9  and  N_10 
REMARK       I    between atoms: N_10  and  C_11 
REMARK    7  A    between atoms: C_11  and  C_12 
REMARK    8  A    between atoms: C_19  and  C_20 
REMARK    9  A    between atoms: C_21  and  C_22 
REMARK   10  A    between atoms: N_30  and  C_31 
ROOT
HETATM    1  C   UNL     1     -42.087  59.029 -54.982  1.00  0.00     0.104 C 
HETATM    2  C   UNL     1     -42.847  57.925 -54.848  1.00  0.00     0.050 C 
ENDROOT
BRANCH   1   3
HETATM    3  C   UNL     1     -41.502  59.578 -53.721  1.00  0.00     0.268 C 
HETATM    4  N   UNL     1     -40.616  58.733 -53.090  1.00  0.00    -0.356 N 
HETATM    5  H   UNL     1     -40.596  57.767 -53.409  1.00  0.00     0.162 HD
HETATM    6  O   UNL     1     -41.803  60.689 -53.304  1.00  0.00    -0.266 OA
BRANCH   4   7
HETATM    7  C   UNL     1     -40.077  59.040 -51.781  1.00  0.00     0.124 C 
BRANCH   7   8
HETATM    8  C   UNL     1     -40.927  58.444 -50.659  1.00  0.00     0.047 C 
BRANCH   8   9
HETATM    9  C   UNL     1     -41.653  57.174 -51.100  1.00  0.00     0.235 C 
BRANCH   9  10
HETATM   10  N   UNL     1     -43.102  57.202 -50.630  1.00  0.00    -0.079 N 
HETATM   11  C   UNL     1     -43.789  55.865 -50.724  1.00  0.00     0.269 C 
HETATM   12  H   UNL     1     -43.104  57.474 -49.637  1.00  0.00     0.278 HD
HETATM   13  C   UNL     1     -43.898  58.261 -51.351  1.00  0.00     0.269 C 
ENDBRANCH   9  10
ENDBRANCH   8   9
ENDBRANCH   7   8
ENDBRANCH   4   7
ENDBRANCH   1   3
BRANCH   1  14
HETATM   14  N   UNL     1     -41.679  59.590 -56.175  1.00  0.00    -0.318 N 
HETATM   15  C   UNL     1     -42.398  60.596 -56.805  1.00  0.00     0.256 C 
HETATM   16  O   UNL     1     -43.375  61.156 -56.316  1.00  0.00    -0.267 OA
HETATM   17  H   UNL     1     -40.678  59.590 -56.356  1.00  0.00     0.169 HD
BRANCH  15  18
HETATM   18  C   UNL     1     -41.839  61.086 -58.090  1.00  0.00     0.032 A 
HETATM   19  C   UNL     1     -42.251  60.545 -59.314  1.00  0.00     0.017 A 
HETATM   20  C   UNL     1     -41.721  61.047 -60.505  1.00  0.00     0.001 A 
HETATM   21  C   UNL     1     -40.784  62.081 -60.476  1.00  0.00     0.000 A 
HETATM   22  C   UNL     1     -40.380  62.626 -59.257  1.00  0.00     0.001 A 
HETATM   23  C   UNL     1     -40.913  62.136 -58.064  1.00  0.00     0.017 A 
ENDBRANCH  15  18
ENDBRANCH   1  14
BRANCH   2  24
HETATM   24  C   UNL     1     -43.192  57.014 -55.888  1.00  0.00     0.015 A 
HETATM   25  C   UNL     1     -42.865  55.634 -56.017  1.00  0.00     0.099 A 
HETATM   26  N   UNL     1     -43.399  55.141 -57.144  1.00  0.00    -0.166 NA
HETATM   27  N   UNL     1     -44.021  56.182 -57.755  1.00  0.00    -0.244 N 
HETATM   28  C   UNL     1     -43.956  57.322 -56.987  1.00  0.00     0.132 A 
BRANCH  25  29
HETATM   29  C   UNL     1     -42.082  54.762 -55.132  1.00  0.00    -0.005 A 
HETATM   30  C   UNL     1     -40.801  54.309 -55.481  1.00  0.00     0.015 A 
HETATM   31  C   UNL     1     -40.077  53.472 -54.625  1.00  0.00     0.020 A 
HETATM   32  C   UNL     1     -40.624  53.094 -53.402  1.00  0.00     0.011 A 
HETATM   33 BR   UNL     1     -39.639  51.972 -52.244  1.00  0.00    -0.051 Br
HETATM   34  C   UNL     1     -41.886  53.545 -53.026  1.00  0.00     0.020 A 
HETATM   35  C   UNL     1     -42.609  54.375 -53.889  1.00  0.00     0.015 A 
ENDBRANCH  25  29
BRANCH  27  36
HETATM   36  C   UNL     1     -44.651  56.008 -59.018  1.00  0.00     0.058 A 
HETATM   37  C   UNL     1     -45.715  56.851 -59.378  1.00  0.00     0.031 A 
HETATM   38  C   UNL     1     -46.345  56.703 -60.615  1.00  0.00     0.002 A 
HETATM   39  C   UNL     1     -45.924  55.711 -61.497  1.00  0.00     0.000 A 
HETATM   40  C   UNL     1     -44.875  54.864 -61.144  1.00  0.00     0.002 A 
HETATM   41  C   UNL     1     -44.236  55.008 -59.908  1.00  0.00     0.031 A 
ENDBRANCH  27  36
ENDBRANCH   2  24
TORSDOF 10
ENDMDL
MODEL 4
REMARK VINA RESULT:      -8.2      3.011      6.525
REMARK  10 active torsions:
REMARK  status: ('A' for Active; 'I' for Inactive)
REMARK    1  A    between atoms: N_2  and  C_4 
REMARK    2  A    between atoms: C_4  and  C_5 
REMARK    3  A    between atoms: C_5  and  C_6 
REMARK    4  A    between atoms: C_6  and  N_7 
REMARK       I    between atoms: N_7  and  C_8 
REMARK    5  A    between atoms: C_8  and  C_9 
REMARK    6  A    between atoms: C_9  and  N_10 
REMARK       I    between atoms: N_10  and  C_11 
REMARK    7  A    between atoms: C_11  and  C_12 
REMARK    8  A    between atoms: C_19  and  C_20 
REMARK    9  A    between atoms: C_21  and  C_22 
REMARK   10  A    between atoms: N_30  and  C_31 
ROOT
HETATM    1  C   UNL     1     -42.361  59.206 -56.353  1.00  0.00     0.104 C 
HETATM    2  C   UNL     1     -42.103  59.156 -55.032  1.00  0.00     0.050 C 
ENDROOT
BRANCH   1   3
HETATM    3  C   UNL     1     -41.979  60.473 -57.048  1.00  0.00     0.268 C 
HETATM    4  N   UNL     1     -42.955  61.445 -57.036  1.00  0.00    -0.356 N 
HETATM    5  H   UNL     1     -43.888  61.155 -56.751  1.00  0.00     0.162 HD
HETATM    6  O   UNL     1     -40.884  60.610 -57.578  1.00  0.00    -0.266 OA
BRANCH   4   7
HETATM    7  C   UNL     1     -42.814  62.671 -57.794  1.00  0.00     0.124 C 
BRANCH   7   8
HETATM    8  C   UNL     1     -43.642  62.648 -59.079  1.00  0.00     0.047 C 
BRANCH   8   9
HETATM    9  C   UNL     1     -42.895  61.982 -60.233  1.00  0.00     0.235 C 
BRANCH   9  10
HETATM   10  N   UNL     1     -43.305  60.520 -60.355  1.00  0.00    -0.079 N 
HETATM   11  C   UNL     1     -42.171  59.610 -60.749  1.00  0.00     0.269 C 
HETATM   12  H   UNL     1     -43.636  60.209 -59.432  1.00  0.00     0.278 HD
HETATM   13  C   UNL     1     -44.474  60.349 -61.293  1.00  0.00     0.269 C 
ENDBRANCH   9  10
ENDBRANCH   8   9
ENDBRANCH   7   8
ENDBRANCH   4   7
ENDBRANCH   1   3
BRANCH   1  14
HETATM   14  N   UNL     1     -42.790  58.152 -57.135  1.00  0.00    -0.318 N 
HETATM   15  C   UNL     1     -43.999  58.177 -57.814  1.00  0.00     0.256 C 
HETATM   16  O   UNL     1     -44.731  59.160 -57.884  1.00  0.00    -0.267 OA
HETATM   17  H   UNL     1     -42.063  57.577 -57.556  1.00  0.00     0.169 HD
BRANCH  15  18
HETATM   18  C   UNL     1     -44.327  56.960 -58.599  1.00  0.00     0.032 A 
HETATM   19  C   UNL     1     -43.534  55.809 -58.520  1.00  0.00     0.017 A 
HETATM   20  C   UNL     1     -43.886  54.674 -59.254  1.00  0.00     0.001 A 
HETATM   21  C   UNL     1     -45.023  54.687 -60.064  1.00  0.00     0.000 A 
HETATM   22  C   UNL     1     -45.819  55.831 -60.135  1.00  0.00     0.001 A 
HETATM   23  C   UNL     1     -45.478  56.964 -59.397  1.00  0.00     0.017 A 
ENDBRANCH  15  18
ENDBRANCH   1  14
BRANCH   2  24
HETATM   24  C   UNL     1     -42.016  57.975 -54.240  1.00  0.00     0.015 A 
HETATM   25  C   UNL     1     -42.532  57.730 -52.936  1.00  0.00     0.099 A 
HETATM   26  N   UNL     1     -42.240  56.478 -52.556  1.00  0.00    -0.166 NA
HETATM   27  N   UNL     1     -41.515  55.935 -53.568  1.00  0.00    -0.244 N 
HETATM   28  C   UNL     1     -41.409  56.806 -54.628  1.00  0.00     0.132 A 
BRANCH  25  29
HETATM   29  C   UNL     1     -43.288  58.613 -52.037  1.00  0.00    -0.005 A 
HETATM   30  C   UNL     1     -44.649  58.405 -51.768  1.00  0.00     0.015 A 
HETATM   31  C   UNL     1     -45.351  59.263 -50.915  1.00  0.00     0.020 A 
HETATM   32  C   UNL     1     -44.691  60.329 -50.310  1.00  0.00     0.011 A 
HETATM   33 BR   UNL     1     -45.640  61.481 -49.151  1.00  0.00    -0.051 Br
HETATM   34  C   UNL     1     -43.337  60.545 -50.549  1.00  0.00     0.020 A 
HETATM   35  C   UNL     1     -42.641  59.688 -51.408  1.00  0.00     0.015 A 
ENDBRANCH  25  29
BRANCH  27  36
HETATM   36  C   UNL     1     -40.995  54.616 -53.459  1.00  0.00     0.058 A 
HETATM   37  C   UNL     1     -40.707  53.890 -54.627  1.00  0.00     0.031 A 
HETATM   38  C   UNL     1     -40.190  52.597 -54.544  1.00  0.00     0.002 A 
HETATM   39  C   UNL     1     -39.963  52.014 -53.300  1.00  0.00     0.000 A 
HETATM   40  C   UNL     1     -40.254  52.724 -52.135  1.00  0.00     0.002 A 
HETATM   41  C   UNL     1     -40.769  54.023 -52.209  1.00  0.00     0.031 A 
ENDBRANCH  27  36
ENDBRANCH   2  24
TORSDOF 10
ENDMDL
MODEL 5
REMARK VINA RESULT:      -8.1      3.048      6.790
REMARK  10 active torsions:
REMARK  status: ('A' for Active; 'I' for Inactive)
REMARK    1  A    between atoms: N_2  and  C_4 
REMARK    2  A    between atoms: C_4  and  C_5 
REMARK    3  A    between atoms: C_5  and  C_6 
REMARK    4  A    between atoms: C_6  and  N_7 
REMARK       I    between atoms: N_7  and  C_8 
REMARK    5  A    between atoms: C_8  and  C_9 
REMARK    6  A    between atoms: C_9  and  N_10 
REMARK       I    between atoms: N_10  and  C_11 
REMARK    7  A    between atoms: C_11  and  C_12 
REMARK    8  A    between atoms: C_19  and  C_20 
REMARK    9  A    between atoms: C_21  and  C_22 
REMARK   10  A    between atoms: N_30  and  C_31 
ROOT
HETATM    1  C   UNL     1     -42.361  59.236 -56.362  1.00  0.00     0.104 C 
HETATM    2  C   UNL     1     -42.093  59.171 -55.044  1.00  0.00     0.050 C 
ENDROOT
BRANCH   1   3
HETATM    3  C   UNL     1     -41.972  60.506 -57.049  1.00  0.00     0.268 C 
HETATM    4  N   UNL     1     -42.885  61.529 -56.912  1.00  0.00    -0.356 N 
HETATM    5  H   UNL     1     -43.803  61.280 -56.548  1.00  0.00     0.162 HD
HETATM    6  O   UNL     1     -40.925  60.603 -57.676  1.00  0.00    -0.266 OA
BRANCH   4   7
HETATM    7  C   UNL     1     -42.744  62.773 -57.640  1.00  0.00     0.124 C 
BRANCH   7   8
HETATM    8  C   UNL     1     -43.385  62.701 -59.025  1.00  0.00     0.047 C 
BRANCH   8   9
HETATM    9  C   UNL     1     -42.436  63.179 -60.123  1.00  0.00     0.235 C 
BRANCH   9  10
HETATM   10  N   UNL     1     -41.304  62.179 -60.319  1.00  0.00    -0.079 N 
HETATM   11  C   UNL     1     -40.082  62.775 -60.965  1.00  0.00     0.269 C 
HETATM   12  H   UNL     1     -41.021  61.841 -59.389  1.00  0.00     0.278 HD
HETATM   13  C   UNL     1     -41.767  60.961 -61.079  1.00  0.00     0.269 C 
ENDBRANCH   9  10
ENDBRANCH   8   9
ENDBRANCH   7   8
ENDBRANCH   4   7
ENDBRANCH   1   3
BRANCH   1  14
HETATM   14  N   UNL     1     -42.805  58.193 -57.150  1.00  0.00    -0.318 N 
HETATM   15  C   UNL     1     -44.019  58.236 -57.821  1.00  0.00     0.256 C 
HETATM   16  O   UNL     1     -44.742  59.227 -57.877  1.00  0.00    -0.267 OA
HETATM   17  H   UNL     1     -42.088  57.615 -57.581  1.00  0.00     0.169 HD
BRANCH  15  18
HETATM   18  C   UNL     1     -44.364  57.029 -58.614  1.00  0.00     0.032 A 
HETATM   19  C   UNL     1     -43.542  55.897 -58.609  1.00  0.00     0.017 A 
HETATM   20  C   UNL     1     -43.910  54.771 -59.348  1.00  0.00     0.001 A 
HETATM   21  C   UNL     1     -45.093  54.774 -60.089  1.00  0.00     0.000 A 
HETATM   22  C   UNL     1     -45.918  55.899 -60.086  1.00  0.00     0.001 A 
HETATM   23  C   UNL     1     -45.560  57.023 -59.343  1.00  0.00     0.017 A 
ENDBRANCH  15  18
ENDBRANCH   1  14
BRANCH   2  24
HETATM   24  C   UNL     1     -42.010  57.982 -54.264  1.00  0.00     0.015 A 
HETATM   25  C   UNL     1     -42.507  57.734 -52.952  1.00  0.00     0.099 A 
HETATM   26  N   UNL     1     -42.229  56.474 -52.588  1.00  0.00    -0.166 NA
HETATM   27  N   UNL     1     -41.530  55.929 -53.617  1.00  0.00    -0.244 N 
HETATM   28  C   UNL     1     -41.428  56.808 -54.672  1.00  0.00     0.132 A 
BRANCH  25  29
HETATM   29  C   UNL     1     -43.234  58.621 -52.034  1.00  0.00    -0.005 A 
HETATM   30  C   UNL     1     -42.609  59.705 -51.401  1.00  0.00     0.015 A 
HETATM   31  C   UNL     1     -43.319  60.532 -50.524  1.00  0.00     0.020 A 
HETATM   32  C   UNL     1     -44.669  60.289 -50.285  1.00  0.00     0.011 A 
HETATM   33 BR   UNL     1     -45.627  61.413 -49.107  1.00  0.00    -0.051 Br
HETATM   34  C   UNL     1     -45.315  59.229 -50.915  1.00  0.00     0.020 A 
HETATM   35  C   UNL     1     -44.598  58.401 -51.785  1.00  0.00     0.015 A 
ENDBRANCH  25  29
BRANCH  27  36
HETATM   36  C   UNL     1     -41.028  54.602 -53.528  1.00  0.00     0.058 A 
HETATM   37  C   UNL     1     -40.803  54.034 -52.263  1.00  0.00     0.031 A 
HETATM   38  C   UNL     1     -40.317  52.731 -52.151  1.00  0.00     0.002 A 
HETATM   39  C   UNL     1     -40.046  51.986 -53.297  1.00  0.00     0.000 A 
HETATM   40  C   UNL     1     -40.259  52.545 -54.556  1.00  0.00     0.002 A 
HETATM   41  C   UNL     1     -40.749  53.849 -54.677  1.00  0.00     0.031 A 
ENDBRANCH  27  36
ENDBRANCH   2  24
TORSDOF 10
ENDMDL
MODEL 6
REMARK VINA RESULT:      -7.9      3.415      6.839
REMARK  10 active torsions:
REMARK  status: ('A' for Active; 'I' for Inactive)
REMARK    1  A    between atoms: N_2  and  C_4 
REMARK    2  A    between atoms: C_4  and  C_5 
REMARK    3  A    between atoms: C_5  and  C_6 
REMARK    4  A    between atoms: C_6  and  N_7 
REMARK       I    between atoms: N_7  and  C_8 
REMARK    5  A    between atoms: C_8  and  C_9 
REMARK    6  A    between atoms: C_9  and  N_10 
REMARK       I    between atoms: N_10  and  C_11 
REMARK    7  A    between atoms: C_11  and  C_12 
REMARK    8  A    between atoms: C_19  and  C_20 
REMARK    9  A    between atoms: C_21  and  C_22 
REMARK   10  A    between atoms: N_30  and  C_31 
ROOT
HETATM    1  C   UNL     1     -42.721  56.892 -55.897  1.00  0.00     0.104 C 
HETATM    2  C   UNL     1     -41.674  56.046 -55.925  1.00  0.00     0.050 C 
ENDROOT
BRANCH   1   3
HETATM    3  C   UNL     1     -43.218  57.365 -57.225  1.00  0.00     0.268 C 
HETATM    4  N   UNL     1     -44.483  56.925 -57.549  1.00  0.00    -0.356 N 
HETATM    5  H   UNL     1     -44.870  56.179 -56.976  1.00  0.00     0.162 HD
HETATM    6  O   UNL     1     -42.537  58.082 -57.947  1.00  0.00    -0.266 OA
BRANCH   4   7
HETATM    7  C   UNL     1     -45.054  57.158 -58.859  1.00  0.00     0.124 C 
BRANCH   7   8
HETATM    8  C   UNL     1     -46.424  57.831 -58.775  1.00  0.00     0.047 C 
BRANCH   8   9
HETATM    9  C   UNL     1     -46.834  58.121 -57.332  1.00  0.00     0.235 C 
BRANCH   9  10
HETATM   10  N   UNL     1     -47.243  59.580 -57.180  1.00  0.00    -0.079 N 
HETATM   11  C   UNL     1     -48.204  60.047 -58.242  1.00  0.00     0.269 C 
HETATM   12  H   UNL     1     -47.723  59.678 -56.274  1.00  0.00     0.278 HD
HETATM   13  C   UNL     1     -46.041  60.488 -57.113  1.00  0.00     0.269 C 
ENDBRANCH   9  10
ENDBRANCH   8   9
ENDBRANCH   7   8
ENDBRANCH   4   7
ENDBRANCH   1   3
BRANCH   1  14
HETATM   14  N   UNL     1     -43.462  57.226 -54.781  1.00  0.00    -0.318 N 
HETATM   15  C   UNL     1     -43.714  58.543 -54.425  1.00  0.00     0.256 C 
HETATM   16  O   UNL     1     -43.416  59.513 -55.115  1.00  0.00    -0.267 OA
HETATM   17  H   UNL     1     -44.165  56.551 -54.486  1.00  0.00     0.169 HD
BRANCH  15  18
HETATM   18  C   UNL     1     -44.512  58.739 -53.188  1.00  0.00     0.032 A 
HETATM   19  C   UNL     1     -44.860  57.659 -52.370  1.00  0.00     0.017 A 
HETATM   20  C   UNL     1     -45.591  57.884 -51.201  1.00  0.00     0.001 A 
HETATM   21  C   UNL     1     -45.973  59.180 -50.850  1.00  0.00     0.000 A 
HETATM   22  C   UNL     1     -45.617  60.258 -51.661  1.00  0.00     0.001 A 
HETATM   23  C   UNL     1     -44.880  60.041 -52.825  1.00  0.00     0.017 A 
ENDBRANCH  15  18
ENDBRANCH   1  14
BRANCH   2  24
HETATM   24  C   UNL     1     -41.268  55.180 -54.870  1.00  0.00     0.015 A 
HETATM   25  C   UNL     1     -41.026  55.487 -53.500  1.00  0.00     0.099 A 
HETATM   26  N   UNL     1     -40.672  54.376 -52.838  1.00  0.00    -0.166 NA
HETATM   27  N   UNL     1     -40.642  53.380 -53.760  1.00  0.00    -0.244 N 
HETATM   28  C   UNL     1     -41.051  53.830 -54.994  1.00  0.00     0.132 A 
BRANCH  25  29
HETATM   29  C   UNL     1     -41.117  56.769 -52.789  1.00  0.00    -0.005 A 
HETATM   30  C   UNL     1     -41.744  56.879 -51.538  1.00  0.00     0.015 A 
HETATM   31  C   UNL     1     -41.826  58.112 -50.883  1.00  0.00     0.020 A 
HETATM   32  C   UNL     1     -41.266  59.245 -51.467  1.00  0.00     0.011 A 
HETATM   33 BR   UNL     1     -41.371  60.907 -50.574  1.00  0.00    -0.051 Br
HETATM   34  C   UNL     1     -40.624  59.157 -52.699  1.00  0.00     0.020 A 
HETATM   35  C   UNL     1     -40.551  57.923 -53.354  1.00  0.00     0.015 A 
ENDBRANCH  25  29
BRANCH  27  36
HETATM   36  C   UNL     1     -40.245  52.065 -53.391  1.00  0.00     0.058 A 
HETATM   37  C   UNL     1     -39.863  51.807 -52.064  1.00  0.00     0.031 A 
HETATM   38  C   UNL     1     -39.476  50.524 -51.677  1.00  0.00     0.002 A 
HETATM   39  C   UNL     1     -39.460  49.489 -52.610  1.00  0.00     0.000 A 
HETATM   40  C   UNL     1     -39.830  49.738 -53.932  1.00  0.00     0.002 A 
HETATM   41  C   UNL     1     -40.223  51.021 -54.326  1.00  0.00     0.031 A 
ENDBRANCH  27  36
ENDBRANCH   2  24
TORSDOF 10
ENDMDL
MODEL 7
REMARK VINA RESULT:      -7.7      2.498      7.480
REMARK  10 active torsions:
REMARK  status: ('A' for Active; 'I' for Inactive)
REMARK    1  A    between atoms: N_2  and  C_4 
REMARK    2  A    between atoms: C_4  and  C_5 
REMARK    3  A    between atoms: C_5  and  C_6 
REMARK    4  A    between atoms: C_6  and  N_7 
REMARK       I    between atoms: N_7  and  C_8 
REMARK    5  A    between atoms: C_8  and  C_9 
REMARK    6  A    between atoms: C_9  and  N_10 
REMARK       I    between atoms: N_10  and  C_11 
REMARK    7  A    between atoms: C_11  and  C_12 
REMARK    8  A    between atoms: C_19  and  C_20 
REMARK    9  A    between atoms: C_21  and  C_22 
REMARK   10  A    between atoms: N_30  and  C_31 
ROOT
HETATM    1  C   UNL     1     -43.180  56.481 -56.618  1.00  0.00     0.104 C 
HETATM    2  C   UNL     1     -42.101  57.265 -56.426  1.00  0.00     0.050 C 
ENDROOT
BRANCH   1   3
HETATM    3  C   UNL     1     -43.326  55.326 -55.679  1.00  0.00     0.268 C 
HETATM    4  N   UNL     1     -43.271  55.667 -54.345  1.00  0.00    -0.356 N 
HETATM    5  H   UNL     1     -42.941  56.604 -54.124  1.00  0.00     0.162 HD
HETATM    6  O   UNL     1     -43.477  54.182 -56.088  1.00  0.00    -0.266 OA
BRANCH   4   7
HETATM    7  C   UNL     1     -43.238  54.659 -53.306  1.00  0.00     0.124 C 
BRANCH   7   8
HETATM    8  C   UNL     1     -41.811  54.343 -52.861  1.00  0.00     0.047 C 
BRANCH   8   9
HETATM    9  C   UNL     1     -41.287  53.050 -53.481  1.00  0.00     0.235 C 
BRANCH   9  10
HETATM   10  N   UNL     1     -40.026  52.589 -52.761  1.00  0.00    -0.079 N 
HETATM   11  C   UNL     1     -39.485  51.281 -53.277  1.00  0.00     0.269 C 
HETATM   12  H   UNL     1     -39.298  53.300 -52.918  1.00  0.00     0.278 HD
HETATM   13  C   UNL     1     -40.231  52.528 -51.269  1.00  0.00     0.269 C 
ENDBRANCH   9  10
ENDBRANCH   8   9
ENDBRANCH   7   8
ENDBRANCH   4   7
ENDBRANCH   1   3
BRANCH   1  14
HETATM   14  N   UNL     1     -44.224  56.739 -57.483  1.00  0.00    -0.318 N 
HETATM   15  C   UNL     1     -44.176  56.396 -58.826  1.00  0.00     0.256 C 
HETATM   16  O   UNL     1     -43.275  55.738 -59.338  1.00  0.00    -0.267 OA
HETATM   17  H   UNL     1     -45.155  56.766 -57.072  1.00  0.00     0.169 HD
BRANCH  15  18
HETATM   18  C   UNL     1     -45.371  56.755 -59.630  1.00  0.00     0.032 A 
HETATM   19  C   UNL     1     -46.073  55.788 -60.359  1.00  0.00     0.017 A 
HETATM   20  C   UNL     1     -47.208  56.158 -61.085  1.00  0.00     0.001 A 
HETATM   21  C   UNL     1     -47.640  57.485 -61.085  1.00  0.00     0.000 A 
HETATM   22  C   UNL     1     -46.946  58.447 -60.351  1.00  0.00     0.001 A 
HETATM   23  C   UNL     1     -45.817  58.082 -59.616  1.00  0.00     0.017 A 
ENDBRANCH  15  18
ENDBRANCH   1  14
BRANCH   2  24
HETATM   24  C   UNL     1     -41.936  58.594 -56.911  1.00  0.00     0.015 A 
HETATM   25  C   UNL     1     -41.981  59.823 -56.193  1.00  0.00     0.099 A 
HETATM   26  N   UNL     1     -41.761  60.849 -57.027  1.00  0.00    -0.166 NA
HETATM   27  N   UNL     1     -41.619  60.307 -58.264  1.00  0.00    -0.244 N 
HETATM   28  C   UNL     1     -41.668  58.932 -58.215  1.00  0.00     0.132 A 
BRANCH  25  29
HETATM   29  C   UNL     1     -42.215  60.074 -54.764  1.00  0.00    -0.005 A 
HETATM   30  C   UNL     1     -41.473  59.424 -53.767  1.00  0.00     0.015 A 
HETATM   31  C   UNL     1     -41.718  59.674 -52.412  1.00  0.00     0.020 A 
HETATM   32  C   UNL     1     -42.699  60.591 -52.045  1.00  0.00     0.011 A 
HETATM   33 BR   UNL     1     -43.020  60.932 -50.214  1.00  0.00    -0.051 Br
HETATM   34  C   UNL     1     -43.435  61.261 -53.016  1.00  0.00     0.020 A 
HETATM   35  C   UNL     1     -43.192  61.002 -54.369  1.00  0.00     0.015 A 
ENDBRANCH  25  29
BRANCH  27  36
HETATM   36  C   UNL     1     -41.425  61.139 -59.401  1.00  0.00     0.058 A 
HETATM   37  C   UNL     1     -41.900  60.716 -60.653  1.00  0.00     0.031 A 
HETATM   38  C   UNL     1     -41.727  61.518 -61.781  1.00  0.00     0.002 A 
HETATM   39  C   UNL     1     -41.074  62.744 -61.672  1.00  0.00     0.000 A 
HETATM   40  C   UNL     1     -40.592  63.168 -60.435  1.00  0.00     0.002 A 
HETATM   41  C   UNL     1     -40.765  62.371 -59.298  1.00  0.00     0.031 A 
ENDBRANCH  27  36
ENDBRANCH   2  24
TORSDOF 10
ENDMDL
MODEL 8
REMARK VINA RESULT:      -7.6      3.094      4.574
REMARK  10 active torsions:
REMARK  status: ('A' for Active; 'I' for Inactive)
REMARK    1  A    between atoms: N_2  and  C_4 
REMARK    2  A    between atoms: C_4  and  C_5 
REMARK    3  A    between atoms: C_5  and  C_6 
REMARK    4  A    between atoms: C_6  and  N_7 
REMARK       I    between atoms: N_7  and  C_8 
REMARK    5  A    between atoms: C_8  and  C_9 
REMARK    6  A    between atoms: C_9  and  N_10 
REMARK       I    between atoms: N_10  and  C_11 
REMARK    7  A    between atoms: C_11  and  C_12 
REMARK    8  A    between atoms: C_19  and  C_20 
REMARK    9  A    between atoms: C_21  and  C_22 
REMARK   10  A    between atoms: N_30  and  C_31 
ROOT
HETATM    1  C   UNL     1     -42.491  57.557 -58.292  1.00  0.00     0.104 C 
HETATM    2  C   UNL     1     -42.855  57.186 -57.049  1.00  0.00     0.050 C 
ENDROOT
BRANCH   1   3
HETATM    3  C   UNL     1     -43.000  56.702 -59.407  1.00  0.00     0.268 C 
HETATM    4  N   UNL     1     -44.369  56.545 -59.425  1.00  0.00    -0.356 N 
HETATM    5  H   UNL     1     -44.875  56.840 -58.593  1.00  0.00     0.162 HD
HETATM    6  O   UNL     1     -42.242  56.192 -60.222  1.00  0.00    -0.266 OA
BRANCH   4   7
HETATM    7  C   UNL     1     -45.015  55.625 -60.339  1.00  0.00     0.124 C 
BRANCH   7   8
HETATM    8  C   UNL     1     -46.512  55.903 -60.466  1.00  0.00     0.047 C 
BRANCH   8   9
HETATM    9  C   UNL     1     -46.823  57.398 -60.451  1.00  0.00     0.235 C 
BRANCH   9  10
HETATM   10  N   UNL     1     -47.451  57.823 -61.772  1.00  0.00    -0.079 N 
HETATM   11  C   UNL     1     -47.970  59.237 -61.762  1.00  0.00     0.269 C 
HETATM   12  H   UNL     1     -46.720  57.774 -62.496  1.00  0.00     0.278 HD
HETATM   13  C   UNL     1     -48.530  56.863 -62.207  1.00  0.00     0.269 C 
ENDBRANCH   9  10
ENDBRANCH   8   9
ENDBRANCH   7   8
ENDBRANCH   4   7
ENDBRANCH   1   3
BRANCH   1  14
HETATM   14  N   UNL     1     -41.838  58.726 -58.629  1.00  0.00    -0.318 N 
HETATM   15  C   UNL     1     -42.455  59.737 -59.353  1.00  0.00     0.256 C 
HETATM   16  O   UNL     1     -43.645  59.744 -59.651  1.00  0.00    -0.267 OA
HETATM   17  H   UNL     1     -41.098  59.028 -57.999  1.00  0.00     0.169 HD
BRANCH  15  18
HETATM   18  C   UNL     1     -41.615  60.925 -59.651  1.00  0.00     0.032 A 
HETATM   19  C   UNL     1     -40.915  61.591 -58.639  1.00  0.00     0.017 A 
HETATM   20  C   UNL     1     -40.116  62.691 -58.960  1.00  0.00     0.001 A 
HETATM   21  C   UNL     1     -40.016  63.124 -60.284  1.00  0.00     0.000 A 
HETATM   22  C   UNL     1     -40.706  62.454 -61.293  1.00  0.00     0.001 A 
HETATM   23  C   UNL     1     -41.499  61.349 -60.980  1.00  0.00     0.017 A 
ENDBRANCH  15  18
ENDBRANCH   1  14
BRANCH   2  24
HETATM   24  C   UNL     1     -42.830  58.010 -55.888  1.00  0.00     0.015 A 
HETATM   25  C   UNL     1     -43.636  59.141 -55.572  1.00  0.00     0.099 A 
HETATM   26  N   UNL     1     -43.297  59.624 -54.368  1.00  0.00    -0.166 NA
HETATM   27  N   UNL     1     -42.268  58.855 -53.929  1.00  0.00    -0.244 N 
HETATM   28  C   UNL     1     -41.997  57.832 -54.810  1.00  0.00     0.132 A 
BRANCH  25  29
HETATM   29  C   UNL     1     -44.709  59.782 -56.345  1.00  0.00    -0.005 A 
HETATM   30  C   UNL     1     -44.678  61.148 -56.664  1.00  0.00     0.015 A 
HETATM   31  C   UNL     1     -45.715  61.738 -57.395  1.00  0.00     0.020 A 
HETATM   32  C   UNL     1     -46.786  60.960 -57.827  1.00  0.00     0.011 A 
HETATM   33 BR   UNL     1     -48.180  61.759 -58.821  1.00  0.00    -0.051 Br
HETATM   34  C   UNL     1     -46.830  59.600 -57.537  1.00  0.00     0.020 A 
HETATM   35  C   UNL     1     -45.794  59.016 -56.800  1.00  0.00     0.015 A 
ENDBRANCH  25  29
BRANCH  27  36
HETATM   36  C   UNL     1     -41.630  59.138 -52.690  1.00  0.00     0.058 A 
HETATM   37  C   UNL     1     -42.362  59.761 -51.665  1.00  0.00     0.031 A 
HETATM   38  C   UNL     1     -41.760  60.043 -50.439  1.00  0.00     0.002 A 
HETATM   39  C   UNL     1     -40.423  59.714 -50.226  1.00  0.00     0.000 A 
HETATM   40  C   UNL     1     -39.687  59.103 -51.241  1.00  0.00     0.002 A 
HETATM   41  C   UNL     1     -40.284  58.813 -52.472  1.00  0.00     0.031 A 
ENDBRANCH  27  36
ENDBRANCH   2  24
TORSDOF 10
ENDMDL
MODEL 9
REMARK VINA RESULT:      -7.6      2.416      6.663
REMARK  10 active torsions:
REMARK  status: ('A' for Active; 'I' for Inactive)
REMARK    1  A    between atoms: N_2  and  C_4 
REMARK    2  A    between atoms: C_4  and  C_5 
REMARK    3  A    between atoms: C_5  and  C_6 
REMARK    4  A    between atoms: C_6  and  N_7 
REMARK       I    between atoms: N_7  and  C_8 
REMARK    5  A    between atoms: C_8  and  C_9 
REMARK    6  A    between atoms: C_9  and  N_10 
REMARK       I    between atoms: N_10  and  C_11 
REMARK    7  A    between atoms: C_11  and  C_12 
REMARK    8  A    between atoms: C_19  and  C_20 
REMARK    9  A    between atoms: C_21  and  C_22 
REMARK   10  A    between atoms: N_30  and  C_31 
ROOT
HETATM    1  C   UNL     1     -41.938  58.853 -54.361  1.00  0.00     0.104 C 
HETATM    2  C   UNL     1     -42.512  57.638 -54.272  1.00  0.00     0.050 C 
ENDROOT
BRANCH   1   3
HETATM    3  C   UNL     1     -41.327  59.382 -53.103  1.00  0.00     0.268 C 
HETATM    4  N   UNL     1     -42.239  59.747 -52.137  1.00  0.00    -0.356 N 
HETATM    5  H   UNL     1     -43.212  59.819 -52.428  1.00  0.00     0.162 HD
HETATM    6  O   UNL     1     -40.114  59.476 -52.969  1.00  0.00    -0.266 OA
BRANCH   4   7
HETATM    7  C   UNL     1     -41.828  60.423 -50.924  1.00  0.00     0.124 C 
BRANCH   7   8
HETATM    8  C   UNL     1     -42.880  61.423 -50.442  1.00  0.00     0.047 C 
BRANCH   8   9
HETATM    9  C   UNL     1     -44.189  60.738 -50.054  1.00  0.00     0.235 C 
BRANCH   9  10
HETATM   10  N   UNL     1     -45.340  61.284 -50.889  1.00  0.00    -0.079 N 
HETATM   11  C   UNL     1     -46.281  62.164 -50.109  1.00  0.00     0.269 C 
HETATM   12  H   UNL     1     -44.936  61.862 -51.639  1.00  0.00     0.278 HD
HETATM   13  C   UNL     1     -46.096  60.177 -51.581  1.00  0.00     0.269 C 
ENDBRANCH   9  10
ENDBRANCH   8   9
ENDBRANCH   7   8
ENDBRANCH   4   7
ENDBRANCH   1   3
BRANCH   1  14
HETATM   14  N   UNL     1     -41.728  59.565 -55.524  1.00  0.00    -0.318 N 
HETATM   15  C   UNL     1     -42.644  60.491 -56.002  1.00  0.00     0.256 C 
HETATM   16  O   UNL     1     -43.647  60.848 -55.391  1.00  0.00    -0.267 OA
HETATM   17  H   UNL     1     -40.758  59.738 -55.779  1.00  0.00     0.169 HD
BRANCH  15  18
HETATM   18  C   UNL     1     -42.282  61.164 -57.275  1.00  0.00     0.032 A 
HETATM   19  C   UNL     1     -41.890  60.428 -58.399  1.00  0.00     0.017 A 
HETATM   20  C   UNL     1     -41.579  61.093 -59.588  1.00  0.00     0.001 A 
HETATM   21  C   UNL     1     -41.658  62.485 -59.655  1.00  0.00     0.000 A 
HETATM   22  C   UNL     1     -42.058  63.218 -58.537  1.00  0.00     0.001 A 
HETATM   23  C   UNL     1     -42.378  62.559 -57.350  1.00  0.00     0.017 A 
ENDBRANCH  15  18
ENDBRANCH   1  14
BRANCH   2  24
HETATM   24  C   UNL     1     -42.813  56.772 -55.363  1.00  0.00     0.015 A 
HETATM   25  C   UNL     1     -42.499  55.392 -55.526  1.00  0.00     0.099 A 
HETATM   26  N   UNL     1     -42.978  54.950 -56.698  1.00  0.00    -0.166 NA
HETATM   27  N   UNL     1     -43.551  56.022 -57.301  1.00  0.00    -0.244 N 
HETATM   28  C   UNL     1     -43.512  57.133 -56.488  1.00  0.00     0.132 A 
BRANCH  25  29
HETATM   29  C   UNL     1     -41.778  54.475 -54.633  1.00  0.00    -0.005 A 
HETATM   30  C   UNL     1     -42.135  54.319 -53.286  1.00  0.00     0.015 A 
HETATM   31  C   UNL     1     -41.430  53.446 -52.452  1.00  0.00     0.020 A 
HETATM   32  C   UNL     1     -40.368  52.706 -52.966  1.00  0.00     0.011 A 
HETATM   33 BR   UNL     1     -39.423  51.520 -51.839  1.00  0.00    -0.051 Br
HETATM   34  C   UNL     1     -40.006  52.831 -54.304  1.00  0.00     0.020 A 
HETATM   35  C   UNL     1     -40.710  53.712 -55.131  1.00  0.00     0.015 A 
ENDBRANCH  25  29
BRANCH  27  36
HETATM   36  C   UNL     1     -44.114  55.905 -58.602  1.00  0.00     0.058 A 
HETATM   37  C   UNL     1     -44.125  54.652 -59.237  1.00  0.00     0.031 A 
HETATM   38  C   UNL     1     -44.678  54.512 -60.511  1.00  0.00     0.002 A 
HETATM   39  C   UNL     1     -45.217  55.619 -61.163  1.00  0.00     0.000 A 
HETATM   40  C   UNL     1     -45.203  56.868 -60.543  1.00  0.00     0.002 A 
HETATM   41  C   UNL     1     -44.654  57.016 -59.265  1.00  0.00     0.031 A 
ENDBRANCH  27  36
ENDBRANCH   2  24
TORSDOF 10
ENDMDL
MODEL 10
REMARK VINA RESULT:      -7.5      2.963      6.866
REMARK  10 active torsions:
REMARK  status: ('A' for Active; 'I' for Inactive)
REMARK    1  A    between atoms: N_2  and  C_4 
REMARK    2  A    between atoms: C_4  and  C_5 
REMARK    3  A    between atoms: C_5  and  C_6 
REMARK    4  A    between atoms: C_6  and  N_7 
REMARK       I    between atoms: N_7  and  C_8 
REMARK    5  A    between atoms: C_8  and  C_9 
REMARK    6  A    between atoms: C_9  and  N_10 
REMARK       I    between atoms: N_10  and  C_11 
REMARK    7  A    between atoms: C_11  and  C_12 
REMARK    8  A    between atoms: C_19  and  C_20 
REMARK    9  A    between atoms: C_21  and  C_22 
REMARK   10  A    between atoms: N_30  and  C_31 
ROOT
HETATM    1  C   UNL     1     -42.651  56.740 -55.887  1.00  0.00     0.104 C 
HETATM    2  C   UNL     1     -41.604  55.894 -55.890  1.00  0.00     0.050 C 
ENDROOT
BRANCH   1   3
HETATM    3  C   UNL     1     -43.147  57.175 -57.228  1.00  0.00     0.268 C 
HETATM    4  N   UNL     1     -42.154  57.401 -58.156  1.00  0.00    -0.356 N 
HETATM    5  H   UNL     1     -41.201  57.453 -57.804  1.00  0.00     0.162 HD
HETATM    6  O   UNL     1     -44.342  57.314 -57.457  1.00  0.00    -0.266 OA
BRANCH   4   7
HETATM    7  C   UNL     1     -42.445  57.975 -59.454  1.00  0.00     0.124 C 
BRANCH   7   8
HETATM    8  C   UNL     1     -42.467  59.503 -59.410  1.00  0.00     0.047 C 
BRANCH   8   9
HETATM    9  C   UNL     1     -43.497  60.091 -60.372  1.00  0.00     0.235 C 
BRANCH   9  10
HETATM   10  N   UNL     1     -44.732  60.553 -59.608  1.00  0.00    -0.079 N 
HETATM   11  C   UNL     1     -44.464  60.840 -58.154  1.00  0.00     0.269 C 
HETATM   12  H   UNL     1     -45.053  61.433 -60.036  1.00  0.00     0.278 HD
HETATM   13  C   UNL     1     -45.873  59.578 -59.758  1.00  0.00     0.269 C 
ENDBRANCH   9  10
ENDBRANCH   8   9
ENDBRANCH   7   8
ENDBRANCH   4   7
ENDBRANCH   1   3
BRANCH   1  14
HETATM   14  N   UNL     1     -43.393  57.106 -54.781  1.00  0.00    -0.318 N 
HETATM   15  C   UNL     1     -43.618  58.434 -54.446  1.00  0.00     0.256 C 
HETATM   16  O   UNL     1     -43.293  59.387 -55.148  1.00  0.00    -0.267 OA
HETATM   17  H   UNL     1     -44.113  56.452 -54.483  1.00  0.00     0.169 HD
BRANCH  15  18
HETATM   18  C   UNL     1     -44.420  58.665 -53.218  1.00  0.00     0.032 A 
HETATM   19  C   UNL     1     -44.926  59.933 -52.910  1.00  0.00     0.017 A 
HETATM   20  C   UNL     1     -45.697  60.109 -51.759  1.00  0.00     0.001 A 
HETATM   21  C   UNL     1     -45.962  59.026 -50.919  1.00  0.00     0.000 A 
HETATM   22  C   UNL     1     -45.466  57.760 -51.231  1.00  0.00     0.001 A 
HETATM   23  C   UNL     1     -44.702  57.576 -52.384  1.00  0.00     0.017 A 
ENDBRANCH  15  18
ENDBRANCH   1  14
BRANCH   2  24
HETATM   24  C   UNL     1     -41.199  55.058 -54.810  1.00  0.00     0.015 A 
HETATM   25  C   UNL     1     -40.948  55.407 -53.452  1.00  0.00     0.099 A 
HETATM   26  N   UNL     1     -40.599  54.315 -52.756  1.00  0.00    -0.166 NA
HETATM   27  N   UNL     1     -40.580  53.290 -53.646  1.00  0.00    -0.244 N 
HETATM   28  C   UNL     1     -40.992  53.703 -54.893  1.00  0.00     0.132 A 
BRANCH  25  29
HETATM   29  C   UNL     1     -41.027  56.711 -52.780  1.00  0.00    -0.005 A 
HETATM   30  C   UNL     1     -40.514  57.878 -53.366  1.00  0.00     0.015 A 
HETATM   31  C   UNL     1     -40.594  59.108 -52.705  1.00  0.00     0.020 A 
HETATM   32  C   UNL     1     -41.205  59.183 -51.456  1.00  0.00     0.011 A 
HETATM   33 BR   UNL     1     -41.320  60.849 -50.571  1.00  0.00    -0.051 Br
HETATM   34  C   UNL     1     -41.737  58.043 -50.863  1.00  0.00     0.020 A 
HETATM   35  C   UNL     1     -41.647  56.813 -51.525  1.00  0.00     0.015 A 
ENDBRANCH  25  29
BRANCH  27  36
HETATM   36  C   UNL     1     -40.190  51.984 -53.238  1.00  0.00     0.058 A 
HETATM   37  C   UNL     1     -40.156  50.948 -54.186  1.00  0.00     0.031 A 
HETATM   38  C   UNL     1     -39.771  49.660 -53.810  1.00  0.00     0.002 A 
HETATM   39  C   UNL     1     -39.425  49.394 -52.488  1.00  0.00     0.000 A 
HETATM   40  C   UNL     1     -39.464  50.415 -51.539  1.00  0.00     0.002 A 
HETATM   41  C   UNL     1     -39.845  51.709 -51.908  1.00  0.00     0.031 A 
ENDBRANCH  27  36
ENDBRANCH   2  24
TORSDOF 10
ENDMDL
