MODEL 1
REMARK VINA RESULT:      -8.8      0.000      0.000
REMARK  4 active torsions:
REMARK  status: ('A' for Active; 'I' for Inactive)
REMARK    1  A    between atoms: O_2  and  C_3 
REMARK    2  A    between atoms: C_4  and  C_5 
REMARK    3  A    between atoms: C_9  and  C_10 
REMARK       I    between atoms: C_10  and  N_11 
REMARK    4  A    between atoms: N_11  and  N_12 
ROOT
HETATM    1  C   UNL     1     -42.991  55.895 -55.886  1.00  0.00     0.289 C 
HETATM    2  N   UNL     1     -42.971  56.087 -57.259  1.00  0.00    -0.241 N 
HETATM    3  O   UNL     1     -43.770  56.463 -55.124  1.00  0.00    -0.264 OA
HETATM    4  H   UNL     1     -42.316  55.573 -57.846  1.00  0.00     0.192 HD
ENDROOT
BRANCH   1   5
HETATM    5  C   UNL     1     -42.029  54.942 -55.392  1.00  0.00     0.121 A 
HETATM    6  N   UNL     1     -40.693  55.096 -55.641  1.00  0.00    -0.272 N 
HETATM    7  N   UNL     1     -39.913  54.163 -55.077  1.00  0.00    -0.174 NA
HETATM    8  H   UNL     1     -40.261  55.842 -56.177  1.00  0.00     0.189 HD
HETATM    9  C   UNL     1     -40.775  53.324 -54.482  1.00  0.00     0.092 A 
HETATM   10  C   UNL     1     -42.114  53.783 -54.646  1.00  0.00     0.071 A 
BRANCH   9  11
HETATM   11  C   UNL     1     -40.327  52.155 -53.727  1.00  0.00     0.028 A 
HETATM   12  C   UNL     1     -40.008  52.216 -52.360  1.00  0.00     0.080 A 
HETATM   13  C   UNL     1     -39.579  51.070 -51.679  1.00  0.00     0.037 A 
HETATM   14  C   UNL     1     -39.495  49.848 -52.346  1.00  0.00     0.003 A 
HETATM   15  C   UNL     1     -39.819  49.772 -53.699  1.00  0.00     0.001 A 
HETATM   16  C   UNL     1     -40.228  50.917 -54.386  1.00  0.00     0.017 A 
BRANCH  12  17
HETATM   17  O   UNL     1     -40.010  53.418 -51.698  1.00  0.00    -0.355 OA
HETATM   18  C   UNL     1     -41.089  53.481 -50.765  1.00  0.00     0.210 C 
ENDBRANCH  12  17
ENDBRANCH   9  11
ENDBRANCH   1   5
BRANCH   2  19
HETATM   19  N   UNL     1     -43.873  56.930 -57.852  1.00  0.00    -0.165 NA
HETATM   20  C   UNL     1     -44.629  56.420 -58.771  1.00  0.00     0.157 A 
HETATM   21  C   UNL     1     -44.656  54.981 -59.294  1.00  0.00     0.277 A 
HETATM   22  C   UNL     1     -45.657  57.135 -59.518  1.00  0.00     0.027 A 
HETATM   23  O   UNL     1     -43.935  54.089 -58.898  1.00  0.00    -0.266 OA
HETATM   24  N   UNL     1     -45.640  54.954 -60.258  1.00  0.00    -0.321 N 
HETATM   25  C   UNL     1     -46.230  56.211 -60.391  1.00  0.00     0.048 A 
HETATM   26  H   UNL     1     -45.888  54.128 -60.780  1.00  0.00     0.169 HD
HETATM   27  C   UNL     1     -47.251  56.572 -61.244  1.00  0.00     0.030 A 
HETATM   28  C   UNL     1     -47.686  57.903 -61.196  1.00  0.00     0.002 A 
HETATM   29  C   UNL     1     -47.101  58.832 -60.311  1.00  0.00     0.001 A 
HETATM   30  C   UNL     1     -46.068  58.450 -59.452  1.00  0.00     0.016 A 
ENDBRANCH   2  19
TORSDOF 4
ENDMDL
MODEL 2
REMARK VINA RESULT:      -8.6      4.491      6.378
REMARK  4 active torsions:
REMARK  status: ('A' for Active; 'I' for Inactive)
REMARK    1  A    between atoms: O_2  and  C_3 
REMARK    2  A    between atoms: C_4  and  C_5 
REMARK    3  A    between atoms: C_9  and  C_10 
REMARK       I    between atoms: C_10  and  N_11 
REMARK    4  A    between atoms: N_11  and  N_12 
ROOT
HETATM    1  C   UNL     1     -42.081  56.787 -54.285  1.00  0.00     0.289 C 
HETATM    2  N   UNL     1     -41.397  57.805 -53.640  1.00  0.00    -0.241 N 
HETATM    3  O   UNL     1     -43.165  56.934 -54.844  1.00  0.00    -0.264 OA
HETATM    4  H   UNL     1     -40.489  57.631 -53.210  1.00  0.00     0.192 HD
ENDROOT
BRANCH   1   5
HETATM    5  C   UNL     1     -41.414  55.510 -54.282  1.00  0.00     0.121 A 
HETATM    6  N   UNL     1     -40.492  55.194 -55.243  1.00  0.00    -0.272 N 
HETATM    7  N   UNL     1     -39.917  53.994 -55.085  1.00  0.00    -0.174 NA
HETATM    8  H   UNL     1     -40.204  55.782 -56.019  1.00  0.00     0.189 HD
HETATM    9  C   UNL     1     -40.528  53.469 -54.011  1.00  0.00     0.092 A 
HETATM   10  C   UNL     1     -41.467  54.394 -53.470  1.00  0.00     0.071 A 
BRANCH   9  11
HETATM   11  C   UNL     1     -40.178  52.152 -53.484  1.00  0.00     0.028 A 
HETATM   12  C   UNL     1     -39.794  51.952 -52.148  1.00  0.00     0.080 A 
HETATM   13  C   UNL     1     -39.464  50.671 -51.687  1.00  0.00     0.037 A 
HETATM   14  C   UNL     1     -39.545  49.575 -52.546  1.00  0.00     0.003 A 
HETATM   15  C   UNL     1     -39.936  49.758 -53.870  1.00  0.00     0.001 A 
HETATM   16  C   UNL     1     -40.246  51.038 -54.337  1.00  0.00     0.017 A 
BRANCH  12  17
HETATM   17  O   UNL     1     -39.634  53.021 -51.301  1.00  0.00    -0.355 OA
HETATM   18  C   UNL     1     -40.377  52.831 -50.097  1.00  0.00     0.210 C 
ENDBRANCH  12  17
ENDBRANCH   9  11
ENDBRANCH   1   5
BRANCH   2  19
HETATM   19  N   UNL     1     -41.906  59.077 -53.622  1.00  0.00    -0.165 NA
HETATM   20  C   UNL     1     -42.144  59.592 -52.458  1.00  0.00     0.157 A 
HETATM   21  C   UNL     1     -41.929  58.968 -51.076  1.00  0.00     0.277 A 
HETATM   22  C   UNL     1     -42.676  60.928 -52.213  1.00  0.00     0.027 A 
HETATM   23  O   UNL     1     -41.489  57.854 -50.883  1.00  0.00    -0.266 OA
HETATM   24  N   UNL     1     -42.328  59.926 -50.170  1.00  0.00    -0.321 N 
HETATM   25  C   UNL     1     -42.764  61.074 -50.830  1.00  0.00     0.048 A 
HETATM   26  H   UNL     1     -42.297  59.795 -49.170  1.00  0.00     0.169 HD
HETATM   27  C   UNL     1     -43.229  62.242 -50.263  1.00  0.00     0.030 A 
HETATM   28  C   UNL     1     -43.608  63.271 -51.135  1.00  0.00     0.002 A 
HETATM   29  C   UNL     1     -43.517  63.115 -52.534  1.00  0.00     0.001 A 
HETATM   30  C   UNL     1     -43.042  61.926 -53.092  1.00  0.00     0.016 A 
ENDBRANCH   2  19
TORSDOF 4
ENDMDL
MODEL 3
REMARK VINA RESULT:      -8.4      3.283      4.488
REMARK  4 active torsions:
REMARK  status: ('A' for Active; 'I' for Inactive)
REMARK    1  A    between atoms: O_2  and  C_3 
REMARK    2  A    between atoms: C_4  and  C_5 
REMARK    3  A    between atoms: C_9  and  C_10 
REMARK       I    between atoms: C_10  and  N_11 
REMARK    4  A    between atoms: N_11  and  N_12 
ROOT
HETATM    1  C   UNL     1     -42.801  56.079 -57.381  1.00  0.00     0.289 C 
HETATM    2  N   UNL     1     -42.077  57.250 -57.543  1.00  0.00    -0.241 N 
HETATM    3  O   UNL     1     -43.538  55.601 -58.241  1.00  0.00    -0.264 OA
HETATM    4  H   UNL     1     -41.465  57.589 -56.803  1.00  0.00     0.192 HD
ENDROOT
BRANCH   1   5
HETATM    5  C   UNL     1     -42.616  55.421 -56.112  1.00  0.00     0.121 A 
HETATM    6  N   UNL     1     -43.689  55.007 -55.371  1.00  0.00    -0.272 N 
HETATM    7  N   UNL     1     -43.366  54.366 -54.239  1.00  0.00    -0.174 NA
HETATM    8  H   UNL     1     -44.669  55.121 -55.611  1.00  0.00     0.189 HD
HETATM    9  C   UNL     1     -42.025  54.413 -54.201  1.00  0.00     0.092 A 
HETATM   10  C   UNL     1     -41.514  55.056 -55.365  1.00  0.00     0.071 A 
BRANCH   9  11
HETATM   11  C   UNL     1     -41.256  53.804 -53.117  1.00  0.00     0.028 A 
HETATM   12  C   UNL     1     -40.563  52.592 -53.271  1.00  0.00     0.080 A 
HETATM   13  C   UNL     1     -39.842  52.045 -52.202  1.00  0.00     0.037 A 
HETATM   14  C   UNL     1     -39.781  52.716 -50.982  1.00  0.00     0.003 A 
HETATM   15  C   UNL     1     -40.455  53.924 -50.819  1.00  0.00     0.001 A 
HETATM   16  C   UNL     1     -41.191  54.462 -51.877  1.00  0.00     0.017 A 
BRANCH  12  17
HETATM   17  O   UNL     1     -40.667  51.874 -54.436  1.00  0.00    -0.355 OA
HETATM   18  C   UNL     1     -40.130  50.561 -54.272  1.00  0.00     0.210 C 
ENDBRANCH  12  17
ENDBRANCH   9  11
ENDBRANCH   1   5
BRANCH   2  19
HETATM   19  N   UNL     1     -42.131  57.937 -58.727  1.00  0.00    -0.165 NA
HETATM   20  C   UNL     1     -41.987  59.221 -58.662  1.00  0.00     0.157 A 
HETATM   21  C   UNL     1     -41.759  60.094 -57.424  1.00  0.00     0.277 A 
HETATM   22  C   UNL     1     -42.001  60.136 -59.797  1.00  0.00     0.027 A 
HETATM   23  O   UNL     1     -41.682  59.674 -56.288  1.00  0.00    -0.266 OA
HETATM   24  N   UNL     1     -41.662  61.386 -57.893  1.00  0.00    -0.321 N 
HETATM   25  C   UNL     1     -41.802  61.415 -59.280  1.00  0.00     0.048 A 
HETATM   26  H   UNL     1     -41.508  62.186 -57.298  1.00  0.00     0.169 HD
HETATM   27  C   UNL     1     -41.756  62.520 -60.104  1.00  0.00     0.030 A 
HETATM   28  C   UNL     1     -41.917  62.302 -61.479  1.00  0.00     0.002 A 
HETATM   29  C   UNL     1     -42.119  61.004 -61.994  1.00  0.00     0.001 A 
HETATM   30  C   UNL     1     -42.162  59.896 -61.145  1.00  0.00     0.016 A 
ENDBRANCH   2  19
TORSDOF 4
ENDMDL
MODEL 4
REMARK VINA RESULT:      -8.3      3.275      4.260
REMARK  4 active torsions:
REMARK  status: ('A' for Active; 'I' for Inactive)
REMARK    1  A    between atoms: O_2  and  C_3 
REMARK    2  A    between atoms: C_4  and  C_5 
REMARK    3  A    between atoms: C_9  and  C_10 
REMARK       I    between atoms: C_10  and  N_11 
REMARK    4  A    between atoms: N_11  and  N_12 
ROOT
HETATM    1  C   UNL     1     -42.826  56.213 -57.428  1.00  0.00     0.289 C 
HETATM    2  N   UNL     1     -42.030  57.343 -57.525  1.00  0.00    -0.241 N 
HETATM    3  O   UNL     1     -43.673  55.895 -58.260  1.00  0.00    -0.264 OA
HETATM    4  H   UNL     1     -41.328  57.548 -56.815  1.00  0.00     0.192 HD
ENDROOT
BRANCH   1   5
HETATM    5  C   UNL     1     -42.580  55.394 -56.268  1.00  0.00     0.121 A 
HETATM    6  N   UNL     1     -43.603  55.018 -55.442  1.00  0.00    -0.272 N 
HETATM    7  N   UNL     1     -43.234  54.215 -54.433  1.00  0.00    -0.174 NA
HETATM    8  H   UNL     1     -44.583  55.268 -55.541  1.00  0.00     0.189 HD
HETATM    9  C   UNL     1     -41.903  54.107 -54.563  1.00  0.00     0.092 A 
HETATM   10  C   UNL     1     -41.453  54.823 -55.711  1.00  0.00     0.071 A 
BRANCH   9  11
HETATM   11  C   UNL     1     -41.096  53.293 -53.656  1.00  0.00     0.028 A 
HETATM   12  C   UNL     1     -40.876  53.650 -52.315  1.00  0.00     0.080 A 
HETATM   13  C   UNL     1     -40.093  52.840 -51.484  1.00  0.00     0.037 A 
HETATM   14  C   UNL     1     -39.549  51.652 -51.973  1.00  0.00     0.003 A 
HETATM   15  C   UNL     1     -39.769  51.281 -53.297  1.00  0.00     0.001 A 
HETATM   16  C   UNL     1     -40.534  52.097 -54.134  1.00  0.00     0.017 A 
BRANCH  12  17
HETATM   17  O   UNL     1     -41.336  54.849 -51.829  1.00  0.00    -0.355 OA
HETATM   18  C   UNL     1     -42.158  54.648 -50.680  1.00  0.00     0.210 C 
ENDBRANCH  12  17
ENDBRANCH   9  11
ENDBRANCH   1   5
BRANCH   2  19
HETATM   19  N   UNL     1     -42.136  58.172 -58.611  1.00  0.00    -0.165 NA
HETATM   20  C   UNL     1     -42.021  59.442 -58.387  1.00  0.00     0.157 A 
HETATM   21  C   UNL     1     -41.777  60.158 -57.055  1.00  0.00     0.277 A 
HETATM   22  C   UNL     1     -42.092  60.492 -59.396  1.00  0.00     0.027 A 
HETATM   23  O   UNL     1     -41.656  59.601 -55.984  1.00  0.00    -0.266 OA
HETATM   24  N   UNL     1     -41.726  61.501 -57.359  1.00  0.00    -0.321 N 
HETATM   25  C   UNL     1     -41.908  61.700 -58.727  1.00  0.00     0.048 A 
HETATM   26  H   UNL     1     -41.573  62.223 -56.672  1.00  0.00     0.169 HD
HETATM   27  C   UNL     1     -41.914  62.901 -59.406  1.00  0.00     0.030 A 
HETATM   28  C   UNL     1     -42.112  62.853 -60.793  1.00  0.00     0.002 A 
HETATM   29  C   UNL     1     -42.298  61.626 -61.462  1.00  0.00     0.001 A 
HETATM   30  C   UNL     1     -42.288  60.418 -60.760  1.00  0.00     0.016 A 
ENDBRANCH   2  19
TORSDOF 4
ENDMDL
MODEL 5
REMARK VINA RESULT:      -8.1      6.216     10.198
REMARK  4 active torsions:
REMARK  status: ('A' for Active; 'I' for Inactive)
REMARK    1  A    between atoms: O_2  and  C_3 
REMARK    2  A    between atoms: C_4  and  C_5 
REMARK    3  A    between atoms: C_9  and  C_10 
REMARK       I    between atoms: C_10  and  N_11 
REMARK    4  A    between atoms: N_11  and  N_12 
ROOT
HETATM    1  C   UNL     1     -43.497  57.349 -52.333  1.00  0.00     0.289 C 
HETATM    2  N   UNL     1     -43.613  56.007 -52.007  1.00  0.00    -0.241 N 
HETATM    3  O   UNL     1     -42.820  57.773 -53.266  1.00  0.00    -0.264 OA
HETATM    4  H   UNL     1     -44.207  55.709 -51.233  1.00  0.00     0.192 HD
ENDROOT
BRANCH   1   5
HETATM    5  C   UNL     1     -44.259  58.245 -51.501  1.00  0.00     0.121 A 
HETATM    6  N   UNL     1     -45.485  57.882 -51.013  1.00  0.00    -0.272 N 
HETATM    7  N   UNL     1     -46.055  58.794 -50.213  1.00  0.00    -0.174 NA
HETATM    8  H   UNL     1     -45.966  57.004 -51.181  1.00  0.00     0.189 HD
HETATM    9  C   UNL     1     -45.199  59.828 -50.222  1.00  0.00     0.092 A 
HETATM   10  C   UNL     1     -44.052  59.519 -51.010  1.00  0.00     0.071 A 
BRANCH   9  11
HETATM   11  C   UNL     1     -45.441  61.045 -49.451  1.00  0.00     0.028 A 
HETATM   12  C   UNL     1     -46.213  62.110 -49.944  1.00  0.00     0.080 A 
HETATM   13  C   UNL     1     -46.415  63.259 -49.170  1.00  0.00     0.037 A 
HETATM   14  C   UNL     1     -45.875  63.344 -47.887  1.00  0.00     0.003 A 
HETATM   15  C   UNL     1     -45.117  62.291 -47.382  1.00  0.00     0.001 A 
HETATM   16  C   UNL     1     -44.897  61.151 -48.160  1.00  0.00     0.017 A 
BRANCH  12  17
HETATM   17  O   UNL     1     -46.693  62.085 -51.230  1.00  0.00    -0.355 OA
HETATM   18  C   UNL     1     -45.925  62.943 -52.074  1.00  0.00     0.210 C 
ENDBRANCH  12  17
ENDBRANCH   9  11
ENDBRANCH   1   5
BRANCH   2  19
HETATM   19  N   UNL     1     -42.976  55.055 -52.759  1.00  0.00    -0.165 NA
HETATM   20  C   UNL     1     -42.042  54.379 -52.172  1.00  0.00     0.157 A 
HETATM   21  C   UNL     1     -41.544  54.494 -50.729  1.00  0.00     0.277 A 
HETATM   22  C   UNL     1     -41.250  53.318 -52.783  1.00  0.00     0.027 A 
HETATM   23  O   UNL     1     -41.979  55.275 -49.909  1.00  0.00    -0.266 OA
HETATM   24  N   UNL     1     -40.549  53.549 -50.602  1.00  0.00    -0.321 N 
HETATM   25  C   UNL     1     -40.375  52.858 -51.801  1.00  0.00     0.048 A 
HETATM   26  H   UNL     1     -40.034  53.391 -49.750  1.00  0.00     0.169 HD
HETATM   27  C   UNL     1     -39.483  51.838 -52.059  1.00  0.00     0.030 A 
HETATM   28  C   UNL     1     -39.493  51.288 -53.348  1.00  0.00     0.002 A 
HETATM   29  C   UNL     1     -40.381  51.761 -54.337  1.00  0.00     0.001 A 
HETATM   30  C   UNL     1     -41.279  52.793 -54.059  1.00  0.00     0.016 A 
ENDBRANCH   2  19
TORSDOF 4
ENDMDL
MODEL 6
REMARK VINA RESULT:      -7.9      4.609      9.588
REMARK  4 active torsions:
REMARK  status: ('A' for Active; 'I' for Inactive)
REMARK    1  A    between atoms: O_2  and  C_3 
REMARK    2  A    between atoms: C_4  and  C_5 
REMARK    3  A    between atoms: C_9  and  C_10 
REMARK       I    between atoms: C_10  and  N_11 
REMARK    4  A    between atoms: N_11  and  N_12 
ROOT
HETATM    1  C   UNL     1     -41.589  56.660 -54.207  1.00  0.00     0.289 C 
HETATM    2  N   UNL     1     -41.199  55.686 -53.303  1.00  0.00    -0.241 N 
HETATM    3  O   UNL     1     -41.679  56.476 -55.419  1.00  0.00    -0.264 OA
HETATM    4  H   UNL     1     -41.161  55.888 -52.304  1.00  0.00     0.192 HD
ENDROOT
BRANCH   1   5
HETATM    5  C   UNL     1     -41.917  57.936 -53.623  1.00  0.00     0.121 A 
HETATM    6  N   UNL     1     -41.216  59.063 -53.955  1.00  0.00    -0.272 N 
HETATM    7  N   UNL     1     -41.663  60.185 -53.374  1.00  0.00    -0.174 NA
HETATM    8  H   UNL     1     -40.432  59.119 -54.599  1.00  0.00     0.189 HD
HETATM    9  C   UNL     1     -42.661  59.772 -52.577  1.00  0.00     0.092 A 
HETATM   10  C   UNL     1     -42.861  58.368 -52.713  1.00  0.00     0.071 A 
BRANCH   9  11
HETATM   11  C   UNL     1     -43.440  60.702 -51.761  1.00  0.00     0.028 A 
HETATM   12  C   UNL     1     -44.794  60.977 -52.015  1.00  0.00     0.080 A 
HETATM   13  C   UNL     1     -45.499  61.878 -51.208  1.00  0.00     0.037 A 
HETATM   14  C   UNL     1     -44.870  62.488 -50.123  1.00  0.00     0.003 A 
HETATM   15  C   UNL     1     -43.531  62.216 -49.854  1.00  0.00     0.001 A 
HETATM   16  C   UNL     1     -42.819  61.332 -50.669  1.00  0.00     0.017 A 
BRANCH  12  17
HETATM   17  O   UNL     1     -45.417  60.449 -53.118  1.00  0.00    -0.355 OA
HETATM   18  C   UNL     1     -45.609  61.449 -54.119  1.00  0.00     0.210 C 
ENDBRANCH  12  17
ENDBRANCH   9  11
ENDBRANCH   1   5
BRANCH   2  19
HETATM   19  N   UNL     1     -40.913  54.417 -53.734  1.00  0.00    -0.165 NA
HETATM   20  C   UNL     1     -40.547  53.564 -52.831  1.00  0.00     0.157 A 
HETATM   21  C   UNL     1     -40.390  53.780 -51.323  1.00  0.00     0.277 A 
HETATM   22  C   UNL     1     -40.208  52.167 -53.071  1.00  0.00     0.027 A 
HETATM   23  O   UNL     1     -40.595  54.829 -50.751  1.00  0.00    -0.266 OA
HETATM   24  N   UNL     1     -39.991  52.563 -50.814  1.00  0.00    -0.321 N 
HETATM   25  C   UNL     1     -39.885  51.617 -51.832  1.00  0.00     0.048 A 
HETATM   26  H   UNL     1     -39.810  52.400 -49.835  1.00  0.00     0.169 HD
HETATM   27  C   UNL     1     -39.521  50.292 -51.711  1.00  0.00     0.030 A 
HETATM   28  C   UNL     1     -39.490  49.526 -52.884  1.00  0.00     0.002 A 
HETATM   29  C   UNL     1     -39.818  50.090 -54.134  1.00  0.00     0.001 A 
HETATM   30  C   UNL     1     -40.186  51.433 -54.240  1.00  0.00     0.016 A 
ENDBRANCH   2  19
TORSDOF 4
ENDMDL
MODEL 7
REMARK VINA RESULT:      -7.9      6.610     10.326
REMARK  4 active torsions:
REMARK  status: ('A' for Active; 'I' for Inactive)
REMARK    1  A    between atoms: O_2  and  C_3 
REMARK    2  A    between atoms: C_4  and  C_5 
REMARK    3  A    between atoms: C_9  and  C_10 
REMARK       I    between atoms: C_10  and  N_11 
REMARK    4  A    between atoms: N_11  and  N_12 
ROOT
HETATM    1  C   UNL     1     -43.591  57.842 -52.110  1.00  0.00     0.289 C 
HETATM    2  N   UNL     1     -42.254  57.479 -52.139  1.00  0.00    -0.241 N 
HETATM    3  O   UNL     1     -44.478  57.251 -52.721  1.00  0.00    -0.264 OA
HETATM    4  H   UNL     1     -41.563  57.993 -51.595  1.00  0.00     0.192 HD
ENDROOT
BRANCH   1   5
HETATM    5  C   UNL     1     -43.894  58.977 -51.274  1.00  0.00     0.121 A 
HETATM    6  N   UNL     1     -42.898  59.683 -50.656  1.00  0.00    -0.272 N 
HETATM    7  N   UNL     1     -43.324  60.742 -49.954  1.00  0.00    -0.174 NA
HETATM    8  H   UNL     1     -41.902  59.491 -50.705  1.00  0.00     0.189 HD
HETATM    9  C   UNL     1     -44.661  60.698 -50.061  1.00  0.00     0.092 A 
HETATM   10  C   UNL     1     -45.060  59.611 -50.893  1.00  0.00     0.071 A 
BRANCH   9  11
HETATM   11  C   UNL     1     -45.524  61.701 -49.441  1.00  0.00     0.028 A 
HETATM   12  C   UNL     1     -46.121  61.510 -48.184  1.00  0.00     0.080 A 
HETATM   13  C   UNL     1     -46.945  62.499 -47.631  1.00  0.00     0.037 A 
HETATM   14  C   UNL     1     -47.154  63.698 -48.312  1.00  0.00     0.003 A 
HETATM   15  C   UNL     1     -46.560  63.904 -49.554  1.00  0.00     0.001 A 
HETATM   16  C   UNL     1     -45.754  62.912 -50.117  1.00  0.00     0.017 A 
BRANCH  12  17
HETATM   17  O   UNL     1     -45.993  60.312 -47.527  1.00  0.00    -0.355 OA
HETATM   18  C   UNL     1     -45.770  60.520 -46.132  1.00  0.00     0.210 C 
ENDBRANCH  12  17
ENDBRANCH   9  11
ENDBRANCH   1   5
BRANCH   2  19
HETATM   19  N   UNL     1     -41.852  56.383 -52.857  1.00  0.00    -0.165 NA
HETATM   20  C   UNL     1     -41.303  55.420 -52.189  1.00  0.00     0.157 A 
HETATM   21  C   UNL     1     -41.040  55.331 -50.683  1.00  0.00     0.277 A 
HETATM   22  C   UNL     1     -40.815  54.166 -52.753  1.00  0.00     0.027 A 
HETATM   23  O   UNL     1     -41.322  56.197 -49.881  1.00  0.00    -0.266 OA
HETATM   24  N   UNL     1     -40.448  54.103 -50.481  1.00  0.00    -0.321 N 
HETATM   25  C   UNL     1     -40.316  53.418 -51.688  1.00  0.00     0.048 A 
HETATM   26  H   UNL     1     -40.161  53.765 -49.575  1.00  0.00     0.169 HD
HETATM   27  C   UNL     1     -39.779  52.163 -51.886  1.00  0.00     0.030 A 
HETATM   28  C   UNL     1     -39.758  51.674 -53.199  1.00  0.00     0.002 A 
HETATM   29  C   UNL     1     -40.264  52.438 -54.271  1.00  0.00     0.001 A 
HETATM   30  C   UNL     1     -40.805  53.708 -54.054  1.00  0.00     0.016 A 
ENDBRANCH   2  19
TORSDOF 4
ENDMDL
MODEL 8
REMARK VINA RESULT:      -7.9      6.022     10.103
REMARK  4 active torsions:
REMARK  status: ('A' for Active; 'I' for Inactive)
REMARK    1  A    between atoms: O_2  and  C_3 
REMARK    2  A    between atoms: C_4  and  C_5 
REMARK    3  A    between atoms: C_9  and  C_10 
REMARK       I    between atoms: C_10  and  N_11 
REMARK    4  A    between atoms: N_11  and  N_12 
ROOT
HETATM    1  C   UNL     1     -41.932  57.659 -52.654  1.00  0.00     0.289 C 
HETATM    2  N   UNL     1     -41.572  56.467 -52.044  1.00  0.00    -0.241 N 
HETATM    3  O   UNL     1     -42.060  57.799 -53.868  1.00  0.00    -0.264 OA
HETATM    4  H   UNL     1     -41.501  56.402 -51.029  1.00  0.00     0.192 HD
ENDROOT
BRANCH   1   5
HETATM    5  C   UNL     1     -42.179  58.754 -51.750  1.00  0.00     0.121 A 
HETATM    6  N   UNL     1     -41.569  58.808 -50.526  1.00  0.00    -0.272 N 
HETATM    7  N   UNL     1     -41.853  59.907 -49.814  1.00  0.00    -0.174 NA
HETATM    8  H   UNL     1     -40.927  58.122 -50.140  1.00  0.00     0.189 HD
HETATM    9  C   UNL     1     -42.734  60.577 -50.573  1.00  0.00     0.092 A 
HETATM   10  C   UNL     1     -42.957  59.893 -51.802  1.00  0.00     0.071 A 
BRANCH   9  11
HETATM   11  C   UNL     1     -43.295  61.863 -50.161  1.00  0.00     0.028 A 
HETATM   12  C   UNL     1     -44.502  61.967 -49.450  1.00  0.00     0.080 A 
HETATM   13  C   UNL     1     -45.002  63.222 -49.080  1.00  0.00     0.037 A 
HETATM   14  C   UNL     1     -44.289  64.380 -49.388  1.00  0.00     0.003 A 
HETATM   15  C   UNL     1     -43.086  64.289 -50.084  1.00  0.00     0.001 A 
HETATM   16  C   UNL     1     -42.594  63.041 -50.471  1.00  0.00     0.017 A 
BRANCH  12  17
HETATM   17  O   UNL     1     -45.261  60.851 -49.199  1.00  0.00    -0.355 OA
HETATM   18  C   UNL     1     -45.538  60.730 -47.803  1.00  0.00     0.210 C 
ENDBRANCH  12  17
ENDBRANCH   9  11
ENDBRANCH   1   5
BRANCH   2  19
HETATM   19  N   UNL     1     -41.363  55.342 -52.797  1.00  0.00    -0.165 NA
HETATM   20  C   UNL     1     -40.805  54.338 -52.200  1.00  0.00     0.157 A 
HETATM   21  C   UNL     1     -40.342  54.230 -50.744  1.00  0.00     0.277 A 
HETATM   22  C   UNL     1     -40.502  53.048 -52.810  1.00  0.00     0.027 A 
HETATM   23  O   UNL     1     -40.440  55.117 -49.922  1.00  0.00    -0.266 OA
HETATM   24  N   UNL     1     -39.828  52.959 -50.610  1.00  0.00    -0.321 N 
HETATM   25  C   UNL     1     -39.921  52.264 -51.815  1.00  0.00     0.048 A 
HETATM   26  H   UNL     1     -39.446  52.599 -49.749  1.00  0.00     0.169 HD
HETATM   27  C   UNL     1     -39.520  50.969 -52.069  1.00  0.00     0.030 A 
HETATM   28  C   UNL     1     -39.721  50.478 -53.367  1.00  0.00     0.002 A 
HETATM   29  C   UNL     1     -40.309  51.279 -54.368  1.00  0.00     0.001 A 
HETATM   30  C   UNL     1     -40.711  52.588 -54.093  1.00  0.00     0.016 A 
ENDBRANCH   2  19
TORSDOF 4
ENDMDL
MODEL 9
REMARK VINA RESULT:      -7.9      2.775      9.542
REMARK  4 active torsions:
REMARK  status: ('A' for Active; 'I' for Inactive)
REMARK    1  A    between atoms: O_2  and  C_3 
REMARK    2  A    between atoms: C_4  and  C_5 
REMARK    3  A    between atoms: C_9  and  C_10 
REMARK       I    between atoms: C_10  and  N_11 
REMARK    4  A    between atoms: N_11  and  N_12 
ROOT
HETATM    1  C   UNL     1     -42.227  55.140 -55.948  1.00  0.00     0.289 C 
HETATM    2  N   UNL     1     -40.920  54.829 -55.609  1.00  0.00    -0.241 N 
HETATM    3  O   UNL     1     -43.141  54.319 -55.983  1.00  0.00    -0.264 OA
HETATM    4  H   UNL     1     -40.205  55.555 -55.576  1.00  0.00     0.192 HD
ENDROOT
BRANCH   1   5
HETATM    5  C   UNL     1     -42.465  56.530 -56.245  1.00  0.00     0.121 A 
HETATM    6  N   UNL     1     -42.926  57.386 -55.284  1.00  0.00    -0.272 N 
HETATM    7  N   UNL     1     -43.051  58.658 -55.689  1.00  0.00    -0.174 NA
HETATM    8  H   UNL     1     -43.148  57.151 -54.321  1.00  0.00     0.189 HD
HETATM    9  C   UNL     1     -42.719  58.628 -56.989  1.00  0.00     0.092 A 
HETATM   10  C   UNL     1     -42.332  57.312 -57.375  1.00  0.00     0.071 A 
BRANCH   9  11
HETATM   11  C   UNL     1     -42.710  59.832 -57.817  1.00  0.00     0.028 A 
HETATM   12  C   UNL     1     -43.866  60.327 -58.443  1.00  0.00     0.080 A 
HETATM   13  C   UNL     1     -43.808  61.484 -59.230  1.00  0.00     0.037 A 
HETATM   14  C   UNL     1     -42.605  62.173 -59.376  1.00  0.00     0.003 A 
HETATM   15  C   UNL     1     -41.453  61.699 -58.752  1.00  0.00     0.001 A 
HETATM   16  C   UNL     1     -41.504  60.535 -57.982  1.00  0.00     0.017 A 
BRANCH  12  17
HETATM   17  O   UNL     1     -45.046  59.629 -58.378  1.00  0.00    -0.355 OA
HETATM   18  C   UNL     1     -45.417  59.140 -59.667  1.00  0.00     0.210 C 
ENDBRANCH  12  17
ENDBRANCH   9  11
ENDBRANCH   1   5
BRANCH   2  19
HETATM   19  N   UNL     1     -40.583  53.549 -55.255  1.00  0.00    -0.165 NA
HETATM   20  C   UNL     1     -40.446  53.312 -53.990  1.00  0.00     0.157 A 
HETATM   21  C   UNL     1     -40.614  54.279 -52.814  1.00  0.00     0.277 A 
HETATM   22  C   UNL     1     -40.102  52.024 -53.400  1.00  0.00     0.027 A 
HETATM   23  O   UNL     1     -40.909  55.451 -52.921  1.00  0.00    -0.266 OA
HETATM   24  N   UNL     1     -40.369  53.533 -51.682  1.00  0.00    -0.321 N 
HETATM   25  C   UNL     1     -40.071  52.213 -52.020  1.00  0.00     0.048 A 
HETATM   26  H   UNL     1     -40.410  53.908 -50.747  1.00  0.00     0.169 HD
HETATM   27  C   UNL     1     -39.779  51.173 -51.162  1.00  0.00     0.030 A 
HETATM   28  C   UNL     1     -39.516  49.923 -51.736  1.00  0.00     0.002 A 
HETATM   29  C   UNL     1     -39.548  49.740 -53.135  1.00  0.00     0.001 A 
HETATM   30  C   UNL     1     -39.847  50.803 -53.990  1.00  0.00     0.016 A 
ENDBRANCH   2  19
TORSDOF 4
ENDMDL
MODEL 10
REMARK VINA RESULT:      -7.8      1.582      1.976
REMARK  4 active torsions:
REMARK  status: ('A' for Active; 'I' for Inactive)
REMARK    1  A    between atoms: O_2  and  C_3 
REMARK    2  A    between atoms: C_4  and  C_5 
REMARK    3  A    between atoms: C_9  and  C_10 
REMARK       I    between atoms: C_10  and  N_11 
REMARK    4  A    between atoms: N_11  and  N_12 
ROOT
HETATM    1  C   UNL     1     -43.396  56.109 -55.868  1.00  0.00     0.289 C 
HETATM    2  N   UNL     1     -43.558  56.123 -57.244  1.00  0.00    -0.241 N 
HETATM    3  O   UNL     1     -44.066  56.784 -55.089  1.00  0.00    -0.264 OA
HETATM    4  H   UNL     1     -42.987  55.526 -57.841  1.00  0.00     0.192 HD
ENDROOT
BRANCH   1   5
HETATM    5  C   UNL     1     -42.377  55.212 -55.385  1.00  0.00     0.121 A 
HETATM    6  N   UNL     1     -41.054  55.442 -55.646  1.00  0.00    -0.272 N 
HETATM    7  N   UNL     1     -40.217  54.553 -55.092  1.00  0.00    -0.174 NA
HETATM    8  H   UNL     1     -40.670  56.214 -56.183  1.00  0.00     0.189 HD
HETATM    9  C   UNL     1     -41.024  53.664 -54.492  1.00  0.00     0.092 A 
HETATM   10  C   UNL     1     -42.389  54.048 -54.643  1.00  0.00     0.071 A 
BRANCH   9  11
HETATM   11  C   UNL     1     -40.503  52.521 -53.746  1.00  0.00     0.028 A 
HETATM   12  C   UNL     1     -40.164  52.599 -52.385  1.00  0.00     0.080 A 
HETATM   13  C   UNL     1     -39.665  51.477 -51.711  1.00  0.00     0.037 A 
HETATM   14  C   UNL     1     -39.529  50.261 -52.380  1.00  0.00     0.003 A 
HETATM   15  C   UNL     1     -39.872  50.167 -53.727  1.00  0.00     0.001 A 
HETATM   16  C   UNL     1     -40.352  51.290 -54.406  1.00  0.00     0.017 A 
BRANCH  12  17
HETATM   17  O   UNL     1     -40.217  53.800 -51.722  1.00  0.00    -0.355 OA
HETATM   18  C   UNL     1     -39.910  53.629 -50.338  1.00  0.00     0.210 C 
ENDBRANCH  12  17
ENDBRANCH   9  11
ENDBRANCH   1   5
BRANCH   2  19
HETATM   19  N   UNL     1     -44.532  56.898 -57.817  1.00  0.00    -0.165 NA
HETATM   20  C   UNL     1     -44.151  57.727 -58.736  1.00  0.00     0.157 A 
HETATM   21  C   UNL     1     -42.740  57.962 -59.283  1.00  0.00     0.277 A 
HETATM   22  C   UNL     1     -45.021  58.632 -59.477  1.00  0.00     0.027 A 
HETATM   23  O   UNL     1     -41.747  57.376 -58.905  1.00  0.00    -0.266 OA
HETATM   24  N   UNL     1     -42.873  58.934 -60.249  1.00  0.00    -0.321 N 
HETATM   25  C   UNL     1     -44.206  59.328 -60.367  1.00  0.00     0.048 A 
HETATM   26  H   UNL     1     -42.101  59.295 -60.789  1.00  0.00     0.169 HD
HETATM   27  C   UNL     1     -44.729  60.269 -61.229  1.00  0.00     0.030 A 
HETATM   28  C   UNL     1     -46.111  60.495 -61.171  1.00  0.00     0.002 A 
HETATM   29  C   UNL     1     -46.929  59.787 -60.266  1.00  0.00     0.001 A 
HETATM   30  C   UNL     1     -46.383  58.836 -59.400  1.00  0.00     0.016 A 
ENDBRANCH   2  19
TORSDOF 4
ENDMDL
