MODEL 1
REMARK VINA RESULT:      -7.8      0.000      0.000
REMARK  2 active torsions:
REMARK  status: ('A' for Active; 'I' for Inactive)
REMARK    1  A    between atoms: C_6  and  C_7 
REMARK    2  A    between atoms: C_7  and  N_8 
ROOT
HETATM    1  N   UNL     1     -41.562  55.832 -53.301  1.00  0.00    -0.203 NA
HETATM    2  S   UNL     1     -43.224  56.005 -52.990  1.00  0.00     0.219 S 
HETATM    3  O   UNL     1     -43.505  55.504 -51.670  1.00  0.00    -0.211 OA
HETATM    4  O   UNL     1     -43.953  55.593 -54.170  1.00  0.00    -0.211 OA
HETATM    5  C   UNL     1     -43.258  57.791 -53.006  1.00  0.00     0.164 C 
HETATM    6  C   UNL     1     -41.800  58.221 -53.036  1.00  0.00     0.116 C 
HETATM    7  O   UNL     1     -41.481  58.426 -51.640  1.00  0.00    -0.369 OA
HETATM    8  C   UNL     1     -42.622  59.147 -51.124  1.00  0.00     0.149 C 
HETATM    9  C   UNL     1     -42.478  60.609 -51.599  1.00  0.00     0.264 C 
HETATM   10  N   UNL     1     -42.443  60.661 -53.119  1.00  0.00    -0.070 N 
HETATM   11  H   UNL     1     -43.402  60.618 -53.490  1.00  0.00     0.277 HD
HETATM   12  H   UNL     1     -42.084  61.584 -53.406  1.00  0.00     0.277 HD
HETATM   13  C   UNL     1     -41.577  59.578 -53.740  1.00  0.00     0.273 C 
HETATM   14  C   UNL     1     -40.949  57.120 -53.679  1.00  0.00     0.148 C 
HETATM   15  C   UNL     1     -43.825  58.437 -51.749  1.00  0.00     0.058 C 
ENDROOT
BRANCH   1  16
HETATM   16  C   UNL     1     -41.175  54.708 -54.191  1.00  0.00     0.145 C 
BRANCH  16  17
HETATM   17  C   UNL     1     -40.570  53.520 -53.491  1.00  0.00    -0.043 A 
HETATM   18  C   UNL     1     -40.258  52.355 -54.205  1.00  0.00     0.032 A 
HETATM   19  C   UNL     1     -39.746  51.240 -53.538  1.00  0.00     0.034 A 
HETATM   20  C   UNL     1     -39.536  51.273 -52.162  1.00  0.00     0.024 A 
HETATM   21 CL   UNL     1     -39.385  49.811 -54.425  1.00  0.00    -0.084 Cl
HETATM   22  C   UNL     1     -39.833  52.431 -51.445  1.00  0.00     0.002 A 
HETATM   23  C   UNL     1     -40.346  53.548 -52.105  1.00  0.00     0.008 A 
ENDBRANCH  16  17
ENDBRANCH   1  16
TORSDOF 2
ENDMDL
MODEL 2
REMARK VINA RESULT:      -7.4      1.566      2.032
REMARK  2 active torsions:
REMARK  status: ('A' for Active; 'I' for Inactive)
REMARK    1  A    between atoms: C_6  and  C_7 
REMARK    2  A    between atoms: C_7  and  N_8 
ROOT
HETATM    1  N   UNL     1     -41.152  54.565 -53.664  1.00  0.00    -0.203 NA
HETATM    2  S   UNL     1     -42.851  54.589 -53.608  1.00  0.00     0.219 S 
HETATM    3  O   UNL     1     -43.284  53.959 -52.388  1.00  0.00    -0.211 OA
HETATM    4  O   UNL     1     -43.354  54.227 -54.916  1.00  0.00    -0.211 OA
HETATM    5  C   UNL     1     -43.034  56.362 -53.500  1.00  0.00     0.164 C 
HETATM    6  C   UNL     1     -41.631  56.900 -53.268  1.00  0.00     0.116 C 
HETATM    7  O   UNL     1     -41.546  57.008 -51.828  1.00  0.00    -0.369 OA
HETATM    8  C   UNL     1     -42.810  57.597 -51.448  1.00  0.00     0.149 C 
HETATM    9  C   UNL     1     -42.722  59.101 -51.787  1.00  0.00     0.264 C 
HETATM   10  N   UNL     1     -42.461  59.284 -53.274  1.00  0.00    -0.070 N 
HETATM   11  H   UNL     1     -43.346  59.203 -53.795  1.00  0.00     0.277 HD
HETATM   12  H   UNL     1     -42.144  60.252 -53.433  1.00  0.00     0.277 HD
HETATM   13  C   UNL     1     -41.422  58.324 -53.828  1.00  0.00     0.273 C 
HETATM   14  C   UNL     1     -40.601  55.922 -53.847  1.00  0.00     0.148 C 
HETATM   15  C   UNL     1     -43.839  56.856 -52.305  1.00  0.00     0.058 C 
ENDROOT
BRANCH   1  16
HETATM   16  C   UNL     1     -40.539  53.552 -54.562  1.00  0.00     0.145 C 
BRANCH  16  17
HETATM   17  C   UNL     1     -40.252  52.222 -53.917  1.00  0.00    -0.043 A 
HETATM   18  C   UNL     1     -40.269  52.088 -52.522  1.00  0.00     0.032 A 
HETATM   19  C   UNL     1     -39.950  50.865 -51.931  1.00  0.00     0.034 A 
HETATM   20  C   UNL     1     -39.617  49.764 -52.717  1.00  0.00     0.024 A 
HETATM   21 CL   UNL     1     -39.957  50.720 -50.216  1.00  0.00    -0.084 Cl
HETATM   22  C   UNL     1     -39.608  49.884 -54.106  1.00  0.00     0.002 A 
HETATM   23  C   UNL     1     -39.925  51.106 -54.703  1.00  0.00     0.008 A 
ENDBRANCH  16  17
ENDBRANCH   1  16
TORSDOF 2
ENDMDL
MODEL 3
REMARK VINA RESULT:      -7.2      1.868      3.023
REMARK  2 active torsions:
REMARK  status: ('A' for Active; 'I' for Inactive)
REMARK    1  A    between atoms: C_6  and  C_7 
REMARK    2  A    between atoms: C_7  and  N_8 
ROOT
HETATM    1  N   UNL     1     -41.948  56.045 -51.750  1.00  0.00    -0.203 NA
HETATM    2  S   UNL     1     -41.193  57.560 -51.907  1.00  0.00     0.219 S 
HETATM    3  O   UNL     1     -40.647  57.671 -53.235  1.00  0.00    -0.211 OA
HETATM    4  O   UNL     1     -40.426  57.813 -50.707  1.00  0.00    -0.211 OA
HETATM    5  C   UNL     1     -42.670  58.551 -51.750  1.00  0.00     0.164 C 
HETATM    6  C   UNL     1     -43.826  57.565 -51.808  1.00  0.00     0.116 C 
HETATM    7  O   UNL     1     -44.199  57.566 -53.204  1.00  0.00    -0.369 OA
HETATM    8  C   UNL     1     -44.191  58.964 -53.566  1.00  0.00     0.149 C 
HETATM    9  C   UNL     1     -45.485  59.582 -52.993  1.00  0.00     0.264 C 
HETATM   10  N   UNL     1     -45.517  59.410 -51.482  1.00  0.00    -0.070 N 
HETATM   11  H   UNL     1     -44.950  60.146 -51.037  1.00  0.00     0.277 HD
HETATM   12  H   UNL     1     -46.480  59.578 -51.155  1.00  0.00     0.277 HD
HETATM   13  C   UNL     1     -45.069  58.034 -51.021  1.00  0.00     0.273 C 
HETATM   14  C   UNL     1     -43.354  56.188 -51.324  1.00  0.00     0.148 C 
HETATM   15  C   UNL     1     -42.928  59.514 -52.901  1.00  0.00     0.058 C 
ENDROOT
BRANCH   1  16
HETATM   16  C   UNL     1     -41.200  55.016 -50.984  1.00  0.00     0.145 C 
BRANCH  16  17
HETATM   17  C   UNL     1     -40.747  53.827 -51.791  1.00  0.00    -0.043 A 
HETATM   18  C   UNL     1     -40.325  52.653 -51.154  1.00  0.00     0.032 A 
HETATM   19  C   UNL     1     -39.859  51.574 -51.907  1.00  0.00     0.034 A 
HETATM   20  C   UNL     1     -39.811  51.650 -53.297  1.00  0.00     0.024 A 
HETATM   21 CL   UNL     1     -39.325  50.146 -51.109  1.00  0.00    -0.084 Cl
HETATM   22  C   UNL     1     -40.240  52.809 -53.941  1.00  0.00     0.002 A 
HETATM   23  C   UNL     1     -40.706  53.892 -53.193  1.00  0.00     0.008 A 
ENDBRANCH  16  17
ENDBRANCH   1  16
TORSDOF 2
ENDMDL
MODEL 4
REMARK VINA RESULT:      -7.1      1.332      1.693
REMARK  2 active torsions:
REMARK  status: ('A' for Active; 'I' for Inactive)
REMARK    1  A    between atoms: C_6  and  C_7 
REMARK    2  A    between atoms: C_7  and  N_8 
ROOT
HETATM    1  N   UNL     1     -41.569  56.470 -53.430  1.00  0.00    -0.203 NA
HETATM    2  S   UNL     1     -43.263  56.437 -53.297  1.00  0.00     0.219 S 
HETATM    3  O   UNL     1     -43.619  55.802 -52.054  1.00  0.00    -0.211 OA
HETATM    4  O   UNL     1     -43.812  56.045 -54.578  1.00  0.00    -0.211 OA
HETATM    5  C   UNL     1     -43.503  58.203 -53.194  1.00  0.00     0.164 C 
HETATM    6  C   UNL     1     -42.111  58.791 -53.029  1.00  0.00     0.116 C 
HETATM    7  O   UNL     1     -41.965  58.914 -51.596  1.00  0.00    -0.369 OA
HETATM    8  C   UNL     1     -43.229  59.462 -51.163  1.00  0.00     0.149 C 
HETATM    9  C   UNL     1     -43.209  60.965 -51.517  1.00  0.00     0.264 C 
HETATM   10  N   UNL     1     -43.023  61.144 -53.015  1.00  0.00    -0.070 N 
HETATM   11  H   UNL     1     -43.927  61.028 -53.494  1.00  0.00     0.277 HD
HETATM   12  H   UNL     1     -42.747  62.122 -53.195  1.00  0.00     0.277 HD
HETATM   13  C   UNL     1     -41.977  60.216 -53.608  1.00  0.00     0.273 C 
HETATM   14  C   UNL     1     -41.075  57.844 -53.647  1.00  0.00     0.148 C 
HETATM   15  C   UNL     1     -44.269  58.679 -51.967  1.00  0.00     0.058 C 
ENDROOT
BRANCH   1  16
HETATM   16  C   UNL     1     -40.962  55.472 -54.347  1.00  0.00     0.145 C 
BRANCH  16  17
HETATM   17  C   UNL     1     -40.610  54.154 -53.709  1.00  0.00    -0.043 A 
HETATM   18  C   UNL     1     -40.635  54.008 -52.316  1.00  0.00     0.032 A 
HETATM   19  C   UNL     1     -40.257  52.798 -51.731  1.00  0.00     0.034 A 
HETATM   20  C   UNL     1     -39.857  51.724 -52.521  1.00  0.00     0.024 A 
HETATM   21 CL   UNL     1     -40.274  52.640 -50.017  1.00  0.00    -0.084 Cl
HETATM   22  C   UNL     1     -39.840  51.856 -53.908  1.00  0.00     0.002 A 
HETATM   23  C   UNL     1     -40.215  53.063 -54.500  1.00  0.00     0.008 A 
ENDBRANCH  16  17
ENDBRANCH   1  16
TORSDOF 2
ENDMDL
MODEL 5
REMARK VINA RESULT:      -7.0     15.957     17.227
REMARK  2 active torsions:
REMARK  status: ('A' for Active; 'I' for Inactive)
REMARK    1  A    between atoms: C_6  and  C_7 
REMARK    2  A    between atoms: C_7  and  N_8 
ROOT
HETATM    1  N   UNL     1     -34.929  40.785 -54.193  1.00  0.00    -0.203 NA
HETATM    2  S   UNL     1     -35.865  41.597 -53.029  1.00  0.00     0.219 S 
HETATM    3  O   UNL     1     -37.147  40.947 -52.929  1.00  0.00    -0.211 OA
HETATM    4  O   UNL     1     -35.707  43.021 -53.231  1.00  0.00    -0.211 OA
HETATM    5  C   UNL     1     -34.845  41.197 -51.619  1.00  0.00     0.164 C 
HETATM    6  C   UNL     1     -33.846  40.169 -52.123  1.00  0.00     0.116 C 
HETATM    7  O   UNL     1     -34.468  38.905 -51.795  1.00  0.00    -0.369 OA
HETATM    8  C   UNL     1     -34.960  39.098 -50.451  1.00  0.00     0.149 C 
HETATM    9  C   UNL     1     -33.741  38.993 -49.509  1.00  0.00     0.264 C 
HETATM   10  N   UNL     1     -32.713  40.054 -49.870  1.00  0.00    -0.070 N 
HETATM   11  H   UNL     1     -32.980  40.954 -49.448  1.00  0.00     0.277 HD
HETATM   12  H   UNL     1     -31.816  39.804 -49.425  1.00  0.00     0.277 HD
HETATM   13  C   UNL     1     -32.500  40.203 -51.367  1.00  0.00     0.273 C 
HETATM   14  C   UNL     1     -33.636  40.348 -53.631  1.00  0.00     0.148 C 
HETATM   15  C   UNL     1     -35.570  40.501 -50.475  1.00  0.00     0.058 C 
ENDROOT
BRANCH   1  16
HETATM   16  C   UNL     1     -34.805  41.450 -55.515  1.00  0.00     0.145 C 
BRANCH  16  17
HETATM   17  C   UNL     1     -35.890  41.107 -56.503  1.00  0.00    -0.043 A 
HETATM   18  C   UNL     1     -36.061  41.871 -57.666  1.00  0.00     0.032 A 
HETATM   19  C   UNL     1     -37.100  41.578 -58.550  1.00  0.00     0.034 A 
HETATM   20  C   UNL     1     -37.975  40.526 -58.291  1.00  0.00     0.024 A 
HETATM   21 CL   UNL     1     -37.310  42.536 -59.964  1.00  0.00    -0.084 Cl
HETATM   22  C   UNL     1     -37.806  39.754 -57.143  1.00  0.00     0.002 A 
HETATM   23  C   UNL     1     -36.769  40.042 -56.254  1.00  0.00     0.008 A 
ENDBRANCH  16  17
ENDBRANCH   1  16
TORSDOF 2
ENDMDL
MODEL 6
REMARK VINA RESULT:      -6.9      5.899      6.998
REMARK  2 active torsions:
REMARK  status: ('A' for Active; 'I' for Inactive)
REMARK    1  A    between atoms: C_6  and  C_7 
REMARK    2  A    between atoms: C_7  and  N_8 
ROOT
HETATM    1  N   UNL     1     -43.874  56.535 -57.985  1.00  0.00    -0.203 NA
HETATM    2  S   UNL     1     -43.667  55.612 -59.397  1.00  0.00     0.219 S 
HETATM    3  O   UNL     1     -44.214  54.298 -59.176  1.00  0.00    -0.211 OA
HETATM    4  O   UNL     1     -42.331  55.845 -59.901  1.00  0.00    -0.211 OA
HETATM    5  C   UNL     1     -44.748  56.576 -60.441  1.00  0.00     0.164 C 
HETATM    6  C   UNL     1     -45.464  57.536 -59.505  1.00  0.00     0.116 C 
HETATM    7  O   UNL     1     -46.693  56.844 -59.188  1.00  0.00    -0.369 OA
HETATM    8  C   UNL     1     -47.141  56.329 -60.462  1.00  0.00     0.149 C 
HETATM    9  C   UNL     1     -47.750  57.518 -61.236  1.00  0.00     0.264 C 
HETATM   10  N   UNL     1     -46.704  58.606 -61.425  1.00  0.00    -0.070 N 
HETATM   11  H   UNL     1     -46.102  58.372 -62.227  1.00  0.00     0.277 HD
HETATM   12  H   UNL     1     -47.185  59.478 -61.694  1.00  0.00     0.277 HD
HETATM   13  C   UNL     1     -45.869  58.863 -60.183  1.00  0.00     0.273 C 
HETATM   14  C   UNL     1     -44.596  57.791 -58.266  1.00  0.00     0.148 C 
HETATM   15  C   UNL     1     -45.866  55.790 -61.114  1.00  0.00     0.058 C 
ENDROOT
BRANCH   1  16
HETATM   16  C   UNL     1     -42.666  56.724 -57.142  1.00  0.00     0.145 C 
BRANCH  16  17
HETATM   17  C   UNL     1     -42.591  55.834 -55.929  1.00  0.00    -0.043 A 
HETATM   18  C   UNL     1     -41.573  54.879 -55.807  1.00  0.00     0.032 A 
HETATM   19  C   UNL     1     -41.541  54.024 -54.705  1.00  0.00     0.034 A 
HETATM   20  C   UNL     1     -42.515  54.111 -53.713  1.00  0.00     0.024 A 
HETATM   21 CL   UNL     1     -40.296  52.843 -54.579  1.00  0.00    -0.084 Cl
HETATM   22  C   UNL     1     -43.526  55.065 -53.819  1.00  0.00     0.002 A 
HETATM   23  C   UNL     1     -43.563  55.923 -54.920  1.00  0.00     0.008 A 
ENDBRANCH  16  17
ENDBRANCH   1  16
TORSDOF 2
ENDMDL
MODEL 7
REMARK VINA RESULT:      -6.7      2.164      2.974
REMARK  2 active torsions:
REMARK  status: ('A' for Active; 'I' for Inactive)
REMARK    1  A    between atoms: C_6  and  C_7 
REMARK    2  A    between atoms: C_7  and  N_8 
ROOT
HETATM    1  N   UNL     1     -42.551  55.684 -54.084  1.00  0.00    -0.203 NA
HETATM    2  S   UNL     1     -42.064  57.064 -53.219  1.00  0.00     0.219 S 
HETATM    3  O   UNL     1     -40.638  57.218 -53.356  1.00  0.00    -0.211 OA
HETATM    4  O   UNL     1     -42.747  57.066 -51.944  1.00  0.00    -0.211 OA
HETATM    5  C   UNL     1     -42.925  58.261 -54.227  1.00  0.00     0.164 C 
HETATM    6  C   UNL     1     -43.423  57.486 -55.437  1.00  0.00     0.116 C 
HETATM    7  O   UNL     1     -42.380  57.688 -56.418  1.00  0.00    -0.369 OA
HETATM    8  C   UNL     1     -42.073  59.096 -56.315  1.00  0.00     0.149 C 
HETATM    9  C   UNL     1     -43.207  59.855 -57.039  1.00  0.00     0.264 C 
HETATM   10  N   UNL     1     -44.543  59.539 -56.385  1.00  0.00    -0.070 N 
HETATM   11  H   UNL     1     -44.667  60.124 -55.547  1.00  0.00     0.277 HD
HETATM   12  H   UNL     1     -45.297  59.828 -57.028  1.00  0.00     0.277 HD
HETATM   13  C   UNL     1     -44.717  58.069 -56.045  1.00  0.00     0.273 C 
HETATM   14  C   UNL     1     -43.604  56.009 -55.066  1.00  0.00     0.148 C 
HETATM   15  C   UNL     1     -42.051  59.364 -54.808  1.00  0.00     0.058 C 
ENDROOT
BRANCH   1  16
HETATM   16  C   UNL     1     -42.849  54.474 -53.275  1.00  0.00     0.145 C 
BRANCH  16  17
HETATM   17  C   UNL     1     -41.656  53.612 -52.957  1.00  0.00    -0.043 A 
HETATM   18  C   UNL     1     -41.261  52.592 -53.833  1.00  0.00     0.032 A 
HETATM   19  C   UNL     1     -40.186  51.764 -53.506  1.00  0.00     0.034 A 
HETATM   20  C   UNL     1     -39.493  51.942 -52.311  1.00  0.00     0.024 A 
HETATM   21 CL   UNL     1     -39.724  50.504 -54.583  1.00  0.00    -0.084 Cl
HETATM   22  C   UNL     1     -39.872  52.961 -51.438  1.00  0.00     0.002 A 
HETATM   23  C   UNL     1     -40.947  53.792 -51.759  1.00  0.00     0.008 A 
ENDBRANCH  16  17
ENDBRANCH   1  16
TORSDOF 2
ENDMDL
MODEL 8
REMARK VINA RESULT:      -6.6      3.837      5.443
REMARK  2 active torsions:
REMARK  status: ('A' for Active; 'I' for Inactive)
REMARK    1  A    between atoms: C_6  and  C_7 
REMARK    2  A    between atoms: C_7  and  N_8 
ROOT
HETATM    1  N   UNL     1     -42.644  57.249 -54.962  1.00  0.00    -0.203 NA
HETATM    2  S   UNL     1     -43.879  56.345 -54.223  1.00  0.00     0.219 S 
HETATM    3  O   UNL     1     -43.824  54.993 -54.718  1.00  0.00    -0.211 OA
HETATM    4  O   UNL     1     -45.086  57.143 -54.218  1.00  0.00    -0.211 OA
HETATM    5  C   UNL     1     -43.241  56.432 -52.558  1.00  0.00     0.164 C 
HETATM    6  C   UNL     1     -41.849  57.029 -52.691  1.00  0.00     0.116 C 
HETATM    7  O   UNL     1     -40.990  55.867 -52.760  1.00  0.00    -0.369 OA
HETATM    8  C   UNL     1     -41.501  54.995 -51.727  1.00  0.00     0.149 C 
HETATM    9  C   UNL     1     -41.001  55.558 -50.379  1.00  0.00     0.264 C 
HETATM   10  N   UNL     1     -41.507  56.980 -50.190  1.00  0.00    -0.070 N 
HETATM   11  H   UNL     1     -42.475  56.960 -49.841  1.00  0.00     0.277 HD
HETATM   12  H   UNL     1     -40.958  57.424 -49.438  1.00  0.00     0.277 HD
HETATM   13  C   UNL     1     -41.406  57.828 -51.446  1.00  0.00     0.273 C 
HETATM   14  C   UNL     1     -41.775  57.892 -53.956  1.00  0.00     0.148 C 
HETATM   15  C   UNL     1     -43.020  55.087 -51.880  1.00  0.00     0.058 C 
ENDROOT
BRANCH   1  16
HETATM   16  C   UNL     1     -43.064  58.166 -56.053  1.00  0.00     0.145 C 
BRANCH  16  17
HETATM   17  C   UNL     1     -42.886  57.620 -57.445  1.00  0.00    -0.043 A 
HETATM   18  C   UNL     1     -43.572  56.467 -57.852  1.00  0.00     0.032 A 
HETATM   19  C   UNL     1     -43.362  55.940 -59.126  1.00  0.00     0.034 A 
HETATM   20  C   UNL     1     -42.475  56.550 -60.009  1.00  0.00     0.024 A 
HETATM   21 CL   UNL     1     -44.198  54.513 -59.605  1.00  0.00    -0.084 Cl
HETATM   22  C   UNL     1     -41.796  57.704 -59.618  1.00  0.00     0.002 A 
HETATM   23  C   UNL     1     -42.001  58.236 -58.344  1.00  0.00     0.008 A 
ENDBRANCH  16  17
ENDBRANCH   1  16
TORSDOF 2
ENDMDL
MODEL 9
REMARK VINA RESULT:      -6.6      3.363      4.152
REMARK  2 active torsions:
REMARK  status: ('A' for Active; 'I' for Inactive)
REMARK    1  A    between atoms: C_6  and  C_7 
REMARK    2  A    between atoms: C_7  and  N_8 
ROOT
HETATM    1  N   UNL     1     -42.948  55.871 -54.901  1.00  0.00    -0.203 NA
HETATM    2  S   UNL     1     -43.554  57.370 -54.375  1.00  0.00     0.219 S 
HETATM    3  O   UNL     1     -42.487  58.109 -53.751  1.00  0.00    -0.211 OA
HETATM    4  O   UNL     1     -44.840  57.147 -53.751  1.00  0.00    -0.211 OA
HETATM    5  C   UNL     1     -43.915  58.032 -55.993  1.00  0.00     0.164 C 
HETATM    6  C   UNL     1     -43.287  57.059 -56.977  1.00  0.00     0.116 C 
HETATM    7  O   UNL     1     -41.987  57.635 -57.237  1.00  0.00    -0.369 OA
HETATM    8  C   UNL     1     -42.259  59.043 -57.414  1.00  0.00     0.149 C 
HETATM    9  C   UNL     1     -42.859  59.208 -58.827  1.00  0.00     0.264 C 
HETATM   10  N   UNL     1     -44.133  58.388 -58.949  1.00  0.00    -0.070 N 
HETATM   11  H   UNL     1     -44.921  58.907 -58.537  1.00  0.00     0.277 HD
HETATM   12  H   UNL     1     -44.367  58.295 -59.950  1.00  0.00     0.277 HD
HETATM   13  C   UNL     1     -44.021  57.003 -58.335  1.00  0.00     0.273 C 
HETATM   14  C   UNL     1     -43.198  55.667 -56.341  1.00  0.00     0.148 C 
HETATM   15  C   UNL     1     -43.259  59.371 -56.304  1.00  0.00     0.058 C 
ENDROOT
BRANCH   1  16
HETATM   16  C   UNL     1     -43.296  54.693 -54.066  1.00  0.00     0.145 C 
BRANCH  16  17
HETATM   17  C   UNL     1     -42.120  53.891 -53.575  1.00  0.00    -0.043 A 
HETATM   18  C   UNL     1     -41.590  54.113 -52.296  1.00  0.00     0.032 A 
HETATM   19  C   UNL     1     -40.469  53.402 -51.869  1.00  0.00     0.034 A 
HETATM   20  C   UNL     1     -39.866  52.463 -52.702  1.00  0.00     0.024 A 
HETATM   21 CL   UNL     1     -39.818  53.699 -50.304  1.00  0.00    -0.084 Cl
HETATM   22  C   UNL     1     -40.392  52.227 -53.971  1.00  0.00     0.002 A 
HETATM   23  C   UNL     1     -41.513  52.936 -54.405  1.00  0.00     0.008 A 
ENDBRANCH  16  17
ENDBRANCH   1  16
TORSDOF 2
ENDMDL
MODEL 10
REMARK VINA RESULT:      -6.5     15.487     17.304
REMARK  2 active torsions:
REMARK  status: ('A' for Active; 'I' for Inactive)
REMARK    1  A    between atoms: C_6  and  C_7 
REMARK    2  A    between atoms: C_7  and  N_8 
ROOT
HETATM    1  N   UNL     1     -35.611  40.251 -53.128  1.00  0.00    -0.203 NA
HETATM    2  S   UNL     1     -36.653  41.583 -53.299  1.00  0.00     0.219 S 
HETATM    3  O   UNL     1     -35.867  42.790 -53.299  1.00  0.00    -0.211 OA
HETATM    4  O   UNL     1     -37.798  41.377 -52.440  1.00  0.00    -0.211 OA
HETATM    5  C   UNL     1     -37.218  41.200 -54.949  1.00  0.00     0.164 C 
HETATM    6  C   UNL     1     -36.324  40.069 -55.430  1.00  0.00     0.116 C 
HETATM    7  O   UNL     1     -35.272  40.752 -56.150  1.00  0.00    -0.369 OA
HETATM    8  C   UNL     1     -35.975  41.740 -56.936  1.00  0.00     0.149 C 
HETATM    9  C   UNL     1     -36.608  40.993 -58.130  1.00  0.00     0.264 C 
HETATM   10  N   UNL     1     -37.561  39.920 -57.625  1.00  0.00    -0.070 N 
HETATM   11  H   UNL     1     -38.469  40.346 -57.390  1.00  0.00     0.277 HD
HETATM   12  H   UNL     1     -37.762  39.270 -58.400  1.00  0.00     0.277 HD
HETATM   13  C   UNL     1     -37.014  39.133 -56.446  1.00  0.00     0.273 C 
HETATM   14  C   UNL     1     -35.796  39.280 -54.225  1.00  0.00     0.148 C 
HETATM   15  C   UNL     1     -37.019  42.309 -55.973  1.00  0.00     0.058 C 
ENDROOT
BRANCH   1  16
HETATM   16  C   UNL     1     -35.564  39.622 -51.784  1.00  0.00     0.145 C 
BRANCH  16  17
HETATM   17  C   UNL     1     -34.213  39.641 -51.119  1.00  0.00    -0.043 A 
HETATM   18  C   UNL     1     -34.045  39.114 -49.831  1.00  0.00     0.032 A 
HETATM   19  C   UNL     1     -32.801  39.182 -49.202  1.00  0.00     0.034 A 
HETATM   20  C   UNL     1     -31.714  39.768 -49.845  1.00  0.00     0.024 A 
HETATM   21 CL   UNL     1     -32.615  38.548 -47.613  1.00  0.00    -0.084 Cl
HETATM   22  C   UNL     1     -31.868  40.285 -51.130  1.00  0.00     0.002 A 
HETATM   23  C   UNL     1     -33.110  40.221 -51.764  1.00  0.00     0.008 A 
ENDBRANCH  16  17
ENDBRANCH   1  16
TORSDOF 2
ENDMDL
