MODEL 1
REMARK VINA RESULT:      -8.4      0.000      0.000
REMARK  6 active torsions:
REMARK  status: ('A' for Active; 'I' for Inactive)
REMARK    1  A    between atoms: C_2  and  C_3 
REMARK    2  A    between atoms: C_3  and  C_4 
REMARK    3  A    between atoms: C_3  and  C_11 
REMARK    4  A    between atoms: C_11  and  C_12 
REMARK       I    between atoms: C_12  and  N_13 
REMARK    5  A    between atoms: N_13  and  C_14 
REMARK    6  A    between atoms: C_21  and  C_22 
REMARK       I    between atoms: C_22  and  N_23 
ROOT
HETATM    1  C   UNL     1     -43.301  57.424 -55.398  1.00  0.00     0.035 A 
HETATM    2  C   UNL     1     -43.247  56.828 -56.666  1.00  0.00     0.046 A 
HETATM    3  C   UNL     1     -44.188  57.202 -57.651  1.00  0.00     0.030 A 
HETATM    4  C   UNL     1     -45.159  58.143 -57.328  1.00  0.00     0.063 A 
HETATM    5  N   UNL     1     -45.911  58.291 -58.459  1.00  0.00    -0.277 N 
HETATM    6  H   UNL     1     -46.714  58.897 -58.587  1.00  0.00     0.189 HD
HETATM    7  N   UNL     1     -45.507  57.545 -59.499  1.00  0.00    -0.168 NA
HETATM    8  C   UNL     1     -44.439  56.868 -59.017  1.00  0.00     0.156 A 
HETATM    9  C   UNL     1     -45.246  58.750 -56.075  1.00  0.00     0.034 A 
HETATM   10  C   UNL     1     -44.292  58.377 -55.122  1.00  0.00     0.032 A 
ENDROOT
BRANCH   1  11
HETATM   11  N   UNL     1     -42.374  57.159 -54.365  1.00  0.00    -0.327 N 
HETATM   12  C   UNL     1     -42.533  56.310 -53.288  1.00  0.00     0.222 C 
HETATM   13  O   UNL     1     -43.566  55.715 -52.990  1.00  0.00    -0.273 OA
HETATM   14  H   UNL     1     -41.531  57.712 -54.396  1.00  0.00     0.169 HD
BRANCH  12  15
HETATM   15  C   UNL     1     -41.255  56.034 -52.498  1.00  0.00     0.112 C 
BRANCH  15  16
HETATM   16  C   UNL     1     -41.228  54.762 -51.630  1.00  0.00     0.027 C 
BRANCH  16  17
HETATM   17  C   UNL     1     -40.442  54.973 -50.313  1.00  0.00     0.005 C 
HETATM   18  C   UNL     1     -41.256  54.925 -49.027  1.00  0.00     0.006 C 
ENDBRANCH  16  17
BRANCH  16  19
HETATM   19  C   UNL     1     -40.780  53.501 -52.353  1.00  0.00    -0.053 A 
HETATM   20  C   UNL     1     -41.140  53.224 -53.677  1.00  0.00     0.008 A 
HETATM   21  C   UNL     1     -40.683  52.066 -54.316  1.00  0.00     0.007 A 
HETATM   22  C   UNL     1     -39.854  51.162 -53.645  1.00  0.00    -0.062 A 
HETATM   23  C   UNL     1     -39.394  49.910 -54.330  1.00  0.00     0.048 C 
HETATM   24  C   UNL     1     -39.505  51.422 -52.318  1.00  0.00     0.007 A 
HETATM   25  C   UNL     1     -39.955  52.583 -51.682  1.00  0.00     0.008 A 
ENDBRANCH  16  19
ENDBRANCH  15  16
ENDBRANCH  12  15
ENDBRANCH   1  11
BRANCH   8  26
HETATM   26  C   UNL     1     -43.686  55.938 -59.869  1.00  0.00     0.270 C 
HETATM   27  N   UNL     1     -44.377  54.808 -60.209  1.00  0.00    -0.365 N 
HETATM   28  H   UNL     1     -45.326  54.702 -59.873  1.00  0.00     0.159 HD
HETATM   29  H   UNL     1     -43.947  54.122 -60.809  1.00  0.00     0.159 HD
HETATM   30  O   UNL     1     -42.543  56.127 -60.273  1.00  0.00    -0.266 OA
ENDBRANCH   8  26
TORSDOF 6
ENDMDL
MODEL 2
REMARK VINA RESULT:      -8.3      1.353      1.682
REMARK  6 active torsions:
REMARK  status: ('A' for Active; 'I' for Inactive)
REMARK    1  A    between atoms: C_2  and  C_3 
REMARK    2  A    between atoms: C_3  and  C_4 
REMARK    3  A    between atoms: C_3  and  C_11 
REMARK    4  A    between atoms: C_11  and  C_12 
REMARK       I    between atoms: C_12  and  N_13 
REMARK    5  A    between atoms: N_13  and  C_14 
REMARK    6  A    between atoms: C_21  and  C_22 
REMARK       I    between atoms: C_22  and  N_23 
ROOT
HETATM    1  C   UNL     1     -42.591  57.047 -56.423  1.00  0.00     0.035 A 
HETATM    2  C   UNL     1     -43.142  56.136 -57.335  1.00  0.00     0.046 A 
HETATM    3  C   UNL     1     -43.865  56.618 -58.450  1.00  0.00     0.030 A 
HETATM    4  C   UNL     1     -44.027  57.990 -58.601  1.00  0.00     0.063 A 
HETATM    5  N   UNL     1     -44.760  58.145 -59.744  1.00  0.00    -0.277 N 
HETATM    6  H   UNL     1     -45.071  59.015 -60.160  1.00  0.00     0.189 HD
HETATM    7  N   UNL     1     -45.075  56.997 -60.364  1.00  0.00    -0.168 NA
HETATM    8  C   UNL     1     -44.526  56.043 -59.577  1.00  0.00     0.156 A 
HETATM    9  C   UNL     1     -43.499  58.924 -57.710  1.00  0.00     0.034 A 
HETATM   10  C   UNL     1     -42.771  58.423 -56.625  1.00  0.00     0.032 A 
ENDROOT
BRANCH   1  11
HETATM   11  N   UNL     1     -41.806  56.669 -55.311  1.00  0.00    -0.327 N 
HETATM   12  C   UNL     1     -42.090  56.866 -53.974  1.00  0.00     0.222 C 
HETATM   13  O   UNL     1     -43.039  57.508 -53.529  1.00  0.00    -0.273 OA
HETATM   14  H   UNL     1     -40.908  56.271 -55.538  1.00  0.00     0.169 HD
BRANCH  12  15
HETATM   15  C   UNL     1     -41.182  56.107 -53.009  1.00  0.00     0.112 C 
BRANCH  15  16
HETATM   16  C   UNL     1     -41.752  54.829 -52.365  1.00  0.00     0.027 C 
BRANCH  16  17
HETATM   17  C   UNL     1     -41.829  54.940 -50.824  1.00  0.00     0.005 C 
HETATM   18  C   UNL     1     -41.103  56.122 -50.195  1.00  0.00     0.006 C 
ENDBRANCH  16  17
BRANCH  16  19
HETATM   19  C   UNL     1     -41.080  53.537 -52.801  1.00  0.00    -0.053 A 
HETATM   20  C   UNL     1     -40.212  52.820 -51.969  1.00  0.00     0.008 A 
HETATM   21  C   UNL     1     -39.637  51.619 -52.398  1.00  0.00     0.007 A 
HETATM   22  C   UNL     1     -39.919  51.108 -53.668  1.00  0.00    -0.062 A 
HETATM   23  C   UNL     1     -39.274  49.835 -54.129  1.00  0.00     0.048 C 
HETATM   24  C   UNL     1     -40.769  51.826 -54.512  1.00  0.00     0.007 A 
HETATM   25  C   UNL     1     -41.351  53.022 -54.080  1.00  0.00     0.008 A 
ENDBRANCH  16  19
ENDBRANCH  15  16
ENDBRANCH  12  15
ENDBRANCH   1  11
BRANCH   8  26
HETATM   26  C   UNL     1     -44.634  54.619 -59.927  1.00  0.00     0.270 C 
HETATM   27  N   UNL     1     -44.864  54.387 -61.256  1.00  0.00    -0.365 N 
HETATM   28  H   UNL     1     -44.928  55.181 -61.882  1.00  0.00     0.159 HD
HETATM   29  H   UNL     1     -44.932  53.440 -61.592  1.00  0.00     0.159 HD
HETATM   30  O   UNL     1     -44.521  53.692 -59.133  1.00  0.00    -0.266 OA
ENDBRANCH   8  26
TORSDOF 6
ENDMDL
MODEL 3
REMARK VINA RESULT:      -8.1      2.050      3.405
REMARK  6 active torsions:
REMARK  status: ('A' for Active; 'I' for Inactive)
REMARK    1  A    between atoms: C_2  and  C_3 
REMARK    2  A    between atoms: C_3  and  C_4 
REMARK    3  A    between atoms: C_3  and  C_11 
REMARK    4  A    between atoms: C_11  and  C_12 
REMARK       I    between atoms: C_12  and  N_13 
REMARK    5  A    between atoms: N_13  and  C_14 
REMARK    6  A    between atoms: C_21  and  C_22 
REMARK       I    between atoms: C_22  and  N_23 
ROOT
HETATM    1  C   UNL     1     -43.298  56.365 -57.950  1.00  0.00     0.035 A 
HETATM    2  C   UNL     1     -44.372  57.266 -57.903  1.00  0.00     0.046 A 
HETATM    3  C   UNL     1     -45.247  57.363 -59.008  1.00  0.00     0.030 A 
HETATM    4  C   UNL     1     -45.007  56.572 -60.125  1.00  0.00     0.063 A 
HETATM    5  N   UNL     1     -45.997  56.886 -61.012  1.00  0.00    -0.277 N 
HETATM    6  H   UNL     1     -46.133  56.503 -61.942  1.00  0.00     0.189 HD
HETATM    7  N   UNL     1     -46.875  57.799 -60.568  1.00  0.00    -0.168 NA
HETATM    8  C   UNL     1     -46.427  58.101 -59.327  1.00  0.00     0.156 A 
HETATM    9  C   UNL     1     -43.945  55.672 -60.208  1.00  0.00     0.034 A 
HETATM   10  C   UNL     1     -43.103  55.580 -59.094  1.00  0.00     0.032 A 
ENDROOT
BRANCH   1  11
HETATM   11  N   UNL     1     -42.403  56.154 -56.878  1.00  0.00    -0.327 N 
HETATM   12  C   UNL     1     -42.387  55.098 -55.988  1.00  0.00     0.222 C 
HETATM   13  O   UNL     1     -43.231  54.207 -55.918  1.00  0.00    -0.273 OA
HETATM   14  H   UNL     1     -41.747  56.903 -56.716  1.00  0.00     0.169 HD
BRANCH  12  15
HETATM   15  C   UNL     1     -41.137  55.016 -55.115  1.00  0.00     0.112 C 
BRANCH  15  16
HETATM   16  C   UNL     1     -41.349  54.889 -53.595  1.00  0.00     0.027 C 
BRANCH  16  17
HETATM   17  C   UNL     1     -40.900  56.162 -52.837  1.00  0.00     0.005 C 
HETATM   18  C   UNL     1     -40.995  57.473 -53.606  1.00  0.00     0.006 C 
ENDBRANCH  16  17
BRANCH  16  19
HETATM   19  C   UNL     1     -40.769  53.631 -52.969  1.00  0.00    -0.053 A 
HETATM   20  C   UNL     1     -40.630  53.472 -51.584  1.00  0.00     0.008 A 
HETATM   21  C   UNL     1     -40.118  52.287 -51.048  1.00  0.00     0.007 A 
HETATM   22  C   UNL     1     -39.737  51.233 -51.882  1.00  0.00    -0.062 A 
HETATM   23  C   UNL     1     -39.162  49.977 -51.298  1.00  0.00     0.048 C 
HETATM   24  C   UNL     1     -39.855  51.389 -53.265  1.00  0.00     0.007 A 
HETATM   25  C   UNL     1     -40.374  52.571 -53.802  1.00  0.00     0.008 A 
ENDBRANCH  16  19
ENDBRANCH  15  16
ENDBRANCH  12  15
ENDBRANCH   1  11
BRANCH   8  26
HETATM   26  C   UNL     1     -47.139  59.069 -58.482  1.00  0.00     0.270 C 
HETATM   27  N   UNL     1     -47.628  58.541 -57.318  1.00  0.00    -0.365 N 
HETATM   28  H   UNL     1     -47.460  57.561 -57.124  1.00  0.00     0.159 HD
HETATM   29  H   UNL     1     -48.113  59.135 -56.665  1.00  0.00     0.159 HD
HETATM   30  O   UNL     1     -47.292  60.256 -58.751  1.00  0.00    -0.266 OA
ENDBRANCH   8  26
TORSDOF 6
ENDMDL
MODEL 4
REMARK VINA RESULT:      -8.1      3.959      5.757
REMARK  6 active torsions:
REMARK  status: ('A' for Active; 'I' for Inactive)
REMARK    1  A    between atoms: C_2  and  C_3 
REMARK    2  A    between atoms: C_3  and  C_4 
REMARK    3  A    between atoms: C_3  and  C_11 
REMARK    4  A    between atoms: C_11  and  C_12 
REMARK       I    between atoms: C_12  and  N_13 
REMARK    5  A    between atoms: N_13  and  C_14 
REMARK    6  A    between atoms: C_21  and  C_22 
REMARK       I    between atoms: C_22  and  N_23 
ROOT
HETATM    1  C   UNL     1     -43.443  58.585 -52.309  1.00  0.00     0.035 A 
HETATM    2  C   UNL     1     -43.979  59.450 -51.344  1.00  0.00     0.046 A 
HETATM    3  C   UNL     1     -45.132  60.207 -51.651  1.00  0.00     0.030 A 
HETATM    4  C   UNL     1     -45.696  60.086 -52.916  1.00  0.00     0.063 A 
HETATM    5  N   UNL     1     -46.772  60.927 -52.915  1.00  0.00    -0.277 N 
HETATM    6  H   UNL     1     -47.417  61.099 -53.679  1.00  0.00     0.189 HD
HETATM    7  N   UNL     1     -46.975  61.573 -51.757  1.00  0.00    -0.168 NA
HETATM    8  C   UNL     1     -45.970  61.135 -50.962  1.00  0.00     0.156 A 
HETATM    9  C   UNL     1     -45.184  59.241 -53.902  1.00  0.00     0.034 A 
HETATM   10  C   UNL     1     -44.053  58.489 -53.567  1.00  0.00     0.032 A 
ENDROOT
BRANCH   1  11
HETATM   11  N   UNL     1     -42.329  57.747 -52.081  1.00  0.00    -0.327 N 
HETATM   12  C   UNL     1     -42.335  56.439 -51.636  1.00  0.00     0.222 C 
HETATM   13  O   UNL     1     -43.324  55.815 -51.260  1.00  0.00    -0.273 OA
HETATM   14  H   UNL     1     -41.431  58.191 -52.196  1.00  0.00     0.169 HD
BRANCH  12  15
HETATM   15  C   UNL     1     -40.993  55.720 -51.748  1.00  0.00     0.112 C 
BRANCH  15  16
HETATM   16  C   UNL     1     -40.858  54.369 -51.021  1.00  0.00     0.027 C 
BRANCH  16  17
HETATM   17  C   UNL     1     -39.927  54.462 -49.789  1.00  0.00     0.005 C 
HETATM   18  C   UNL     1     -40.580  54.236 -48.432  1.00  0.00     0.006 C 
ENDBRANCH  16  17
BRANCH  16  19
HETATM   19  C   UNL     1     -40.489  53.195 -51.914  1.00  0.00    -0.053 A 
HETATM   20  C   UNL     1     -39.853  52.047 -51.427  1.00  0.00     0.008 A 
HETATM   21  C   UNL     1     -39.557  50.976 -52.277  1.00  0.00     0.007 A 
HETATM   22  C   UNL     1     -39.893  51.029 -53.632  1.00  0.00    -0.062 A 
HETATM   23  C   UNL     1     -39.545  49.887 -54.541  1.00  0.00     0.048 C 
HETATM   24  C   UNL     1     -40.511  52.177 -54.131  1.00  0.00     0.007 A 
HETATM   25  C   UNL     1     -40.815  53.244 -53.280  1.00  0.00     0.008 A 
ENDBRANCH  16  19
ENDBRANCH  15  16
ENDBRANCH  12  15
ENDBRANCH   1  11
BRANCH   8  26
HETATM   26  C   UNL     1     -45.846  61.601 -49.574  1.00  0.00     0.270 C 
HETATM   27  N   UNL     1     -45.316  62.857 -49.452  1.00  0.00    -0.365 N 
HETATM   28  H   UNL     1     -45.069  63.361 -50.295  1.00  0.00     0.159 HD
HETATM   29  H   UNL     1     -45.213  63.268 -48.539  1.00  0.00     0.159 HD
HETATM   30  O   UNL     1     -46.187  60.959 -48.586  1.00  0.00    -0.266 OA
ENDBRANCH   8  26
TORSDOF 6
ENDMDL
MODEL 5
REMARK VINA RESULT:      -8.0      1.755      3.431
REMARK  6 active torsions:
REMARK  status: ('A' for Active; 'I' for Inactive)
REMARK    1  A    between atoms: C_2  and  C_3 
REMARK    2  A    between atoms: C_3  and  C_4 
REMARK    3  A    between atoms: C_3  and  C_11 
REMARK    4  A    between atoms: C_11  and  C_12 
REMARK       I    between atoms: C_12  and  N_13 
REMARK    5  A    between atoms: N_13  and  C_14 
REMARK    6  A    between atoms: C_21  and  C_22 
REMARK       I    between atoms: C_22  and  N_23 
ROOT
HETATM    1  C   UNL     1     -42.643  55.903 -56.791  1.00  0.00     0.035 A 
HETATM    2  C   UNL     1     -43.574  55.718 -57.823  1.00  0.00     0.046 A 
HETATM    3  C   UNL     1     -44.024  56.835 -58.564  1.00  0.00     0.030 A 
HETATM    4  C   UNL     1     -43.542  58.096 -58.234  1.00  0.00     0.063 A 
HETATM    5  N   UNL     1     -44.150  58.956 -59.103  1.00  0.00    -0.277 N 
HETATM    6  H   UNL     1     -44.038  59.963 -59.150  1.00  0.00     0.189 HD
HETATM    7  N   UNL     1     -44.973  58.368 -59.985  1.00  0.00    -0.168 NA
HETATM    8  C   UNL     1     -44.903  57.054 -59.667  1.00  0.00     0.156 A 
HETATM    9  C   UNL     1     -42.622  58.317 -57.209  1.00  0.00     0.034 A 
HETATM   10  C   UNL     1     -42.177  57.194 -56.502  1.00  0.00     0.032 A 
ENDROOT
BRANCH   1  11
HETATM   11  N   UNL     1     -42.092  54.847 -56.032  1.00  0.00    -0.327 N 
HETATM   12  C   UNL     1     -42.644  54.226 -54.929  1.00  0.00     0.222 C 
HETATM   13  O   UNL     1     -43.675  54.567 -54.355  1.00  0.00    -0.273 OA
HETATM   14  H   UNL     1     -41.159  54.573 -56.297  1.00  0.00     0.169 HD
BRANCH  12  15
HETATM   15  C   UNL     1     -41.934  52.945 -54.495  1.00  0.00     0.112 C 
BRANCH  15  16
HETATM   16  C   UNL     1     -40.544  53.097 -53.850  1.00  0.00     0.027 C 
BRANCH  16  17
HETATM   17  C   UNL     1     -39.612  51.910 -54.192  1.00  0.00     0.005 C 
HETATM   18  C   UNL     1     -40.288  50.563 -54.409  1.00  0.00     0.006 C 
ENDBRANCH  16  17
BRANCH  16  19
HETATM   19  C   UNL     1     -40.557  53.388 -52.358  1.00  0.00    -0.053 A 
HETATM   20  C   UNL     1     -40.219  52.425 -51.399  1.00  0.00     0.008 A 
HETATM   21  C   UNL     1     -40.216  52.741 -50.037  1.00  0.00     0.007 A 
HETATM   22  C   UNL     1     -40.547  54.028 -49.603  1.00  0.00    -0.062 A 
HETATM   23  C   UNL     1     -40.569  54.348 -48.138  1.00  0.00     0.048 C 
HETATM   24  C   UNL     1     -40.903  54.989 -50.551  1.00  0.00     0.007 A 
HETATM   25  C   UNL     1     -40.898  54.676 -51.914  1.00  0.00     0.008 A 
ENDBRANCH  16  19
ENDBRANCH  15  16
ENDBRANCH  12  15
ENDBRANCH   1  11
BRANCH   8  26
HETATM   26  C   UNL     1     -45.661  56.051 -60.428  1.00  0.00     0.270 C 
HETATM   27  N   UNL     1     -44.879  55.191 -61.150  1.00  0.00    -0.365 N 
HETATM   28  H   UNL     1     -43.873  55.294 -61.101  1.00  0.00     0.159 HD
HETATM   29  H   UNL     1     -45.311  54.455 -61.686  1.00  0.00     0.159 HD
HETATM   30  O   UNL     1     -46.883  55.951 -60.431  1.00  0.00    -0.266 OA
ENDBRANCH   8  26
TORSDOF 6
ENDMDL
MODEL 6
REMARK VINA RESULT:      -8.0      2.970      8.736
REMARK  6 active torsions:
REMARK  status: ('A' for Active; 'I' for Inactive)
REMARK    1  A    between atoms: C_2  and  C_3 
REMARK    2  A    between atoms: C_3  and  C_4 
REMARK    3  A    between atoms: C_3  and  C_11 
REMARK    4  A    between atoms: C_11  and  C_12 
REMARK       I    between atoms: C_12  and  N_13 
REMARK    5  A    between atoms: N_13  and  C_14 
REMARK    6  A    between atoms: C_21  and  C_22 
REMARK       I    between atoms: C_22  and  N_23 
ROOT
HETATM    1  C   UNL     1     -40.885  54.534 -54.321  1.00  0.00     0.035 A 
HETATM    2  C   UNL     1     -41.099  54.584 -52.936  1.00  0.00     0.046 A 
HETATM    3  C   UNL     1     -40.691  53.499 -52.129  1.00  0.00     0.030 A 
HETATM    4  C   UNL     1     -40.102  52.396 -52.736  1.00  0.00     0.063 A 
HETATM    5  N   UNL     1     -39.827  51.526 -51.720  1.00  0.00    -0.277 N 
HETATM    6  H   UNL     1     -39.397  50.610 -51.795  1.00  0.00     0.189 HD
HETATM    7  N   UNL     1     -40.165  51.969 -50.499  1.00  0.00    -0.168 NA
HETATM    8  C   UNL     1     -40.698  53.190 -50.735  1.00  0.00     0.156 A 
HETATM    9  C   UNL     1     -39.881  52.309 -54.111  1.00  0.00     0.034 A 
HETATM   10  C   UNL     1     -40.277  53.404 -54.887  1.00  0.00     0.032 A 
ENDROOT
BRANCH   1  11
HETATM   11  N   UNL     1     -41.206  55.588 -55.205  1.00  0.00    -0.327 N 
HETATM   12  C   UNL     1     -42.351  55.731 -55.964  1.00  0.00     0.222 C 
HETATM   13  O   UNL     1     -43.246  54.897 -56.077  1.00  0.00    -0.273 OA
HETATM   14  H   UNL     1     -40.477  56.272 -55.336  1.00  0.00     0.169 HD
BRANCH  12  15
HETATM   15  C   UNL     1     -42.522  57.105 -56.609  1.00  0.00     0.112 C 
BRANCH  15  16
HETATM   16  C   UNL     1     -42.404  57.181 -58.142  1.00  0.00     0.027 C 
BRANCH  16  17
HETATM   17  C   UNL     1     -41.700  58.479 -58.608  1.00  0.00     0.005 C 
HETATM   18  C   UNL     1     -41.861  59.694 -57.704  1.00  0.00     0.006 C 
ENDBRANCH  16  17
BRANCH  16  19
HETATM   19  C   UNL     1     -43.702  56.946 -58.898  1.00  0.00    -0.053 A 
HETATM   20  C   UNL     1     -43.786  56.092 -60.004  1.00  0.00     0.008 A 
HETATM   21  C   UNL     1     -45.007  55.881 -60.654  1.00  0.00     0.007 A 
HETATM   22  C   UNL     1     -46.170  56.517 -60.211  1.00  0.00    -0.062 A 
HETATM   23  C   UNL     1     -47.467  56.306 -60.933  1.00  0.00     0.048 C 
HETATM   24  C   UNL     1     -46.091  57.385 -59.120  1.00  0.00     0.007 A 
HETATM   25  C   UNL     1     -44.873  57.590 -58.465  1.00  0.00     0.008 A 
ENDBRANCH  16  19
ENDBRANCH  15  16
ENDBRANCH  12  15
ENDBRANCH   1  11
BRANCH   8  26
HETATM   26  C   UNL     1     -41.185  54.029 -49.630  1.00  0.00     0.270 C 
HETATM   27  N   UNL     1     -40.276  54.207 -48.623  1.00  0.00    -0.365 N 
HETATM   28  H   UNL     1     -39.364  53.776 -48.712  1.00  0.00     0.159 HD
HETATM   29  H   UNL     1     -40.514  54.786 -47.833  1.00  0.00     0.159 HD
HETATM   30  O   UNL     1     -42.293  54.552 -49.583  1.00  0.00    -0.266 OA
ENDBRANCH   8  26
TORSDOF 6
ENDMDL
MODEL 7
REMARK VINA RESULT:      -7.9      3.263      5.331
REMARK  6 active torsions:
REMARK  status: ('A' for Active; 'I' for Inactive)
REMARK    1  A    between atoms: C_2  and  C_3 
REMARK    2  A    between atoms: C_3  and  C_4 
REMARK    3  A    between atoms: C_3  and  C_11 
REMARK    4  A    between atoms: C_11  and  C_12 
REMARK       I    between atoms: C_12  and  N_13 
REMARK    5  A    between atoms: N_13  and  C_14 
REMARK    6  A    between atoms: C_21  and  C_22 
REMARK       I    between atoms: C_22  and  N_23 
ROOT
HETATM    1  C   UNL     1     -41.217  57.489 -50.959  1.00  0.00     0.035 A 
HETATM    2  C   UNL     1     -42.306  57.626 -51.832  1.00  0.00     0.046 A 
HETATM    3  C   UNL     1     -42.954  58.877 -51.944  1.00  0.00     0.030 A 
HETATM    4  C   UNL     1     -42.503  59.938 -51.166  1.00  0.00     0.063 A 
HETATM    5  N   UNL     1     -43.314  60.990 -51.483  1.00  0.00    -0.277 N 
HETATM    6  H   UNL     1     -43.278  61.929 -51.102  1.00  0.00     0.189 HD
HETATM    7  N   UNL     1     -44.243  60.718 -52.413  1.00  0.00    -0.168 NA
HETATM    8  C   UNL     1     -44.031  59.415 -52.711  1.00  0.00     0.156 A 
HETATM    9  C   UNL     1     -41.429  59.834 -50.283  1.00  0.00     0.034 A 
HETATM   10  C   UNL     1     -40.791  58.590 -50.204  1.00  0.00     0.032 A 
ENDROOT
BRANCH   1  11
HETATM   11  N   UNL     1     -40.469  56.299 -50.818  1.00  0.00    -0.327 N 
HETATM   12  C   UNL     1     -40.796  55.182 -50.073  1.00  0.00     0.222 C 
HETATM   13  O   UNL     1     -41.758  55.082 -49.316  1.00  0.00    -0.273 OA
HETATM   14  H   UNL     1     -39.565  56.307 -51.263  1.00  0.00     0.169 HD
BRANCH  12  15
HETATM   15  C   UNL     1     -39.920  53.959 -50.337  1.00  0.00     0.112 C 
BRANCH  15  16
HETATM   16  C   UNL     1     -40.484  52.882 -51.283  1.00  0.00     0.027 C 
BRANCH  16  17
HETATM   17  C   UNL     1     -39.452  51.766 -51.574  1.00  0.00     0.005 C 
HETATM   18  C   UNL     1     -39.759  50.394 -50.990  1.00  0.00     0.006 C 
ENDBRANCH  16  17
BRANCH  16  19
HETATM   19  C   UNL     1     -41.108  53.415 -52.562  1.00  0.00    -0.053 A 
HETATM   20  C   UNL     1     -42.437  53.851 -52.628  1.00  0.00     0.008 A 
HETATM   21  C   UNL     1     -42.965  54.362 -53.818  1.00  0.00     0.007 A 
HETATM   22  C   UNL     1     -42.175  54.452 -54.968  1.00  0.00    -0.062 A 
HETATM   23  C   UNL     1     -42.759  54.974 -56.247  1.00  0.00     0.048 C 
HETATM   24  C   UNL     1     -40.854  54.003 -54.916  1.00  0.00     0.007 A 
HETATM   25  C   UNL     1     -40.323  53.500 -53.724  1.00  0.00     0.008 A 
ENDBRANCH  16  19
ENDBRANCH  15  16
ENDBRANCH  12  15
ENDBRANCH   1  11
BRANCH   8  26
HETATM   26  C   UNL     1     -44.848  58.728 -53.721  1.00  0.00     0.270 C 
HETATM   27  N   UNL     1     -45.622  59.566 -54.477  1.00  0.00    -0.365 N 
HETATM   28  H   UNL     1     -45.570  60.562 -54.302  1.00  0.00     0.159 HD
HETATM   29  H   UNL     1     -46.199  59.186 -55.210  1.00  0.00     0.159 HD
HETATM   30  O   UNL     1     -44.854  57.516 -53.912  1.00  0.00    -0.266 OA
ENDBRANCH   8  26
TORSDOF 6
ENDMDL
MODEL 8
REMARK VINA RESULT:      -7.9      3.700      8.483
REMARK  6 active torsions:
REMARK  status: ('A' for Active; 'I' for Inactive)
REMARK    1  A    between atoms: C_2  and  C_3 
REMARK    2  A    between atoms: C_3  and  C_4 
REMARK    3  A    between atoms: C_3  and  C_11 
REMARK    4  A    between atoms: C_11  and  C_12 
REMARK       I    between atoms: C_12  and  N_13 
REMARK    5  A    between atoms: N_13  and  C_14 
REMARK    6  A    between atoms: C_21  and  C_22 
REMARK       I    between atoms: C_22  and  N_23 
ROOT
HETATM    1  C   UNL     1     -41.004  54.456 -54.288  1.00  0.00     0.035 A 
HETATM    2  C   UNL     1     -40.554  53.130 -54.214  1.00  0.00     0.046 A 
HETATM    3  C   UNL     1     -40.260  52.565 -52.952  1.00  0.00     0.030 A 
HETATM    4  C   UNL     1     -40.410  53.350 -51.815  1.00  0.00     0.063 A 
HETATM    5  N   UNL     1     -40.053  52.545 -50.770  1.00  0.00    -0.277 N 
HETATM    6  H   UNL     1     -40.036  52.789 -49.785  1.00  0.00     0.189 HD
HETATM    7  N   UNL     1     -39.702  51.298 -51.120  1.00  0.00    -0.168 NA
HETATM    8  C   UNL     1     -39.829  51.293 -52.467  1.00  0.00     0.156 A 
HETATM    9  C   UNL     1     -40.848  54.673 -51.853  1.00  0.00     0.034 A 
HETATM   10  C   UNL     1     -41.150  55.205 -53.112  1.00  0.00     0.032 A 
ENDROOT
BRANCH   1  11
HETATM   11  N   UNL     1     -41.376  55.093 -55.493  1.00  0.00    -0.327 N 
HETATM   12  C   UNL     1     -42.560  54.952 -56.190  1.00  0.00     0.222 C 
HETATM   13  O   UNL     1     -43.457  54.156 -55.925  1.00  0.00    -0.273 OA
HETATM   14  H   UNL     1     -40.657  55.660 -55.915  1.00  0.00     0.169 HD
BRANCH  12  15
HETATM   15  C   UNL     1     -42.770  55.974 -57.306  1.00  0.00     0.112 C 
BRANCH  15  16
HETATM   16  C   UNL     1     -42.361  57.429 -57.012  1.00  0.00     0.027 C 
BRANCH  16  17
HETATM   17  C   UNL     1     -43.283  58.091 -55.960  1.00  0.00     0.005 C 
HETATM   18  C   UNL     1     -44.782  57.965 -56.203  1.00  0.00     0.006 C 
ENDBRANCH  16  17
BRANCH  16  19
HETATM   19  C   UNL     1     -42.191  58.308 -58.240  1.00  0.00    -0.053 A 
HETATM   20  C   UNL     1     -42.120  57.786 -59.538  1.00  0.00     0.008 A 
HETATM   21  C   UNL     1     -41.992  58.631 -60.644  1.00  0.00     0.007 A 
HETATM   22  C   UNL     1     -41.936  60.018 -60.478  1.00  0.00    -0.062 A 
HETATM   23  C   UNL     1     -41.770  60.914 -61.670  1.00  0.00     0.048 C 
HETATM   24  C   UNL     1     -41.989  60.547 -59.187  1.00  0.00     0.007 A 
HETATM   25  C   UNL     1     -42.124  59.702 -58.081  1.00  0.00     0.008 A 
ENDBRANCH  16  19
ENDBRANCH  15  16
ENDBRANCH  12  15
ENDBRANCH   1  11
BRANCH   8  26
HETATM   26  C   UNL     1     -39.549  50.080 -53.248  1.00  0.00     0.270 C 
HETATM   27  N   UNL     1     -39.367  48.957 -52.489  1.00  0.00    -0.365 N 
HETATM   28  H   UNL     1     -39.448  49.035 -51.482  1.00  0.00     0.159 HD
HETATM   29  H   UNL     1     -39.192  48.073 -52.939  1.00  0.00     0.159 HD
HETATM   30  O   UNL     1     -39.489  50.033 -54.473  1.00  0.00    -0.266 OA
ENDBRANCH   8  26
TORSDOF 6
ENDMDL
MODEL 9
REMARK VINA RESULT:      -7.8      3.062      7.966
REMARK  6 active torsions:
REMARK  status: ('A' for Active; 'I' for Inactive)
REMARK    1  A    between atoms: C_2  and  C_3 
REMARK    2  A    between atoms: C_3  and  C_4 
REMARK    3  A    between atoms: C_3  and  C_11 
REMARK    4  A    between atoms: C_11  and  C_12 
REMARK       I    between atoms: C_12  and  N_13 
REMARK    5  A    between atoms: N_13  and  C_14 
REMARK    6  A    between atoms: C_21  and  C_22 
REMARK       I    between atoms: C_22  and  N_23 
ROOT
HETATM    1  C   UNL     1     -40.810  54.391 -54.269  1.00  0.00     0.035 A 
HETATM    2  C   UNL     1     -41.029  54.526 -52.890  1.00  0.00     0.046 A 
HETATM    3  C   UNL     1     -40.654  53.477 -52.020  1.00  0.00     0.030 A 
HETATM    4  C   UNL     1     -40.091  52.327 -52.561  1.00  0.00     0.063 A 
HETATM    5  N   UNL     1     -39.844  51.508 -51.496  1.00  0.00    -0.277 N 
HETATM    6  H   UNL     1     -39.439  50.579 -51.517  1.00  0.00     0.189 HD
HETATM    7  N   UNL     1     -40.177  52.028 -50.304  1.00  0.00    -0.168 NA
HETATM    8  C   UNL     1     -40.676  53.248 -50.612  1.00  0.00     0.156 A 
HETATM    9  C   UNL     1     -39.866  52.157 -53.927  1.00  0.00     0.034 A 
HETATM   10  C   UNL     1     -40.229  53.216 -54.766  1.00  0.00     0.032 A 
ENDROOT
BRANCH   1  11
HETATM   11  N   UNL     1     -41.099  55.402 -55.212  1.00  0.00    -0.327 N 
HETATM   12  C   UNL     1     -42.265  55.574 -55.933  1.00  0.00     0.222 C 
HETATM   13  O   UNL     1     -43.219  54.800 -55.948  1.00  0.00    -0.273 OA
HETATM   14  H   UNL     1     -40.332  56.022 -55.422  1.00  0.00     0.169 HD
BRANCH  12  15
HETATM   15  C   UNL     1     -42.371  56.909 -56.667  1.00  0.00     0.112 C 
BRANCH  15  16
HETATM   16  C   UNL     1     -42.964  58.096 -55.884  1.00  0.00     0.027 C 
BRANCH  16  17
HETATM   17  C   UNL     1     -42.788  59.436 -56.638  1.00  0.00     0.005 C 
HETATM   18  C   UNL     1     -41.860  59.413 -57.846  1.00  0.00     0.006 C 
ENDBRANCH  16  17
BRANCH  16  19
HETATM   19  C   UNL     1     -42.506  58.202 -54.438  1.00  0.00    -0.053 A 
HETATM   20  C   UNL     1     -43.254  57.692 -53.370  1.00  0.00     0.008 A 
HETATM   21  C   UNL     1     -42.784  57.785 -52.057  1.00  0.00     0.007 A 
HETATM   22  C   UNL     1     -41.553  58.388 -51.782  1.00  0.00    -0.062 A 
HETATM   23  C   UNL     1     -41.071  58.509 -50.367  1.00  0.00     0.048 C 
HETATM   24  C   UNL     1     -40.808  58.916 -52.839  1.00  0.00     0.007 A 
HETATM   25  C   UNL     1     -41.275  58.816 -54.153  1.00  0.00     0.008 A 
ENDBRANCH  16  19
ENDBRANCH  15  16
ENDBRANCH  12  15
ENDBRANCH   1  11
BRANCH   8  26
HETATM   26  C   UNL     1     -41.145  54.160 -49.559  1.00  0.00     0.270 C 
HETATM   27  N   UNL     1     -40.467  54.043 -48.376  1.00  0.00    -0.365 N 
HETATM   28  H   UNL     1     -39.711  53.372 -48.316  1.00  0.00     0.159 HD
HETATM   29  H   UNL     1     -40.705  54.643 -47.603  1.00  0.00     0.159 HD
HETATM   30  O   UNL     1     -42.050  54.977 -49.692  1.00  0.00    -0.266 OA
ENDBRANCH   8  26
TORSDOF 6
ENDMDL
MODEL 10
REMARK VINA RESULT:      -7.8      2.388      3.189
REMARK  6 active torsions:
REMARK  status: ('A' for Active; 'I' for Inactive)
REMARK    1  A    between atoms: C_2  and  C_3 
REMARK    2  A    between atoms: C_3  and  C_4 
REMARK    3  A    between atoms: C_3  and  C_11 
REMARK    4  A    between atoms: C_11  and  C_12 
REMARK       I    between atoms: C_12  and  N_13 
REMARK    5  A    between atoms: N_13  and  C_14 
REMARK    6  A    between atoms: C_21  and  C_22 
REMARK       I    between atoms: C_22  and  N_23 
ROOT
HETATM    1  C   UNL     1     -42.691  56.402 -56.960  1.00  0.00     0.035 A 
HETATM    2  C   UNL     1     -42.317  57.748 -57.079  1.00  0.00     0.046 A 
HETATM    3  C   UNL     1     -42.387  58.381 -58.342  1.00  0.00     0.030 A 
HETATM    4  C   UNL     1     -42.810  57.640 -59.439  1.00  0.00     0.063 A 
HETATM    5  N   UNL     1     -42.769  58.504 -60.497  1.00  0.00    -0.277 N 
HETATM    6  H   UNL     1     -43.007  58.304 -61.462  1.00  0.00     0.189 HD
HETATM    7  N   UNL     1     -42.374  59.748 -60.186  1.00  0.00    -0.168 NA
HETATM    8  C   UNL     1     -42.138  59.689 -58.854  1.00  0.00     0.156 A 
HETATM    9  C   UNL     1     -43.183  56.299 -59.357  1.00  0.00     0.034 A 
HETATM   10  C   UNL     1     -43.123  55.700 -58.094  1.00  0.00     0.032 A 
ENDROOT
BRANCH   1  11
HETATM   11  N   UNL     1     -42.709  55.698 -55.735  1.00  0.00    -0.327 N 
HETATM   12  C   UNL     1     -43.398  56.027 -54.584  1.00  0.00     0.222 C 
HETATM   13  O   UNL     1     -44.035  57.062 -54.401  1.00  0.00    -0.273 OA
HETATM   14  H   UNL     1     -42.091  54.903 -55.691  1.00  0.00     0.169 HD
BRANCH  12  15
HETATM   15  C   UNL     1     -43.431  54.930 -53.523  1.00  0.00     0.112 C 
BRANCH  15  16
HETATM   16  C   UNL     1     -42.154  54.723 -52.687  1.00  0.00     0.027 C 
BRANCH  16  17
HETATM   17  C   UNL     1     -41.246  55.976 -52.693  1.00  0.00     0.005 C 
HETATM   18  C   UNL     1     -41.347  56.888 -51.477  1.00  0.00     0.006 C 
ENDBRANCH  16  17
BRANCH  16  19
HETATM   19  C   UNL     1     -41.370  53.462 -53.015  1.00  0.00    -0.053 A 
HETATM   20  C   UNL     1     -41.505  52.785 -54.233  1.00  0.00     0.008 A 
HETATM   21  C   UNL     1     -40.744  51.644 -54.507  1.00  0.00     0.007 A 
HETATM   22  C   UNL     1     -39.829  51.157 -53.570  1.00  0.00    -0.062 A 
HETATM   23  C   UNL     1     -39.038  49.916 -53.862  1.00  0.00     0.048 C 
HETATM   24  C   UNL     1     -39.701  51.815 -52.345  1.00  0.00     0.007 A 
HETATM   25  C   UNL     1     -40.455  52.960 -52.074  1.00  0.00     0.008 A 
ENDBRANCH  16  19
ENDBRANCH  15  16
ENDBRANCH  12  15
ENDBRANCH   1  11
BRANCH   8  26
HETATM   26  C   UNL     1     -41.697  60.878 -58.111  1.00  0.00     0.270 C 
HETATM   27  N   UNL     1     -42.721  61.644 -57.624  1.00  0.00    -0.365 N 
HETATM   28  H   UNL     1     -43.673  61.342 -57.792  1.00  0.00     0.159 HD
HETATM   29  H   UNL     1     -42.513  62.468 -57.083  1.00  0.00     0.159 HD
HETATM   30  O   UNL     1     -40.526  61.186 -57.912  1.00  0.00    -0.266 OA
ENDBRANCH   8  26
TORSDOF 6
ENDMDL
