MODEL 1
REMARK VINA RESULT:      -9.5      0.000      0.000
REMARK  3 active torsions:
REMARK  status: ('A' for Active; 'I' for Inactive)
REMARK    1  A    between atoms: C_2  and  C_3 
REMARK    2  A    between atoms: C_18  and  C_19 
REMARK    3  A    between atoms: C_22  and  O_23 
ROOT
HETATM    1  C   UNL     1     -42.247  58.841 -54.081  1.00  0.00     0.060 C 
HETATM    2  C   UNL     1     -43.006  57.479 -54.014  1.00  0.00     0.210 C 
HETATM    3  N   UNL     1     -44.445  57.701 -53.714  1.00  0.00     0.110 N 
HETATM    4  C   UNL     1     -44.815  58.565 -52.586  1.00  0.00     0.367 C 
HETATM    5  C   UNL     1     -44.401  57.941 -51.258  1.00  0.00     0.230 C 
HETATM    6  O   UNL     1     -45.189  57.354 -50.522  1.00  0.00    -0.278 OA
HETATM    7  N   UNL     1     -43.029  57.988 -51.032  1.00  0.00    -0.227 NA
HETATM    8  C   UNL     1     -42.351  56.861 -51.562  1.00  0.00     0.024 A 
HETATM    9  C   UNL     1     -42.378  56.536 -52.938  1.00  0.00     0.007 A 
HETATM   10  C   UNL     1     -41.745  56.030 -50.616  1.00  0.00     0.025 A 
HETATM   11  C   UNL     1     -41.175  54.822 -51.007  1.00  0.00     0.014 A 
HETATM   12  C   UNL     1     -41.236  54.403 -52.340  1.00  0.00    -0.025 A 
HETATM   13  C   UNL     1     -41.850  55.265 -53.278  1.00  0.00     0.024 A 
HETATM   14  H   UNL     1     -44.871  56.783 -53.564  1.00  0.00     0.318 HD
HETATM   15  H   UNL     1     -42.652  58.830 -51.443  1.00  0.00     0.136 HD
ENDROOT
BRANCH  12  16
HETATM   16  C   UNL     1     -40.683  53.093 -52.745  1.00  0.00    -0.026 A 
HETATM   17  C   UNL     1     -40.853  52.609 -54.057  1.00  0.00     0.015 A 
HETATM   18  C   UNL     1     -40.354  51.361 -54.444  1.00  0.00     0.037 A 
HETATM   19  C   UNL     1     -39.671  50.583 -53.518  1.00  0.00     0.065 A 
HETATM   20  C   UNL     1     -39.479  51.035 -52.220  1.00  0.00     0.037 A 
HETATM   21  C   UNL     1     -39.982  52.281 -51.836  1.00  0.00     0.015 A 
BRANCH  19  22
HETATM   22  O   UNL     1     -39.171  49.359 -53.849  1.00  0.00    -0.361 OA
HETATM   23  H   UNL     1     -39.827  48.683 -53.613  1.00  0.00     0.217 HD
ENDBRANCH  19  22
ENDBRANCH  12  16
BRANCH   2  24
HETATM   24  C   UNL     1     -42.888  56.924 -55.483  1.00  0.00    -0.016 A 
HETATM   25  C   UNL     1     -42.570  57.785 -56.561  1.00  0.00     0.010 A 
HETATM   26  C   UNL     1     -42.499  57.318 -57.877  1.00  0.00     0.001 A 
HETATM   27  C   UNL     1     -42.754  55.981 -58.156  1.00  0.00     0.000 A 
HETATM   28  C   UNL     1     -43.073  55.110 -57.120  1.00  0.00     0.001 A 
HETATM   29  C   UNL     1     -43.139  55.574 -55.802  1.00  0.00     0.010 A 
ENDBRANCH   2  24
TORSDOF 3
ENDMDL
MODEL 2
REMARK VINA RESULT:      -9.1      2.419      4.487
REMARK  3 active torsions:
REMARK  status: ('A' for Active; 'I' for Inactive)
REMARK    1  A    between atoms: C_2  and  C_3 
REMARK    2  A    between atoms: C_18  and  C_19 
REMARK    3  A    between atoms: C_22  and  O_23 
ROOT
HETATM    1  C   UNL     1     -43.771  58.729 -53.731  1.00  0.00     0.060 C 
HETATM    2  C   UNL     1     -42.371  58.170 -54.135  1.00  0.00     0.210 C 
HETATM    3  N   UNL     1     -41.807  58.952 -55.268  1.00  0.00     0.110 N 
HETATM    4  C   UNL     1     -42.640  59.194 -56.453  1.00  0.00     0.367 C 
HETATM    5  C   UNL     1     -42.926  57.895 -57.197  1.00  0.00     0.230 C 
HETATM    6  O   UNL     1     -42.320  57.558 -58.210  1.00  0.00    -0.278 OA
HETATM    7  N   UNL     1     -43.842  57.076 -56.542  1.00  0.00    -0.227 NA
HETATM    8  C   UNL     1     -43.223  56.197 -55.619  1.00  0.00     0.024 A 
HETATM    9  C   UNL     1     -42.456  56.659 -54.525  1.00  0.00     0.007 A 
HETATM   10  C   UNL     1     -43.328  54.838 -55.928  1.00  0.00     0.025 A 
HETATM   11  C   UNL     1     -42.641  53.892 -55.174  1.00  0.00     0.014 A 
HETATM   12  C   UNL     1     -41.803  54.288 -54.126  1.00  0.00    -0.025 A 
HETATM   13  C   UNL     1     -41.719  55.668 -53.831  1.00  0.00     0.024 A 
HETATM   14  H   UNL     1     -40.952  58.479 -55.571  1.00  0.00     0.318 HD
HETATM   15  H   UNL     1     -44.515  57.653 -56.057  1.00  0.00     0.136 HD
ENDROOT
BRANCH  12  16
HETATM   16  C   UNL     1     -41.026  53.288 -53.363  1.00  0.00    -0.026 A 
HETATM   17  C   UNL     1     -40.429  52.188 -54.008  1.00  0.00     0.015 A 
HETATM   18  C   UNL     1     -39.711  51.224 -53.292  1.00  0.00     0.037 A 
HETATM   19  C   UNL     1     -39.578  51.356 -51.916  1.00  0.00     0.065 A 
HETATM   20  C   UNL     1     -40.147  52.432 -51.251  1.00  0.00     0.037 A 
HETATM   21  C   UNL     1     -40.867  53.392 -51.970  1.00  0.00     0.015 A 
BRANCH  19  22
HETATM   22  O   UNL     1     -38.892  50.439 -51.177  1.00  0.00    -0.361 OA
HETATM   23  H   UNL     1     -39.439  50.181 -50.418  1.00  0.00     0.217 HD
ENDBRANCH  19  22
ENDBRANCH  12  16
BRANCH   2  24
HETATM   24  C   UNL     1     -41.488  58.443 -52.860  1.00  0.00    -0.016 A 
HETATM   25  C   UNL     1     -42.050  58.381 -51.562  1.00  0.00     0.010 A 
HETATM   26  C   UNL     1     -41.292  58.658 -50.421  1.00  0.00     0.001 A 
HETATM   27  C   UNL     1     -39.954  59.014 -50.543  1.00  0.00     0.000 A 
HETATM   28  C   UNL     1     -39.373  59.087 -51.804  1.00  0.00     0.001 A 
HETATM   29  C   UNL     1     -40.129  58.805 -52.947  1.00  0.00     0.010 A 
ENDBRANCH   2  24
TORSDOF 3
ENDMDL
MODEL 3
REMARK VINA RESULT:      -8.8      3.163      6.180
REMARK  3 active torsions:
REMARK  status: ('A' for Active; 'I' for Inactive)
REMARK    1  A    between atoms: C_2  and  C_3 
REMARK    2  A    between atoms: C_18  and  C_19 
REMARK    3  A    between atoms: C_22  and  O_23 
ROOT
HETATM    1  C   UNL     1     -43.165  56.525 -52.204  1.00  0.00     0.060 C 
HETATM    2  C   UNL     1     -42.376  56.912 -53.494  1.00  0.00     0.210 C 
HETATM    3  N   UNL     1     -41.276  57.858 -53.165  1.00  0.00     0.110 N 
HETATM    4  C   UNL     1     -41.574  59.045 -52.353  1.00  0.00     0.367 C 
HETATM    5  C   UNL     1     -42.484  60.009 -53.105  1.00  0.00     0.230 C 
HETATM    6  O   UNL     1     -42.068  61.017 -53.670  1.00  0.00    -0.278 OA
HETATM    7  N   UNL     1     -43.799  59.565 -53.199  1.00  0.00    -0.227 NA
HETATM    8  C   UNL     1     -44.021  58.756 -54.341  1.00  0.00     0.024 A 
HETATM    9  C   UNL     1     -43.321  57.547 -54.564  1.00  0.00     0.007 A 
HETATM   10  C   UNL     1     -44.899  59.289 -55.289  1.00  0.00     0.025 A 
HETATM   11  C   UNL     1     -45.082  58.651 -56.511  1.00  0.00     0.014 A 
HETATM   12  C   UNL     1     -44.361  57.494 -56.828  1.00  0.00    -0.025 A 
HETATM   13  C   UNL     1     -43.484  56.973 -55.849  1.00  0.00     0.024 A 
HETATM   14  H   UNL     1     -40.868  58.171 -54.049  1.00  0.00     0.318 HD
HETATM   15  H   UNL     1     -44.034  59.043 -52.366  1.00  0.00     0.136 HD
ENDROOT
BRANCH  12  16
HETATM   16  C   UNL     1     -44.511  56.851 -58.150  1.00  0.00    -0.026 A 
HETATM   17  C   UNL     1     -43.589  55.882 -58.593  1.00  0.00     0.015 A 
HETATM   18  C   UNL     1     -43.708  55.283 -59.851  1.00  0.00     0.037 A 
HETATM   19  C   UNL     1     -44.760  55.646 -60.681  1.00  0.00     0.065 A 
HETATM   20  C   UNL     1     -45.691  56.591 -60.272  1.00  0.00     0.037 A 
HETATM   21  C   UNL     1     -45.566  57.189 -59.015  1.00  0.00     0.015 A 
BRANCH  19  22
HETATM   22  O   UNL     1     -44.914  55.092 -61.918  1.00  0.00    -0.361 OA
HETATM   23  H   UNL     1     -45.787  54.671 -61.961  1.00  0.00     0.217 HD
ENDBRANCH  19  22
ENDBRANCH  12  16
BRANCH   2  24
HETATM   24  C   UNL     1     -41.734  55.549 -53.951  1.00  0.00    -0.016 A 
HETATM   25  C   UNL     1     -42.303  54.312 -53.562  1.00  0.00     0.010 A 
HETATM   26  C   UNL     1     -41.725  53.092 -53.926  1.00  0.00     0.001 A 
HETATM   27  C   UNL     1     -40.558  53.072 -54.679  1.00  0.00     0.000 A 
HETATM   28  C   UNL     1     -39.971  54.269 -55.074  1.00  0.00     0.001 A 
HETATM   29  C   UNL     1     -40.551  55.491 -54.715  1.00  0.00     0.010 A 
ENDBRANCH   2  24
TORSDOF 3
ENDMDL
MODEL 4
REMARK VINA RESULT:      -8.5      2.346      3.347
REMARK  3 active torsions:
REMARK  status: ('A' for Active; 'I' for Inactive)
REMARK    1  A    between atoms: C_2  and  C_3 
REMARK    2  A    between atoms: C_18  and  C_19 
REMARK    3  A    between atoms: C_22  and  O_23 
ROOT
HETATM    1  C   UNL     1     -41.665  60.300 -57.510  1.00  0.00     0.060 C 
HETATM    2  C   UNL     1     -42.623  59.268 -56.837  1.00  0.00     0.210 C 
HETATM    3  N   UNL     1     -43.962  59.875 -56.610  1.00  0.00     0.110 N 
HETATM    4  C   UNL     1     -44.050  61.184 -55.950  1.00  0.00     0.367 C 
HETATM    5  C   UNL     1     -43.592  61.099 -54.499  1.00  0.00     0.230 C 
HETATM    6  O   UNL     1     -44.373  61.040 -53.554  1.00  0.00    -0.278 OA
HETATM    7  N   UNL     1     -42.213  60.962 -54.364  1.00  0.00    -0.227 NA
HETATM    8  C   UNL     1     -41.796  59.608 -54.383  1.00  0.00     0.024 A 
HETATM    9  C   UNL     1     -42.037  58.753 -55.483  1.00  0.00     0.007 A 
HETATM   10  C   UNL     1     -41.228  59.142 -53.194  1.00  0.00     0.025 A 
HETATM   11  C   UNL     1     -40.913  57.795 -53.048  1.00  0.00     0.014 A 
HETATM   12  C   UNL     1     -41.198  56.881 -54.068  1.00  0.00    -0.025 A 
HETATM   13  C   UNL     1     -41.768  57.379 -55.262  1.00  0.00     0.024 A 
HETATM   14  H   UNL     1     -44.512  59.207 -56.064  1.00  0.00     0.318 HD
HETATM   15  H   UNL     1     -41.754  61.465 -55.111  1.00  0.00     0.136 HD
ENDROOT
BRANCH  12  16
HETATM   16  C   UNL     1     -40.919  55.441 -53.890  1.00  0.00    -0.026 A 
HETATM   17  C   UNL     1     -41.097  54.817 -52.640  1.00  0.00     0.015 A 
HETATM   18  C   UNL     1     -40.814  53.460 -52.455  1.00  0.00     0.037 A 
HETATM   19  C   UNL     1     -40.352  52.708 -53.527  1.00  0.00     0.065 A 
HETATM   20  C   UNL     1     -40.174  53.290 -54.775  1.00  0.00     0.037 A 
HETATM   21  C   UNL     1     -40.455  54.648 -54.954  1.00  0.00     0.015 A 
BRANCH  19  22
HETATM   22  O   UNL     1     -40.059  51.383 -53.393  1.00  0.00    -0.361 OA
HETATM   23  H   UNL     1     -39.141  51.240 -53.674  1.00  0.00     0.217 HD
ENDBRANCH  19  22
ENDBRANCH  12  16
BRANCH   2  24
HETATM   24  C   UNL     1     -42.771  58.142 -57.928  1.00  0.00    -0.016 A 
HETATM   25  C   UNL     1     -42.031  58.199 -59.133  1.00  0.00     0.010 A 
HETATM   26  C   UNL     1     -42.178  57.229 -60.130  1.00  0.00     0.001 A 
HETATM   27  C   UNL     1     -43.074  56.182 -59.956  1.00  0.00     0.000 A 
HETATM   28  C   UNL     1     -43.819  56.100 -58.785  1.00  0.00     0.001 A 
HETATM   29  C   UNL     1     -43.670  57.066 -57.784  1.00  0.00     0.010 A 
ENDBRANCH   2  24
TORSDOF 3
ENDMDL
MODEL 5
REMARK VINA RESULT:      -8.3      2.533      5.674
REMARK  3 active torsions:
REMARK  status: ('A' for Active; 'I' for Inactive)
REMARK    1  A    between atoms: C_2  and  C_3 
REMARK    2  A    between atoms: C_18  and  C_19 
REMARK    3  A    between atoms: C_22  and  O_23 
ROOT
HETATM    1  C   UNL     1     -42.966  54.448 -50.951  1.00  0.00     0.060 C 
HETATM    2  C   UNL     1     -41.992  55.130 -51.963  1.00  0.00     0.210 C 
HETATM    3  N   UNL     1     -40.878  55.799 -51.241  1.00  0.00     0.110 N 
HETATM    4  C   UNL     1     -41.190  56.699 -50.123  1.00  0.00     0.367 C 
HETATM    5  C   UNL     1     -41.923  57.943 -50.608  1.00  0.00     0.230 C 
HETATM    6  O   UNL     1     -41.366  59.025 -50.773  1.00  0.00    -0.278 OA
HETATM    7  N   UNL     1     -43.245  57.697 -50.968  1.00  0.00    -0.227 NA
HETATM    8  C   UNL     1     -43.377  57.315 -52.326  1.00  0.00     0.024 A 
HETATM    9  C   UNL     1     -42.744  56.167 -52.858  1.00  0.00     0.007 A 
HETATM   10  C   UNL     1     -44.086  58.210 -53.132  1.00  0.00     0.025 A 
HETATM   11  C   UNL     1     -44.157  58.010 -54.507  1.00  0.00     0.014 A 
HETATM   12  C   UNL     1     -43.488  56.938 -55.108  1.00  0.00    -0.025 A 
HETATM   13  C   UNL     1     -42.783  56.045 -54.269  1.00  0.00     0.024 A 
HETATM   14  H   UNL     1     -40.339  56.326 -51.932  1.00  0.00     0.318 HD
HETATM   15  H   UNL     1     -43.621  56.970 -50.376  1.00  0.00     0.136 HD
ENDROOT
BRANCH  12  16
HETATM   16  C   UNL     1     -43.514  56.760 -56.575  1.00  0.00    -0.026 A 
HETATM   17  C   UNL     1     -44.112  57.722 -57.412  1.00  0.00     0.015 A 
HETATM   18  C   UNL     1     -44.162  57.552 -58.799  1.00  0.00     0.037 A 
HETATM   19  C   UNL     1     -43.606  56.413 -59.366  1.00  0.00     0.065 A 
HETATM   20  C   UNL     1     -43.001  55.450 -58.571  1.00  0.00     0.037 A 
HETATM   21  C   UNL     1     -42.956  55.622 -57.184  1.00  0.00     0.015 A 
BRANCH  19  22
HETATM   22  O   UNL     1     -43.635  56.203 -60.713  1.00  0.00    -0.361 OA
HETATM   23  H   UNL     1     -44.060  56.967 -61.136  1.00  0.00     0.217 HD
ENDBRANCH  19  22
ENDBRANCH  12  16
BRANCH   2  24
HETATM   24  C   UNL     1     -41.398  53.916 -52.771  1.00  0.00    -0.016 A 
HETATM   25  C   UNL     1     -41.971  53.512 -54.001  1.00  0.00     0.010 A 
HETATM   26  C   UNL     1     -41.482  52.413 -54.713  1.00  0.00     0.001 A 
HETATM   27  C   UNL     1     -40.413  51.679 -54.213  1.00  0.00     0.000 A 
HETATM   28  C   UNL     1     -39.830  52.047 -53.005  1.00  0.00     0.001 A 
HETATM   29  C   UNL     1     -40.315  53.150 -52.294  1.00  0.00     0.010 A 
ENDBRANCH   2  24
TORSDOF 3
ENDMDL
MODEL 6
REMARK VINA RESULT:      -7.9      2.637      4.920
REMARK  3 active torsions:
REMARK  status: ('A' for Active; 'I' for Inactive)
REMARK    1  A    between atoms: C_2  and  C_3 
REMARK    2  A    between atoms: C_18  and  C_19 
REMARK    3  A    between atoms: C_22  and  O_23 
ROOT
HETATM    1  C   UNL     1     -45.140  59.023 -55.436  1.00  0.00     0.060 C 
HETATM    2  C   UNL     1     -43.627  58.802 -55.125  1.00  0.00     0.210 C 
HETATM    3  N   UNL     1     -42.789  59.703 -55.960  1.00  0.00     0.110 N 
HETATM    4  C   UNL     1     -43.026  59.761 -57.408  1.00  0.00     0.367 C 
HETATM    5  C   UNL     1     -42.669  58.438 -58.075  1.00  0.00     0.230 C 
HETATM    6  O   UNL     1     -41.616  58.258 -58.680  1.00  0.00    -0.278 OA
HETATM    7  N   UNL     1     -43.590  57.426 -57.819  1.00  0.00    -0.227 NA
HETATM    8  C   UNL     1     -43.287  56.702 -56.639  1.00  0.00     0.024 A 
HETATM    9  C   UNL     1     -43.212  57.316 -55.368  1.00  0.00     0.007 A 
HETATM   10  C   UNL     1     -42.957  55.357 -56.833  1.00  0.00     0.025 A 
HETATM   11  C   UNL     1     -42.505  54.586 -55.767  1.00  0.00     0.014 A 
HETATM   12  C   UNL     1     -42.333  55.151 -54.499  1.00  0.00    -0.025 A 
HETATM   13  C   UNL     1     -42.679  56.512 -54.329  1.00  0.00     0.024 A 
HETATM   14  H   UNL     1     -41.812  59.440 -55.808  1.00  0.00     0.318 HD
HETATM   15  H   UNL     1     -44.513  57.829 -57.738  1.00  0.00     0.136 HD
ENDROOT
BRANCH  12  16
HETATM   16  C   UNL     1     -41.796  54.348 -53.381  1.00  0.00    -0.026 A 
HETATM   17  C   UNL     1     -42.314  54.481 -52.078  1.00  0.00     0.015 A 
HETATM   18  C   UNL     1     -41.798  53.742 -51.009  1.00  0.00     0.037 A 
HETATM   19  C   UNL     1     -40.755  52.853 -51.235  1.00  0.00     0.065 A 
HETATM   20  C   UNL     1     -40.228  52.691 -52.508  1.00  0.00     0.037 A 
HETATM   21  C   UNL     1     -40.745  53.435 -53.574  1.00  0.00     0.015 A 
BRANCH  19  22
HETATM   22  O   UNL     1     -40.218  52.115 -50.223  1.00  0.00    -0.361 OA
HETATM   23  H   UNL     1     -40.312  52.612 -49.394  1.00  0.00     0.217 HD
ENDBRANCH  19  22
ENDBRANCH  12  16
BRANCH   2  24
HETATM   24  C   UNL     1     -43.493  59.256 -53.623  1.00  0.00    -0.016 A 
HETATM   25  C   UNL     1     -42.313  59.882 -53.156  1.00  0.00     0.010 A 
HETATM   26  C   UNL     1     -42.161  60.257 -51.818  1.00  0.00     0.001 A 
HETATM   27  C   UNL     1     -43.179  60.009 -50.905  1.00  0.00     0.000 A 
HETATM   28  C   UNL     1     -44.350  59.392 -51.331  1.00  0.00     0.001 A 
HETATM   29  C   UNL     1     -44.506  59.021 -52.671  1.00  0.00     0.010 A 
ENDBRANCH   2  24
TORSDOF 3
ENDMDL
MODEL 7
REMARK VINA RESULT:      -7.7      3.670      7.111
REMARK  3 active torsions:
REMARK  status: ('A' for Active; 'I' for Inactive)
REMARK    1  A    between atoms: C_2  and  C_3 
REMARK    2  A    between atoms: C_18  and  C_19 
REMARK    3  A    between atoms: C_22  and  O_23 
ROOT
HETATM    1  C   UNL     1     -41.980  57.089 -58.007  1.00  0.00     0.060 C 
HETATM    2  C   UNL     1     -43.187  56.521 -57.196  1.00  0.00     0.210 C 
HETATM    3  N   UNL     1     -44.015  55.632 -58.053  1.00  0.00     0.110 N 
HETATM    4  C   UNL     1     -44.445  56.110 -59.374  1.00  0.00     0.367 C 
HETATM    5  C   UNL     1     -45.422  57.272 -59.244  1.00  0.00     0.230 C 
HETATM    6  O   UNL     1     -46.637  57.139 -59.362  1.00  0.00    -0.278 OA
HETATM    7  N   UNL     1     -44.815  58.461 -58.851  1.00  0.00    -0.227 NA
HETATM    8  C   UNL     1     -44.750  58.599 -57.443  1.00  0.00     0.024 A 
HETATM    9  C   UNL     1     -44.070  57.673 -56.618  1.00  0.00     0.007 A 
HETATM   10  C   UNL     1     -45.498  59.653 -56.911  1.00  0.00     0.025 A 
HETATM   11  C   UNL     1     -45.624  59.799 -55.534  1.00  0.00     0.014 A 
HETATM   12  C   UNL     1     -45.042  58.873 -54.662  1.00  0.00    -0.025 A 
HETATM   13  C   UNL     1     -44.286  57.819 -55.225  1.00  0.00     0.024 A 
HETATM   14  H   UNL     1     -44.850  55.382 -57.518  1.00  0.00     0.318 HD
HETATM   15  H   UNL     1     -43.881  58.500 -59.236  1.00  0.00     0.136 HD
ENDROOT
BRANCH  12  16
HETATM   16  C   UNL     1     -45.226  58.994 -53.200  1.00  0.00    -0.026 A 
HETATM   17  C   UNL     1     -44.756  57.994 -52.326  1.00  0.00     0.015 A 
HETATM   18  C   UNL     1     -44.945  58.087 -50.943  1.00  0.00     0.037 A 
HETATM   19  C   UNL     1     -45.605  59.191 -50.418  1.00  0.00     0.065 A 
HETATM   20  C   UNL     1     -46.072  60.198 -51.251  1.00  0.00     0.037 A 
HETATM   21  C   UNL     1     -45.884  60.099 -52.633  1.00  0.00     0.015 A 
BRANCH  19  22
HETATM   22  O   UNL     1     -45.815  59.322 -49.078  1.00  0.00    -0.361 OA
HETATM   23  H   UNL     1     -46.311  58.548 -48.765  1.00  0.00     0.217 HD
ENDBRANCH  19  22
ENDBRANCH  12  16
BRANCH   2  24
HETATM   24  C   UNL     1     -42.499  55.638 -56.089  1.00  0.00    -0.016 A 
HETATM   25  C   UNL     1     -41.310  56.068 -55.453  1.00  0.00     0.010 A 
HETATM   26  C   UNL     1     -40.664  55.281 -54.495  1.00  0.00     0.001 A 
HETATM   27  C   UNL     1     -41.181  54.037 -54.152  1.00  0.00     0.000 A 
HETATM   28  C   UNL     1     -42.346  53.584 -54.762  1.00  0.00     0.001 A 
HETATM   29  C   UNL     1     -42.996  54.373 -55.716  1.00  0.00     0.010 A 
ENDBRANCH   2  24
TORSDOF 3
ENDMDL
MODEL 8
REMARK VINA RESULT:      -7.7      2.728      5.855
REMARK  3 active torsions:
REMARK  status: ('A' for Active; 'I' for Inactive)
REMARK    1  A    between atoms: C_2  and  C_3 
REMARK    2  A    between atoms: C_18  and  C_19 
REMARK    3  A    between atoms: C_22  and  O_23 
ROOT
HETATM    1  C   UNL     1     -40.672  58.045 -51.432  1.00  0.00     0.060 C 
HETATM    2  C   UNL     1     -42.027  57.536 -52.015  1.00  0.00     0.210 C 
HETATM    3  N   UNL     1     -42.813  56.835 -50.965  1.00  0.00     0.110 N 
HETATM    4  C   UNL     1     -42.161  55.794 -50.160  1.00  0.00     0.367 C 
HETATM    5  C   UNL     1     -41.800  54.585 -51.015  1.00  0.00     0.230 C 
HETATM    6  O   UNL     1     -42.471  53.558 -51.037  1.00  0.00    -0.278 OA
HETATM    7  N   UNL     1     -40.718  54.813 -51.860  1.00  0.00    -0.227 NA
HETATM    8  C   UNL     1     -41.108  55.351 -53.112  1.00  0.00     0.024 A 
HETATM    9  C   UNL     1     -41.795  56.581 -53.230  1.00  0.00     0.007 A 
HETATM   10  C   UNL     1     -40.867  54.528 -54.216  1.00  0.00     0.025 A 
HETATM   11  C   UNL     1     -41.336  54.889 -55.475  1.00  0.00     0.014 A 
HETATM   12  C   UNL     1     -42.090  56.055 -55.648  1.00  0.00    -0.025 A 
HETATM   13  C   UNL     1     -42.315  56.871 -54.516  1.00  0.00     0.024 A 
HETATM   14  H   UNL     1     -43.630  56.420 -51.420  1.00  0.00     0.318 HD
HETATM   15  H   UNL     1     -40.071  55.445 -51.410  1.00  0.00     0.136 HD
ENDROOT
BRANCH  12  16
HETATM   16  C   UNL     1     -42.639  56.408 -56.974  1.00  0.00    -0.026 A 
HETATM   17  C   UNL     1     -43.206  55.425 -57.809  1.00  0.00     0.015 A 
HETATM   18  C   UNL     1     -43.708  55.745 -59.075  1.00  0.00     0.037 A 
HETATM   19  C   UNL     1     -43.652  57.060 -59.518  1.00  0.00     0.065 A 
HETATM   20  C   UNL     1     -43.109  58.054 -58.716  1.00  0.00     0.037 A 
HETATM   21  C   UNL     1     -42.605  57.729 -57.453  1.00  0.00     0.015 A 
BRANCH  19  22
HETATM   22  O   UNL     1     -44.125  57.417 -60.745  1.00  0.00    -0.361 OA
HETATM   23  H   UNL     1     -44.170  56.623 -61.302  1.00  0.00     0.217 HD
ENDBRANCH  19  22
ENDBRANCH  12  16
BRANCH   2  24
HETATM   24  C   UNL     1     -42.783  58.864 -52.393  1.00  0.00    -0.016 A 
HETATM   25  C   UNL     1     -44.193  58.947 -52.302  1.00  0.00     0.010 A 
HETATM   26  C   UNL     1     -44.885  60.105 -52.670  1.00  0.00     0.001 A 
HETATM   27  C   UNL     1     -44.190  61.209 -53.150  1.00  0.00     0.000 A 
HETATM   28  C   UNL     1     -42.805  61.158 -53.255  1.00  0.00     0.001 A 
HETATM   29  C   UNL     1     -42.110  60.002 -52.882  1.00  0.00     0.010 A 
ENDBRANCH   2  24
TORSDOF 3
ENDMDL
MODEL 9
REMARK VINA RESULT:      -7.5      2.822      6.018
REMARK  3 active torsions:
REMARK  status: ('A' for Active; 'I' for Inactive)
REMARK    1  A    between atoms: C_2  and  C_3 
REMARK    2  A    between atoms: C_18  and  C_19 
REMARK    3  A    between atoms: C_22  and  O_23 
ROOT
HETATM    1  C   UNL     1     -40.682  58.233 -52.165  1.00  0.00     0.060 C 
HETATM    2  C   UNL     1     -42.112  57.753 -52.563  1.00  0.00     0.210 C 
HETATM    3  N   UNL     1     -42.794  57.129 -51.398  1.00  0.00     0.110 N 
HETATM    4  C   UNL     1     -42.088  56.098 -50.626  1.00  0.00     0.367 C 
HETATM    5  C   UNL     1     -41.871  54.841 -51.461  1.00  0.00     0.230 C 
HETATM    6  O   UNL     1     -42.575  53.841 -51.357  1.00  0.00    -0.278 OA
HETATM    7  N   UNL     1     -40.888  54.990 -52.435  1.00  0.00    -0.227 NA
HETATM    8  C   UNL     1     -41.404  55.490 -53.657  1.00  0.00     0.024 A 
HETATM    9  C   UNL     1     -42.057  56.740 -53.751  1.00  0.00     0.007 A 
HETATM   10  C   UNL     1     -41.322  54.613 -54.742  1.00  0.00     0.025 A 
HETATM   11  C   UNL     1     -41.923  54.939 -55.953  1.00  0.00     0.014 A 
HETATM   12  C   UNL     1     -42.652  56.125 -56.092  1.00  0.00    -0.025 A 
HETATM   13  C   UNL     1     -42.715  56.997 -54.981  1.00  0.00     0.024 A 
HETATM   14  H   UNL     1     -43.672  56.728 -51.736  1.00  0.00     0.318 HD
HETATM   15  H   UNL     1     -40.172  55.615 -52.092  1.00  0.00     0.136 HD
ENDROOT
BRANCH  12  16
HETATM   16  C   UNL     1     -43.340  56.444 -57.360  1.00  0.00    -0.026 A 
HETATM   17  C   UNL     1     -43.182  55.627 -58.496  1.00  0.00     0.015 A 
HETATM   18  C   UNL     1     -43.811  55.931 -59.708  1.00  0.00     0.037 A 
HETATM   19  C   UNL     1     -44.614  57.061 -59.793  1.00  0.00     0.065 A 
HETATM   20  C   UNL     1     -44.799  57.882 -58.690  1.00  0.00     0.037 A 
HETATM   21  C   UNL     1     -44.165  57.576 -57.482  1.00  0.00     0.015 A 
BRANCH  19  22
HETATM   22  O   UNL     1     -45.243  57.400 -60.954  1.00  0.00    -0.361 OA
HETATM   23  H   UNL     1     -45.562  56.588 -61.381  1.00  0.00     0.217 HD
ENDBRANCH  19  22
ENDBRANCH  12  16
BRANCH   2  24
HETATM   24  C   UNL     1     -42.862  59.094 -52.913  1.00  0.00    -0.016 A 
HETATM   25  C   UNL     1     -42.172  60.177 -53.508  1.00  0.00     0.010 A 
HETATM   26  C   UNL     1     -42.811  61.388 -53.790  1.00  0.00     0.001 A 
HETATM   27  C   UNL     1     -44.155  61.555 -53.476  1.00  0.00     0.000 A 
HETATM   28  C   UNL     1     -44.860  60.512 -52.887  1.00  0.00     0.001 A 
HETATM   29  C   UNL     1     -44.223  59.298 -52.609  1.00  0.00     0.010 A 
ENDBRANCH   2  24
TORSDOF 3
ENDMDL
MODEL 10
REMARK VINA RESULT:      -7.3      3.127      7.195
REMARK  3 active torsions:
REMARK  status: ('A' for Active; 'I' for Inactive)
REMARK    1  A    between atoms: C_2  and  C_3 
REMARK    2  A    between atoms: C_18  and  C_19 
REMARK    3  A    between atoms: C_22  and  O_23 
ROOT
HETATM    1  C   UNL     1     -40.573  55.278 -55.077  1.00  0.00     0.060 C 
HETATM    2  C   UNL     1     -42.037  55.579 -54.628  1.00  0.00     0.210 C 
HETATM    3  N   UNL     1     -43.006  54.894 -55.524  1.00  0.00     0.110 N 
HETATM    4  C   UNL     1     -42.860  55.040 -56.978  1.00  0.00     0.367 C 
HETATM    5  C   UNL     1     -43.126  56.476 -57.414  1.00  0.00     0.230 C 
HETATM    6  O   UNL     1     -44.191  56.838 -57.907  1.00  0.00    -0.278 OA
HETATM    7  N   UNL     1     -42.099  57.352 -57.077  1.00  0.00    -0.227 NA
HETATM    8  C   UNL     1     -42.261  57.910 -55.785  1.00  0.00     0.024 A 
HETATM    9  C   UNL     1     -42.320  57.115 -54.616  1.00  0.00     0.007 A 
HETATM   10  C   UNL     1     -42.470  59.291 -55.752  1.00  0.00     0.025 A 
HETATM   11  C   UNL     1     -42.782  59.925 -54.554  1.00  0.00     0.014 A 
HETATM   12  C   UNL     1     -42.933  59.188 -53.375  1.00  0.00    -0.025 A 
HETATM   13  C   UNL     1     -42.711  57.793 -53.434  1.00  0.00     0.024 A 
HETATM   14  H   UNL     1     -43.942  55.214 -55.264  1.00  0.00     0.318 HD
HETATM   15  H   UNL     1     -41.216  56.864 -57.125  1.00  0.00     0.136 HD
ENDROOT
BRANCH  12  16
HETATM   16  C   UNL     1     -43.323  59.853 -52.114  1.00  0.00    -0.026 A 
HETATM   17  C   UNL     1     -44.606  59.665 -51.563  1.00  0.00     0.015 A 
HETATM   18  C   UNL     1     -44.994  60.308 -50.382  1.00  0.00     0.037 A 
HETATM   19  C   UNL     1     -44.094  61.145 -49.735  1.00  0.00     0.065 A 
HETATM   20  C   UNL     1     -42.820  61.344 -50.247  1.00  0.00     0.037 A 
HETATM   21  C   UNL     1     -42.438  60.703 -51.429  1.00  0.00     0.015 A 
BRANCH  19  22
HETATM   22  O   UNL     1     -44.429  61.795 -48.585  1.00  0.00    -0.361 OA
HETATM   23  H   UNL     1     -43.823  62.544 -48.465  1.00  0.00     0.217 HD
ENDBRANCH  19  22
ENDBRANCH  12  16
BRANCH   2  24
HETATM   24  C   UNL     1     -42.126  54.912 -53.204  1.00  0.00    -0.016 A 
HETATM   25  C   UNL     1     -43.373  54.512 -52.666  1.00  0.00     0.010 A 
HETATM   26  C   UNL     1     -43.476  53.954 -51.389  1.00  0.00     0.001 A 
HETATM   27  C   UNL     1     -42.339  53.788 -50.607  1.00  0.00     0.000 A 
HETATM   28  C   UNL     1     -41.099  54.174 -51.105  1.00  0.00     0.001 A 
HETATM   29  C   UNL     1     -40.994  54.728 -52.385  1.00  0.00     0.010 A 
ENDBRANCH   2  24
TORSDOF 3
ENDMDL
