MODEL 1
REMARK VINA RESULT:      -9.2      0.000      0.000
REMARK  3 active torsions:
REMARK  status: ('A' for Active; 'I' for Inactive)
REMARK    1  A    between atoms: C_4  and  C_5 
REMARK    2  A    between atoms: C_11  and  C_12 
REMARK    3  A    between atoms: C_21  and  N_22 
ROOT
HETATM    1  C   UNL     1     -40.548  53.056 -50.268  1.00  0.00     0.071 A 
HETATM    2  N   UNL     1     -40.661  53.069 -48.892  1.00  0.00    -0.274 N 
HETATM    3  H   UNL     1     -40.511  52.293 -48.257  1.00  0.00     0.189 HD
HETATM    4  N   UNL     1     -40.964  54.269 -48.374  1.00  0.00    -0.148 NA
HETATM    5  C   UNL     1     -41.043  55.032 -49.456  1.00  0.00     0.199 A 
HETATM    6  C   UNL     1     -40.852  54.354 -50.669  1.00  0.00     0.036 A 
HETATM    7  C   UNL     1     -40.905  55.082 -51.988  1.00  0.00     0.079 A 
HETATM    8  C   UNL     1     -41.051  56.606 -51.696  1.00  0.00     0.063 A 
HETATM    9  C   UNL     1     -41.142  57.524 -52.905  1.00  0.00     0.020 C 
HETATM   10  N   UNL     1     -41.217  58.285 -53.907  1.00  0.00    -0.096 N 
HETATM   11  C   UNL     1     -41.215  57.140 -50.460  1.00  0.00     0.139 A 
HETATM   12  O   UNL     1     -41.244  56.351 -49.311  1.00  0.00    -0.277 OA
ENDROOT
BRANCH   7  13
HETATM   13  C   UNL     1     -42.007  54.572 -53.025  1.00  0.00     0.022 C 
HETATM   14  C   UNL     1     -41.537  54.359 -54.450  1.00  0.00    -0.025 C 
HETATM   15  C   UNL     1     -42.046  54.969 -55.530  1.00  0.00    -0.030 C 
HETATM   16  C   UNL     1     -43.217  55.893 -55.468  1.00  0.00     0.027 C 
HETATM   17  C   UNL     1     -44.086  55.551 -54.269  1.00  0.00     0.004 C 
HETATM   18  C   UNL     1     -43.260  55.505 -52.986  1.00  0.00     0.010 C 
ENDBRANCH   7  13
BRANCH  11  19
HETATM   19  N   UNL     1     -41.392  58.479 -50.187  1.00  0.00    -0.282 NA
HETATM   20  H   UNL     1     -41.456  59.098 -50.990  1.00  0.00     0.126 HD
HETATM   21  H   UNL     1     -42.131  58.631 -49.503  1.00  0.00     0.126 HD
ENDBRANCH  11  19
BRANCH   1  22
HETATM   22  C   UNL     1     -40.171  51.842 -50.986  1.00  0.00    -0.007 A 
HETATM   23  C   UNL     1     -40.166  50.604 -50.324  1.00  0.00     0.014 A 
HETATM   24  C   UNL     1     -39.829  49.434 -51.007  1.00  0.00     0.001 A 
HETATM   25  C   UNL     1     -39.487  49.491 -52.354  1.00  0.00     0.000 A 
HETATM   26  C   UNL     1     -39.481  50.716 -53.020  1.00  0.00     0.001 A 
HETATM   27  C   UNL     1     -39.823  51.888 -52.340  1.00  0.00     0.014 A 
ENDBRANCH   1  22
TORSDOF 3
ENDMDL
MODEL 2
REMARK VINA RESULT:      -9.0      2.771      4.177
REMARK  3 active torsions:
REMARK  status: ('A' for Active; 'I' for Inactive)
REMARK    1  A    between atoms: C_4  and  C_5 
REMARK    2  A    between atoms: C_11  and  C_12 
REMARK    3  A    between atoms: C_21  and  N_22 
ROOT
HETATM    1  C   UNL     1     -43.150  56.207 -51.305  1.00  0.00     0.071 A 
HETATM    2  N   UNL     1     -44.322  56.253 -50.576  1.00  0.00    -0.274 N 
HETATM    3  H   UNL     1     -44.562  55.695 -49.764  1.00  0.00     0.189 HD
HETATM    4  N   UNL     1     -45.197  57.180 -50.996  1.00  0.00    -0.148 NA
HETATM    5  C   UNL     1     -44.556  57.731 -52.017  1.00  0.00     0.199 A 
HETATM    6  C   UNL     1     -43.309  57.157 -52.309  1.00  0.00     0.036 A 
HETATM    7  C   UNL     1     -42.454  57.676 -53.437  1.00  0.00     0.079 A 
HETATM    8  C   UNL     1     -43.142  58.946 -54.024  1.00  0.00     0.063 A 
HETATM    9  C   UNL     1     -42.443  59.618 -55.194  1.00  0.00     0.020 C 
HETATM   10  N   UNL     1     -41.863  60.176 -56.165  1.00  0.00    -0.096 N 
HETATM   11  C   UNL     1     -44.358  59.410 -53.638  1.00  0.00     0.139 A 
HETATM   12  O   UNL     1     -45.104  58.787 -52.639  1.00  0.00    -0.277 OA
ENDROOT
BRANCH   7  13
HETATM   13  C   UNL     1     -42.089  56.623 -54.580  1.00  0.00     0.022 C 
HETATM   14  C   UNL     1     -43.175  55.631 -54.947  1.00  0.00    -0.025 C 
HETATM   15  C   UNL     1     -43.058  54.297 -54.879  1.00  0.00    -0.030 C 
HETATM   16  C   UNL     1     -41.788  53.610 -54.501  1.00  0.00     0.027 C 
HETATM   17  C   UNL     1     -40.598  54.492 -54.838  1.00  0.00     0.004 C 
HETATM   18  C   UNL     1     -40.756  55.885 -54.232  1.00  0.00     0.010 C 
ENDBRANCH   7  13
BRANCH  11  19
HETATM   19  N   UNL     1     -45.001  60.503 -54.176  1.00  0.00    -0.282 NA
HETATM   20  H   UNL     1     -45.995  60.581 -53.982  1.00  0.00     0.126 HD
HETATM   21  H   UNL     1     -44.488  61.366 -54.003  1.00  0.00     0.126 HD
ENDBRANCH  11  19
BRANCH   1  22
HETATM   22  C   UNL     1     -42.071  55.292 -50.946  1.00  0.00    -0.007 A 
HETATM   23  C   UNL     1     -40.931  55.770 -50.280  1.00  0.00     0.014 A 
HETATM   24  C   UNL     1     -39.904  54.899 -49.912  1.00  0.00     0.001 A 
HETATM   25  C   UNL     1     -40.003  53.543 -50.213  1.00  0.00     0.000 A 
HETATM   26  C   UNL     1     -41.127  53.059 -50.881  1.00  0.00     0.001 A 
HETATM   27  C   UNL     1     -42.158  53.928 -51.245  1.00  0.00     0.014 A 
ENDBRANCH   1  22
TORSDOF 3
ENDMDL
MODEL 3
REMARK VINA RESULT:      -8.6      1.846      2.751
REMARK  3 active torsions:
REMARK  status: ('A' for Active; 'I' for Inactive)
REMARK    1  A    between atoms: C_4  and  C_5 
REMARK    2  A    between atoms: C_11  and  C_12 
REMARK    3  A    between atoms: C_21  and  N_22 
ROOT
HETATM    1  C   UNL     1     -40.995  55.273 -51.900  1.00  0.00     0.071 A 
HETATM    2  N   UNL     1     -40.985  55.209 -50.521  1.00  0.00    -0.274 N 
HETATM    3  H   UNL     1     -40.733  54.413 -49.945  1.00  0.00     0.189 HD
HETATM    4  N   UNL     1     -41.310  56.361 -49.912  1.00  0.00    -0.148 NA
HETATM    5  C   UNL     1     -41.530  57.170 -50.939  1.00  0.00     0.199 A 
HETATM    6  C   UNL     1     -41.409  56.567 -52.200  1.00  0.00     0.036 A 
HETATM    7  C   UNL     1     -41.622  57.356 -53.467  1.00  0.00     0.079 A 
HETATM    8  C   UNL     1     -41.831  58.852 -53.080  1.00  0.00     0.063 A 
HETATM    9  C   UNL     1     -42.083  59.822 -54.223  1.00  0.00     0.020 C 
HETATM   10  N   UNL     1     -42.291  60.626 -55.171  1.00  0.00    -0.096 N 
HETATM   11  C   UNL     1     -41.915  59.312 -51.806  1.00  0.00     0.139 A 
HETATM   12  O   UNL     1     -41.795  58.465 -50.704  1.00  0.00    -0.277 OA
ENDROOT
BRANCH   7  13
HETATM   13  C   UNL     1     -42.780  56.830 -54.432  1.00  0.00     0.022 C 
HETATM   14  C   UNL     1     -43.698  55.770 -53.859  1.00  0.00    -0.025 C 
HETATM   15  C   UNL     1     -43.891  54.550 -54.383  1.00  0.00    -0.030 C 
HETATM   16  C   UNL     1     -43.273  54.109 -55.668  1.00  0.00     0.027 C 
HETATM   17  C   UNL     1     -42.989  55.313 -56.550  1.00  0.00     0.004 C 
HETATM   18  C   UNL     1     -42.179  56.367 -55.799  1.00  0.00     0.010 C 
ENDBRANCH   7  13
BRANCH  11  19
HETATM   19  N   UNL     1     -42.145  60.620 -51.445  1.00  0.00    -0.282 NA
HETATM   20  H   UNL     1     -42.974  60.795 -50.884  1.00  0.00     0.126 HD
HETATM   21  H   UNL     1     -41.307  61.062 -51.071  1.00  0.00     0.126 HD
ENDBRANCH  11  19
BRANCH   1  22
HETATM   22  C   UNL     1     -40.613  54.123 -52.713  1.00  0.00    -0.007 A 
HETATM   23  C   UNL     1     -40.543  52.844 -52.139  1.00  0.00     0.014 A 
HETATM   24  C   UNL     1     -40.201  51.734 -52.913  1.00  0.00     0.001 A 
HETATM   25  C   UNL     1     -39.917  51.893 -54.267  1.00  0.00     0.000 A 
HETATM   26  C   UNL     1     -39.976  53.160 -54.846  1.00  0.00     0.001 A 
HETATM   27  C   UNL     1     -40.323  54.271 -54.074  1.00  0.00     0.014 A 
ENDBRANCH   1  22
TORSDOF 3
ENDMDL
MODEL 4
REMARK VINA RESULT:      -8.4     14.427     17.076
REMARK  3 active torsions:
REMARK  status: ('A' for Active; 'I' for Inactive)
REMARK    1  A    between atoms: C_4  and  C_5 
REMARK    2  A    between atoms: C_11  and  C_12 
REMARK    3  A    between atoms: C_21  and  N_22 
ROOT
HETATM    1  C   UNL     1     -33.983  40.224 -54.489  1.00  0.00     0.071 A 
HETATM    2  N   UNL     1     -32.760  40.711 -54.073  1.00  0.00    -0.274 N 
HETATM    3  H   UNL     1     -32.562  41.229 -53.224  1.00  0.00     0.189 HD
HETATM    4  N   UNL     1     -31.738  40.406 -54.888  1.00  0.00    -0.148 NA
HETATM    5  C   UNL     1     -32.338  39.709 -55.844  1.00  0.00     0.199 A 
HETATM    6  C   UNL     1     -33.729  39.593 -55.703  1.00  0.00     0.036 A 
HETATM    7  C   UNL     1     -34.555  38.826 -56.704  1.00  0.00     0.079 A 
HETATM    8  C   UNL     1     -33.583  38.149 -57.718  1.00  0.00     0.063 A 
HETATM    9  C   UNL     1     -34.222  37.334 -58.831  1.00  0.00     0.020 C 
HETATM   10  N   UNL     1     -34.752  36.658 -59.754  1.00  0.00    -0.096 N 
HETATM   11  C   UNL     1     -32.239  38.333 -57.736  1.00  0.00     0.139 A 
HETATM   12  O   UNL     1     -31.592  39.147 -56.808  1.00  0.00    -0.277 OA
ENDROOT
BRANCH   7  13
HETATM   13  C   UNL     1     -35.700  39.653 -57.448  1.00  0.00     0.022 C 
HETATM   14  C   UNL     1     -35.427  41.129 -57.662  1.00  0.00    -0.025 C 
HETATM   15  C   UNL     1     -36.195  42.130 -57.208  1.00  0.00    -0.030 C 
HETATM   16  C   UNL     1     -37.484  41.905 -56.489  1.00  0.00     0.027 C 
HETATM   17  C   UNL     1     -38.084  40.571 -56.901  1.00  0.00     0.004 C 
HETATM   18  C   UNL     1     -37.074  39.439 -56.735  1.00  0.00     0.010 C 
ENDBRANCH   7  13
BRANCH  11  19
HETATM   19  N   UNL     1     -31.371  37.780 -58.651  1.00  0.00    -0.282 NA
HETATM   20  H   UNL     1     -31.309  38.245 -59.553  1.00  0.00     0.126 HD
HETATM   21  H   UNL     1     -30.462  37.582 -58.238  1.00  0.00     0.126 HD
ENDBRANCH  11  19
BRANCH   1  22
HETATM   22  C   UNL     1     -35.188  40.422 -53.689  1.00  0.00    -0.007 A 
HETATM   23  C   UNL     1     -35.679  41.717 -53.460  1.00  0.00     0.014 A 
HETATM   24  C   UNL     1     -36.842  41.915 -52.714  1.00  0.00     0.001 A 
HETATM   25  C   UNL     1     -37.522  40.821 -52.186  1.00  0.00     0.000 A 
HETATM   26  C   UNL     1     -37.040  39.531 -52.401  1.00  0.00     0.001 A 
HETATM   27  C   UNL     1     -35.878  39.330 -53.151  1.00  0.00     0.014 A 
ENDBRANCH   1  22
TORSDOF 3
ENDMDL
MODEL 5
REMARK VINA RESULT:      -8.3      3.360      5.045
REMARK  3 active torsions:
REMARK  status: ('A' for Active; 'I' for Inactive)
REMARK    1  A    between atoms: C_4  and  C_5 
REMARK    2  A    between atoms: C_11  and  C_12 
REMARK    3  A    between atoms: C_21  and  N_22 
ROOT
HETATM    1  C   UNL     1     -41.088  54.512 -53.026  1.00  0.00     0.071 A 
HETATM    2  N   UNL     1     -40.329  53.636 -53.777  1.00  0.00    -0.274 N 
HETATM    3  H   UNL     1     -39.669  52.947 -53.435  1.00  0.00     0.189 HD
HETATM    4  N   UNL     1     -40.551  53.707 -55.099  1.00  0.00    -0.148 NA
HETATM    5  C   UNL     1     -41.475  54.655 -55.180  1.00  0.00     0.199 A 
HETATM    6  C   UNL     1     -41.825  55.241 -53.954  1.00  0.00     0.036 A 
HETATM    7  C   UNL     1     -42.866  56.329 -53.878  1.00  0.00     0.079 A 
HETATM    8  C   UNL     1     -43.487  56.509 -55.296  1.00  0.00     0.063 A 
HETATM    9  C   UNL     1     -44.555  57.581 -55.440  1.00  0.00     0.020 C 
HETATM   10  N   UNL     1     -45.441  58.470 -55.560  1.00  0.00    -0.096 N 
HETATM   11  C   UNL     1     -43.061  55.861 -56.410  1.00  0.00     0.139 A 
HETATM   12  O   UNL     1     -42.018  54.937 -56.375  1.00  0.00    -0.277 OA
ENDROOT
BRANCH   7  13
HETATM   13  C   UNL     1     -42.378  57.722 -53.268  1.00  0.00     0.022 C 
HETATM   14  C   UNL     1     -40.880  57.903 -53.130  1.00  0.00    -0.025 C 
HETATM   15  C   UNL     1     -40.236  58.159 -51.982  1.00  0.00    -0.030 C 
HETATM   16  C   UNL     1     -40.940  58.380 -50.684  1.00  0.00     0.027 C 
HETATM   17  C   UNL     1     -42.344  58.902 -50.937  1.00  0.00     0.004 C 
HETATM   18  C   UNL     1     -43.101  58.001 -51.910  1.00  0.00     0.010 C 
ENDBRANCH   7  13
BRANCH  11  19
HETATM   19  N   UNL     1     -43.566  56.041 -57.678  1.00  0.00    -0.282 NA
HETATM   20  H   UNL     1     -42.979  55.729 -58.447  1.00  0.00     0.126 HD
HETATM   21  H   UNL     1     -44.529  55.715 -57.751  1.00  0.00     0.126 HD
ENDBRANCH  11  19
BRANCH   1  22
HETATM   22  C   UNL     1     -41.007  54.526 -51.569  1.00  0.00    -0.007 A 
HETATM   23  C   UNL     1     -39.801  54.203 -50.926  1.00  0.00     0.014 A 
HETATM   24  C   UNL     1     -39.707  54.234 -49.534  1.00  0.00     0.001 A 
HETATM   25  C   UNL     1     -40.818  54.582 -48.771  1.00  0.00     0.000 A 
HETATM   26  C   UNL     1     -42.022  54.897 -49.399  1.00  0.00     0.001 A 
HETATM   27  C   UNL     1     -42.118  54.871 -50.792  1.00  0.00     0.014 A 
ENDBRANCH   1  22
TORSDOF 3
ENDMDL
MODEL 6
REMARK VINA RESULT:      -8.1      2.830      4.675
REMARK  3 active torsions:
REMARK  status: ('A' for Active; 'I' for Inactive)
REMARK    1  A    between atoms: C_4  and  C_5 
REMARK    2  A    between atoms: C_11  and  C_12 
REMARK    3  A    between atoms: C_21  and  N_22 
ROOT
HETATM    1  C   UNL     1     -41.946  54.091 -54.162  1.00  0.00     0.071 A 
HETATM    2  N   UNL     1     -42.305  53.791 -55.461  1.00  0.00    -0.274 N 
HETATM    3  H   UNL     1     -42.042  52.971 -55.997  1.00  0.00     0.189 HD
HETATM    4  N   UNL     1     -43.127  54.688 -56.028  1.00  0.00    -0.148 NA
HETATM    5  C   UNL     1     -43.288  55.577 -55.057  1.00  0.00     0.199 A 
HETATM    6  C   UNL     1     -42.555  55.313 -53.890  1.00  0.00     0.036 A 
HETATM    7  C   UNL     1     -42.636  56.225 -52.693  1.00  0.00     0.079 A 
HETATM    8  C   UNL     1     -43.718  57.310 -52.981  1.00  0.00     0.063 A 
HETATM    9  C   UNL     1     -43.943  58.350 -51.896  1.00  0.00     0.020 C 
HETATM   10  N   UNL     1     -44.131  59.213 -50.995  1.00  0.00    -0.096 N 
HETATM   11  C   UNL     1     -44.373  57.449 -54.162  1.00  0.00     0.139 A 
HETATM   12  O   UNL     1     -44.144  56.594 -55.239  1.00  0.00    -0.277 OA
ENDROOT
BRANCH   7  13
HETATM   13  C   UNL     1     -41.259  56.879 -52.217  1.00  0.00     0.022 C 
HETATM   14  C   UNL     1     -41.112  57.118 -50.728  1.00  0.00    -0.025 C 
HETATM   15  C   UNL     1     -40.879  58.309 -50.156  1.00  0.00    -0.030 C 
HETATM   16  C   UNL     1     -40.652  59.558 -50.942  1.00  0.00     0.027 C 
HETATM   17  C   UNL     1     -40.096  59.216 -52.313  1.00  0.00     0.004 C 
HETATM   18  C   UNL     1     -40.973  58.187 -53.022  1.00  0.00     0.010 C 
ENDBRANCH   7  13
BRANCH  11  19
HETATM   19  N   UNL     1     -45.297  58.428 -54.450  1.00  0.00    -0.282 NA
HETATM   20  H   UNL     1     -46.265  58.129 -54.519  1.00  0.00     0.126 HD
HETATM   21  H   UNL     1     -45.172  59.250 -53.862  1.00  0.00     0.126 HD
ENDBRANCH  11  19
BRANCH   1  22
HETATM   22  C   UNL     1     -41.101  53.191 -53.383  1.00  0.00    -0.007 A 
HETATM   23  C   UNL     1     -40.386  52.166 -54.022  1.00  0.00     0.014 A 
HETATM   24  C   UNL     1     -39.557  51.314 -53.289  1.00  0.00     0.001 A 
HETATM   25  C   UNL     1     -39.441  51.474 -51.912  1.00  0.00     0.000 A 
HETATM   26  C   UNL     1     -40.153  52.484 -51.266  1.00  0.00     0.001 A 
HETATM   27  C   UNL     1     -40.978  53.341 -51.998  1.00  0.00     0.014 A 
ENDBRANCH   1  22
TORSDOF 3
ENDMDL
MODEL 7
REMARK VINA RESULT:      -8.1     13.942     15.625
REMARK  3 active torsions:
REMARK  status: ('A' for Active; 'I' for Inactive)
REMARK    1  A    between atoms: C_4  and  C_5 
REMARK    2  A    between atoms: C_11  and  C_12 
REMARK    3  A    between atoms: C_21  and  N_22 
ROOT
HETATM    1  C   UNL     1     -38.389  40.875 -55.545  1.00  0.00     0.071 A 
HETATM    2  N   UNL     1     -39.560  41.508 -55.179  1.00  0.00    -0.274 N 
HETATM    3  H   UNL     1     -40.267  41.896 -55.794  1.00  0.00     0.189 HD
HETATM    4  N   UNL     1     -39.770  41.559 -53.854  1.00  0.00    -0.148 NA
HETATM    5  C   UNL     1     -38.699  40.940 -53.375  1.00  0.00     0.199 A 
HETATM    6  C   UNL     1     -37.771  40.532 -54.346  1.00  0.00     0.036 A 
HETATM    7  C   UNL     1     -36.505  39.810 -53.963  1.00  0.00     0.079 A 
HETATM    8  C   UNL     1     -36.552  39.527 -52.430  1.00  0.00     0.063 A 
HETATM    9  C   UNL     1     -35.348  38.815 -51.833  1.00  0.00     0.020 C 
HETATM   10  N   UNL     1     -34.351  38.225 -51.338  1.00  0.00    -0.096 N 
HETATM   11  C   UNL     1     -37.526  39.970 -51.595  1.00  0.00     0.139 A 
HETATM   12  O   UNL     1     -38.610  40.717 -52.054  1.00  0.00    -0.277 OA
ENDROOT
BRANCH   7  13
HETATM   13  C   UNL     1     -35.139  40.518 -54.390  1.00  0.00     0.022 C 
HETATM   14  C   UNL     1     -35.227  41.992 -54.728  1.00  0.00    -0.025 C 
HETATM   15  C   UNL     1     -34.873  42.538 -55.901  1.00  0.00    -0.030 C 
HETATM   16  C   UNL     1     -34.261  41.752 -57.013  1.00  0.00     0.027 C 
HETATM   17  C   UNL     1     -33.539  40.538 -56.455  1.00  0.00     0.004 C 
HETATM   18  C   UNL     1     -34.455  39.721 -55.547  1.00  0.00     0.010 C 
ENDBRANCH   7  13
BRANCH  11  19
HETATM   19  N   UNL     1     -37.560  39.770 -50.234  1.00  0.00    -0.282 NA
HETATM   20  H   UNL     1     -37.143  38.907 -49.894  1.00  0.00     0.126 HD
HETATM   21  H   UNL     1     -37.250  40.594 -49.722  1.00  0.00     0.126 HD
ENDBRANCH  11  19
BRANCH   1  22
HETATM   22  C   UNL     1     -38.038  40.688 -56.949  1.00  0.00    -0.007 A 
HETATM   23  C   UNL     1     -37.751  41.798 -57.759  1.00  0.00     0.014 A 
HETATM   24  C   UNL     1     -37.392  41.628 -59.098  1.00  0.00     0.001 A 
HETATM   25  C   UNL     1     -37.324  40.348 -59.641  1.00  0.00     0.000 A 
HETATM   26  C   UNL     1     -37.614  39.239 -58.847  1.00  0.00     0.001 A 
HETATM   27  C   UNL     1     -37.968  39.407 -57.506  1.00  0.00     0.014 A 
ENDBRANCH   1  22
TORSDOF 3
ENDMDL
MODEL 8
REMARK VINA RESULT:      -8.1      3.355      7.449
REMARK  3 active torsions:
REMARK  status: ('A' for Active; 'I' for Inactive)
REMARK    1  A    between atoms: C_4  and  C_5 
REMARK    2  A    between atoms: C_11  and  C_12 
REMARK    3  A    between atoms: C_21  and  N_22 
ROOT
HETATM    1  C   UNL     1     -43.174  57.922 -57.945  1.00  0.00     0.071 A 
HETATM    2  N   UNL     1     -42.755  59.128 -58.470  1.00  0.00    -0.274 N 
HETATM    3  H   UNL     1     -42.938  59.490 -59.400  1.00  0.00     0.189 HD
HETATM    4  N   UNL     1     -42.069  59.897 -57.609  1.00  0.00    -0.148 NA
HETATM    5  C   UNL     1     -42.057  59.151 -56.513  1.00  0.00     0.199 A 
HETATM    6  C   UNL     1     -42.670  57.895 -56.648  1.00  0.00     0.036 A 
HETATM    7  C   UNL     1     -42.744  56.933 -55.490  1.00  0.00     0.079 A 
HETATM    8  C   UNL     1     -42.179  57.650 -54.226  1.00  0.00     0.063 A 
HETATM    9  C   UNL     1     -42.148  56.837 -52.941  1.00  0.00     0.020 C 
HETATM   10  N   UNL     1     -42.122  56.164 -51.876  1.00  0.00    -0.096 N 
HETATM   11  C   UNL     1     -41.621  58.886 -54.228  1.00  0.00     0.139 A 
HETATM   12  O   UNL     1     -41.522  59.652 -55.389  1.00  0.00    -0.277 OA
ENDROOT
BRANCH   7  13
HETATM   13  C   UNL     1     -42.054  55.511 -55.718  1.00  0.00     0.022 C 
HETATM   14  C   UNL     1     -42.853  54.302 -55.273  1.00  0.00    -0.025 C 
HETATM   15  C   UNL     1     -42.444  53.393 -54.376  1.00  0.00    -0.030 C 
HETATM   16  C   UNL     1     -41.088  53.419 -53.751  1.00  0.00     0.027 C 
HETATM   17  C   UNL     1     -40.104  54.121 -54.672  1.00  0.00     0.004 C 
HETATM   18  C   UNL     1     -40.624  55.495 -55.088  1.00  0.00     0.010 C 
ENDBRANCH   7  13
BRANCH  11  19
HETATM   19  N   UNL     1     -41.076  59.516 -53.131  1.00  0.00    -0.282 NA
HETATM   20  H   UNL     1     -40.902  58.933 -52.316  1.00  0.00     0.126 HD
HETATM   21  H   UNL     1     -40.280  60.098 -53.385  1.00  0.00     0.126 HD
ENDBRANCH  11  19
BRANCH   1  22
HETATM   22  C   UNL     1     -43.978  56.992 -58.733  1.00  0.00    -0.007 A 
HETATM   23  C   UNL     1     -43.443  55.755 -59.126  1.00  0.00     0.014 A 
HETATM   24  C   UNL     1     -44.212  54.850 -59.861  1.00  0.00     0.001 A 
HETATM   25  C   UNL     1     -45.518  55.175 -60.214  1.00  0.00     0.000 A 
HETATM   26  C   UNL     1     -46.056  56.404 -59.835  1.00  0.00     0.001 A 
HETATM   27  C   UNL     1     -45.291  57.309 -59.096  1.00  0.00     0.014 A 
ENDBRANCH   1  22
TORSDOF 3
ENDMDL
MODEL 9
REMARK VINA RESULT:      -8.1      3.929      5.971
REMARK  3 active torsions:
REMARK  status: ('A' for Active; 'I' for Inactive)
REMARK    1  A    between atoms: C_4  and  C_5 
REMARK    2  A    between atoms: C_11  and  C_12 
REMARK    3  A    between atoms: C_21  and  N_22 
ROOT
HETATM    1  C   UNL     1     -42.600  55.646 -55.043  1.00  0.00     0.071 A 
HETATM    2  N   UNL     1     -42.241  55.081 -56.251  1.00  0.00    -0.274 N 
HETATM    3  H   UNL     1     -41.767  54.197 -56.398  1.00  0.00     0.189 HD
HETATM    4  N   UNL     1     -42.617  55.791 -57.326  1.00  0.00    -0.148 NA
HETATM    5  C   UNL     1     -43.228  56.832 -56.777  1.00  0.00     0.199 A 
HETATM    6  C   UNL     1     -43.218  56.848 -55.374  1.00  0.00     0.036 A 
HETATM    7  C   UNL     1     -43.877  57.962 -54.600  1.00  0.00     0.079 A 
HETATM    8  C   UNL     1     -44.613  58.889 -55.614  1.00  0.00     0.063 A 
HETATM    9  C   UNL     1     -45.333  60.095 -55.033  1.00  0.00     0.020 C 
HETATM   10  N   UNL     1     -45.931  61.095 -54.551  1.00  0.00    -0.096 N 
HETATM   11  C   UNL     1     -44.554  58.754 -56.963  1.00  0.00     0.139 A 
HETATM   12  O   UNL     1     -43.830  57.731 -57.573  1.00  0.00    -0.277 OA
ENDROOT
BRANCH   7  13
HETATM   13  C   UNL     1     -42.925  58.794 -53.624  1.00  0.00     0.022 C 
HETATM   14  C   UNL     1     -41.448  58.784 -53.962  1.00  0.00    -0.025 C 
HETATM   15  C   UNL     1     -40.472  58.359 -53.146  1.00  0.00    -0.030 C 
HETATM   16  C   UNL     1     -40.721  57.907 -51.745  1.00  0.00     0.027 C 
HETATM   17  C   UNL     1     -41.975  58.569 -51.200  1.00  0.00     0.004 C 
HETATM   18  C   UNL     1     -43.160  58.361 -52.140  1.00  0.00     0.010 C 
ENDBRANCH   7  13
BRANCH  11  19
HETATM   19  N   UNL     1     -45.160  59.590 -57.874  1.00  0.00    -0.282 NA
HETATM   20  H   UNL     1     -46.089  59.924 -57.632  1.00  0.00     0.126 HD
HETATM   21  H   UNL     1     -44.533  60.331 -58.181  1.00  0.00     0.126 HD
ENDBRANCH  11  19
BRANCH   1  22
HETATM   22  C   UNL     1     -42.313  54.975 -53.779  1.00  0.00    -0.007 A 
HETATM   23  C   UNL     1     -40.998  54.597 -53.463  1.00  0.00     0.014 A 
HETATM   24  C   UNL     1     -40.711  53.974 -52.247  1.00  0.00     0.001 A 
HETATM   25  C   UNL     1     -41.734  53.717 -51.339  1.00  0.00     0.000 A 
HETATM   26  C   UNL     1     -43.045  54.081 -51.647  1.00  0.00     0.001 A 
HETATM   27  C   UNL     1     -43.334  54.709 -52.861  1.00  0.00     0.014 A 
ENDBRANCH   1  22
TORSDOF 3
ENDMDL
MODEL 10
REMARK VINA RESULT:      -8.0      3.600      4.625
REMARK  3 active torsions:
REMARK  status: ('A' for Active; 'I' for Inactive)
REMARK    1  A    between atoms: C_4  and  C_5 
REMARK    2  A    between atoms: C_11  and  C_12 
REMARK    3  A    between atoms: C_21  and  N_22 
ROOT
HETATM    1  C   UNL     1     -43.234  56.239 -52.462  1.00  0.00     0.071 A 
HETATM    2  N   UNL     1     -43.987  55.617 -51.486  1.00  0.00    -0.274 N 
HETATM    3  H   UNL     1     -44.009  54.627 -51.265  1.00  0.00     0.189 HD
HETATM    4  N   UNL     1     -44.727  56.454 -50.741  1.00  0.00    -0.148 NA
HETATM    5  C   UNL     1     -44.430  57.635 -51.265  1.00  0.00     0.199 A 
HETATM    6  C   UNL     1     -43.557  57.589 -52.363  1.00  0.00     0.036 A 
HETATM    7  C   UNL     1     -43.119  58.849 -53.065  1.00  0.00     0.079 A 
HETATM    8  C   UNL     1     -43.680  60.068 -52.272  1.00  0.00     0.063 A 
HETATM    9  C   UNL     1     -43.362  61.447 -52.830  1.00  0.00     0.020 C 
HETATM   10  N   UNL     1     -43.099  62.589 -53.293  1.00  0.00    -0.096 N 
HETATM   11  C   UNL     1     -44.511  59.975 -51.204  1.00  0.00     0.139 A 
HETATM   12  O   UNL     1     -44.927  58.745 -50.696  1.00  0.00    -0.277 OA
ENDROOT
BRANCH   7  13
HETATM   13  C   UNL     1     -43.474  58.944 -54.619  1.00  0.00     0.022 C 
HETATM   14  C   UNL     1     -44.356  57.843 -55.172  1.00  0.00    -0.025 C 
HETATM   15  C   UNL     1     -44.027  57.021 -56.179  1.00  0.00    -0.030 C 
HETATM   16  C   UNL     1     -42.753  57.146 -56.948  1.00  0.00     0.027 C 
HETATM   17  C   UNL     1     -42.257  58.581 -56.903  1.00  0.00     0.004 C 
HETATM   18  C   UNL     1     -42.167  59.088 -55.466  1.00  0.00     0.010 C 
ENDBRANCH   7  13
BRANCH  11  19
HETATM   19  N   UNL     1     -45.052  61.040 -50.520  1.00  0.00    -0.282 NA
HETATM   20  H   UNL     1     -45.649  60.813 -49.729  1.00  0.00     0.126 HD
HETATM   21  H   UNL     1     -44.351  61.746 -50.304  1.00  0.00     0.126 HD
ENDBRANCH  11  19
BRANCH   1  22
HETATM   22  C   UNL     1     -42.334  55.479 -53.323  1.00  0.00    -0.007 A 
HETATM   23  C   UNL     1     -42.671  54.175 -53.719  1.00  0.00     0.014 A 
HETATM   24  C   UNL     1     -41.827  53.447 -54.560  1.00  0.00     0.001 A 
HETATM   25  C   UNL     1     -40.637  54.013 -55.009  1.00  0.00     0.000 A 
HETATM   26  C   UNL     1     -40.290  55.305 -54.616  1.00  0.00     0.001 A 
HETATM   27  C   UNL     1     -41.135  56.037 -53.778  1.00  0.00     0.014 A 
ENDBRANCH   1  22
TORSDOF 3
ENDMDL
