MODEL 1
REMARK VINA RESULT:      -9.4      0.000      0.000
REMARK  7 active torsions:
REMARK  status: ('A' for Active; 'I' for Inactive)
REMARK    1  A    between atoms: C_9  and  C_10 
REMARK       I    between atoms: C_10  and  N_11 
REMARK    2  A    between atoms: N_11  and  C_12 
REMARK    3  A    between atoms: C_12  and  C_13 
REMARK    4  A    between atoms: C_12  and  C_22 
REMARK       I    between atoms: C_13  and  N_14 
REMARK    5  A    between atoms: N_14  and  C_15 
REMARK    6  A    between atoms: C_15  and  C_16 
REMARK    7  A    between atoms: C_22  and  C_23 
ROOT
HETATM    1  C   UNL     1     -42.977  58.315 -55.998  1.00  0.00     0.180 C 
ENDROOT
BRANCH   1   2
HETATM    2  N   UNL     1     -42.675  57.005 -55.365  1.00  0.00    -0.346 N 
HETATM    3  C   UNL     1     -43.566  56.401 -54.511  1.00  0.00     0.249 C 
HETATM    4  O   UNL     1     -44.746  56.722 -54.387  1.00  0.00    -0.271 OA
HETATM    5  H   UNL     1     -41.686  56.891 -55.162  1.00  0.00     0.163 HD
BRANCH   3   6
HETATM    6  C   UNL     1     -43.053  55.191 -53.720  1.00  0.00     0.281 C 
HETATM    7  N   UNL     1     -42.251  55.708 -52.542  1.00  0.00    -0.058 N 
HETATM    8  C   UNL     1     -41.753  54.637 -51.657  1.00  0.00     0.272 C 
HETATM    9  H   UNL     1     -41.465  56.256 -52.928  1.00  0.00     0.278 HD
HETATM   10  H   UNL     1     -42.810  56.401 -52.027  1.00  0.00     0.278 HD
HETATM   11  C   UNL     1     -41.054  53.551 -52.419  1.00  0.00    -0.026 A 
HETATM   12  C   UNL     1     -41.266  53.376 -53.802  1.00  0.00    -0.048 A 
HETATM   13  C   UNL     1     -40.203  52.672 -51.732  1.00  0.00     0.009 A 
HETATM   14  C   UNL     1     -40.591  52.347 -54.475  1.00  0.00     0.008 A 
HETATM   15  C   UNL     1     -42.149  54.315 -54.594  1.00  0.00     0.082 C 
HETATM   16  C   UNL     1     -39.737  51.490 -53.782  1.00  0.00     0.001 A 
HETATM   17  C   UNL     1     -39.546  51.649 -52.413  1.00  0.00     0.001 A 
ENDBRANCH   3   6
ENDBRANCH   1   2
BRANCH   1  18
HETATM   18  C   UNL     1     -42.967  58.061 -57.525  1.00  0.00     0.241 C 
HETATM   19  N   UNL     1     -42.275  56.967 -57.963  1.00  0.00    -0.353 N 
HETATM   20  H   UNL     1     -41.925  56.264 -57.317  1.00  0.00     0.162 HD
HETATM   21  O   UNL     1     -43.491  58.866 -58.303  1.00  0.00    -0.271 OA
BRANCH  19  22
HETATM   22  C   UNL     1     -42.215  56.635 -59.370  1.00  0.00     0.187 C 
BRANCH  22  23
HETATM   23  C   UNL     1     -43.383  55.802 -59.745  1.00  0.00     0.070 A 
HETATM   24  O   UNL     1     -44.003  56.101 -60.925  1.00  0.00    -0.325 OA
HETATM   25  C   UNL     1     -45.024  55.219 -61.074  1.00  0.00     0.142 A 
HETATM   26  C   UNL     1     -45.065  54.348 -60.012  1.00  0.00     0.027 A 
HETATM   27  C   UNL     1     -44.006  54.724 -59.151  1.00  0.00     0.036 A 
ENDBRANCH  22  23
ENDBRANCH  19  22
ENDBRANCH   1  18
BRANCH   1  28
HETATM   28  C   UNL     1     -42.051  59.453 -55.534  1.00  0.00     0.075 C 
BRANCH  28  29
HETATM   29  C   UNL     1     -42.351  59.996 -54.168  1.00  0.00    -0.028 A 
HETATM   30  C   UNL     1     -41.639  59.699 -52.958  1.00  0.00    -0.002 A 
HETATM   31  C   UNL     1     -42.311  60.330 -51.912  1.00  0.00     0.042 A 
HETATM   32  C   UNL     1     -40.498  58.928 -52.652  1.00  0.00     0.014 A 
HETATM   33  C   UNL     1     -41.905  60.226 -50.576  1.00  0.00     0.030 A 
HETATM   34  N   UNL     1     -43.377  61.001 -52.460  1.00  0.00    -0.365 N 
HETATM   35  C   UNL     1     -40.776  59.452 -50.299  1.00  0.00     0.002 A 
HETATM   36  C   UNL     1     -40.078  58.813 -51.321  1.00  0.00     0.001 A 
HETATM   37  H   UNL     1     -44.049  61.537 -51.925  1.00  0.00     0.165 HD
HETATM   38  C   UNL     1     -43.418  60.798 -53.814  1.00  0.00     0.096 A 
ENDBRANCH  28  29
ENDBRANCH   1  28
TORSDOF 7
ENDMDL
MODEL 2
REMARK VINA RESULT:      -9.1      2.596      8.118
REMARK  7 active torsions:
REMARK  status: ('A' for Active; 'I' for Inactive)
REMARK    1  A    between atoms: C_9  and  C_10 
REMARK       I    between atoms: C_10  and  N_11 
REMARK    2  A    between atoms: N_11  and  C_12 
REMARK    3  A    between atoms: C_12  and  C_13 
REMARK    4  A    between atoms: C_12  and  C_22 
REMARK       I    between atoms: C_13  and  N_14 
REMARK    5  A    between atoms: N_14  and  C_15 
REMARK    6  A    between atoms: C_15  and  C_16 
REMARK    7  A    between atoms: C_22  and  C_23 
ROOT
HETATM    1  C   UNL     1     -42.387  54.712 -53.619  1.00  0.00     0.180 C 
ENDROOT
BRANCH   1   2
HETATM    2  N   UNL     1     -42.810  55.679 -54.664  1.00  0.00    -0.346 N 
HETATM    3  C   UNL     1     -43.062  55.276 -55.953  1.00  0.00     0.249 C 
HETATM    4  O   UNL     1     -43.211  54.107 -56.305  1.00  0.00    -0.271 OA
HETATM    5  H   UNL     1     -42.391  56.596 -54.538  1.00  0.00     0.163 HD
BRANCH   3   6
HETATM    6  C   UNL     1     -43.239  56.381 -57.001  1.00  0.00     0.281 C 
HETATM    7  N   UNL     1     -42.630  55.895 -58.302  1.00  0.00    -0.058 N 
HETATM    8  C   UNL     1     -42.795  56.846 -59.418  1.00  0.00     0.272 C 
HETATM    9  H   UNL     1     -41.630  55.717 -58.120  1.00  0.00     0.278 HD
HETATM   10  H   UNL     1     -43.011  54.967 -58.531  1.00  0.00     0.278 HD
HETATM   11  C   UNL     1     -42.369  58.235 -59.046  1.00  0.00    -0.026 A 
HETATM   12  C   UNL     1     -42.273  58.634 -57.697  1.00  0.00    -0.048 A 
HETATM   13  C   UNL     1     -42.097  59.163 -60.064  1.00  0.00     0.009 A 
HETATM   14  C   UNL     1     -41.870  59.942 -57.395  1.00  0.00     0.008 A 
HETATM   15  C   UNL     1     -42.525  57.664 -56.564  1.00  0.00     0.082 C 
HETATM   16  C   UNL     1     -41.590  60.850 -58.416  1.00  0.00     0.001 A 
HETATM   17  C   UNL     1     -41.707  60.463 -59.748  1.00  0.00     0.001 A 
ENDBRANCH   3   6
ENDBRANCH   1   2
BRANCH   1  18
HETATM   18  C   UNL     1     -43.267  55.011 -52.382  1.00  0.00     0.241 C 
HETATM   19  N   UNL     1     -43.592  56.320 -52.158  1.00  0.00    -0.353 N 
HETATM   20  H   UNL     1     -43.409  57.040 -52.852  1.00  0.00     0.162 HD
HETATM   21  O   UNL     1     -43.581  54.109 -51.595  1.00  0.00    -0.271 OA
BRANCH  19  22
HETATM   22  C   UNL     1     -44.421  56.703 -51.036  1.00  0.00     0.187 C 
BRANCH  22  23
HETATM   23  C   UNL     1     -44.754  58.145 -51.120  1.00  0.00     0.070 A 
HETATM   24  O   UNL     1     -45.993  58.521 -50.685  1.00  0.00    -0.325 OA
HETATM   25  C   UNL     1     -46.079  59.867 -50.840  1.00  0.00     0.142 A 
HETATM   26  C   UNL     1     -44.909  60.367 -51.358  1.00  0.00     0.027 A 
HETATM   27  C   UNL     1     -44.051  59.255 -51.542  1.00  0.00     0.036 A 
ENDBRANCH  22  23
ENDBRANCH  19  22
ENDBRANCH   1  18
BRANCH   1  28
HETATM   28  C   UNL     1     -40.873  54.725 -53.343  1.00  0.00     0.075 C 
BRANCH  28  29
HETATM   29  C   UNL     1     -40.368  53.572 -52.527  1.00  0.00    -0.028 A 
HETATM   30  C   UNL     1     -40.135  52.236 -52.995  1.00  0.00    -0.002 A 
HETATM   31  C   UNL     1     -39.770  51.465 -51.892  1.00  0.00     0.042 A 
HETATM   32  C   UNL     1     -40.227  51.603 -54.252  1.00  0.00     0.014 A 
HETATM   33  C   UNL     1     -39.498  50.094 -51.979  1.00  0.00     0.030 A 
HETATM   34  N   UNL     1     -39.760  52.298 -50.799  1.00  0.00    -0.365 N 
HETATM   35  C   UNL     1     -39.602  49.490 -53.235  1.00  0.00     0.002 A 
HETATM   36  C   UNL     1     -39.957  50.233 -54.358  1.00  0.00     0.001 A 
HETATM   37  H   UNL     1     -39.544  51.998 -49.856  1.00  0.00     0.165 HD
HETATM   38  C   UNL     1     -40.129  53.564 -51.166  1.00  0.00     0.096 A 
ENDBRANCH  28  29
ENDBRANCH   1  28
TORSDOF 7
ENDMDL
MODEL 3
REMARK VINA RESULT:      -8.9      2.776      6.795
REMARK  7 active torsions:
REMARK  status: ('A' for Active; 'I' for Inactive)
REMARK    1  A    between atoms: C_9  and  C_10 
REMARK       I    between atoms: C_10  and  N_11 
REMARK    2  A    between atoms: N_11  and  C_12 
REMARK    3  A    between atoms: C_12  and  C_13 
REMARK    4  A    between atoms: C_12  and  C_22 
REMARK       I    between atoms: C_13  and  N_14 
REMARK    5  A    between atoms: N_14  and  C_15 
REMARK    6  A    between atoms: C_15  and  C_16 
REMARK    7  A    between atoms: C_22  and  C_23 
ROOT
HETATM    1  C   UNL     1     -41.903  57.601 -51.588  1.00  0.00     0.180 C 
ENDROOT
BRANCH   1   2
HETATM    2  N   UNL     1     -42.011  56.120 -51.620  1.00  0.00    -0.346 N 
HETATM    3  C   UNL     1     -41.191  55.325 -50.856  1.00  0.00     0.249 C 
HETATM    4  O   UNL     1     -40.499  55.727 -49.922  1.00  0.00    -0.271 OA
HETATM    5  H   UNL     1     -42.275  55.769 -52.537  1.00  0.00     0.163 HD
BRANCH   3   6
HETATM    6  C   UNL     1     -41.211  53.821 -51.154  1.00  0.00     0.281 C 
HETATM    7  N   UNL     1     -40.238  53.143 -50.210  1.00  0.00    -0.058 N 
HETATM    8  C   UNL     1     -40.212  51.674 -50.351  1.00  0.00     0.272 C 
HETATM    9  H   UNL     1     -39.305  53.544 -50.398  1.00  0.00     0.278 HD
HETATM   10  H   UNL     1     -40.444  53.431 -49.245  1.00  0.00     0.278 HD
HETATM   11  C   UNL     1     -40.049  51.245 -51.778  1.00  0.00    -0.026 A 
HETATM   12  C   UNL     1     -40.349  52.119 -52.844  1.00  0.00    -0.048 A 
HETATM   13  C   UNL     1     -39.626  49.935 -52.055  1.00  0.00     0.009 A 
HETATM   14  C   UNL     1     -40.182  51.675 -54.163  1.00  0.00     0.008 A 
HETATM   15  C   UNL     1     -40.778  53.549 -52.599  1.00  0.00     0.082 C 
HETATM   16  C   UNL     1     -39.747  50.376 -54.423  1.00  0.00     0.001 A 
HETATM   17  C   UNL     1     -39.473  49.506 -53.372  1.00  0.00     0.001 A 
ENDBRANCH   3   6
ENDBRANCH   1   2
BRANCH   1  18
HETATM   18  C   UNL     1     -43.356  58.132 -51.534  1.00  0.00     0.241 C 
HETATM   19  N   UNL     1     -43.557  59.310 -50.870  1.00  0.00    -0.353 N 
HETATM   20  H   UNL     1     -42.780  59.893 -50.571  1.00  0.00     0.162 HD
HETATM   21  O   UNL     1     -44.290  57.467 -51.998  1.00  0.00    -0.271 OA
BRANCH  19  22
HETATM   22  C   UNL     1     -44.877  59.896 -50.773  1.00  0.00     0.187 C 
BRANCH  22  23
HETATM   23  C   UNL     1     -45.014  60.626 -49.490  1.00  0.00     0.070 A 
HETATM   24  O   UNL     1     -45.828  60.069 -48.545  1.00  0.00    -0.325 OA
HETATM   25  C   UNL     1     -45.799  60.885 -47.461  1.00  0.00     0.142 A 
HETATM   26  C   UNL     1     -44.969  61.956 -47.688  1.00  0.00     0.027 A 
HETATM   27  C   UNL     1     -44.462  61.792 -49.000  1.00  0.00     0.036 A 
ENDBRANCH  22  23
ENDBRANCH  19  22
ENDBRANCH   1  18
BRANCH   1  28
HETATM   28  C   UNL     1     -41.054  58.182 -52.732  1.00  0.00     0.075 C 
BRANCH  28  29
HETATM   29  C   UNL     1     -41.777  58.350 -54.036  1.00  0.00    -0.028 A 
HETATM   30  C   UNL     1     -42.091  57.312 -54.975  1.00  0.00    -0.002 A 
HETATM   31  C   UNL     1     -42.670  57.917 -56.089  1.00  0.00     0.042 A 
HETATM   32  C   UNL     1     -41.912  55.913 -54.992  1.00  0.00     0.014 A 
HETATM   33  C   UNL     1     -43.073  57.199 -57.221  1.00  0.00     0.030 A 
HETATM   34  N   UNL     1     -42.725  59.267 -55.836  1.00  0.00    -0.365 N 
HETATM   35  C   UNL     1     -42.880  55.815 -57.214  1.00  0.00     0.002 A 
HETATM   36  C   UNL     1     -42.311  55.178 -56.115  1.00  0.00     0.001 A 
HETATM   37  H   UNL     1     -43.087  59.954 -56.485  1.00  0.00     0.165 HD
HETATM   38  C   UNL     1     -42.181  59.540 -54.609  1.00  0.00     0.096 A 
ENDBRANCH  28  29
ENDBRANCH   1  28
TORSDOF 7
ENDMDL
MODEL 4
REMARK VINA RESULT:      -8.9      2.361      6.465
REMARK  7 active torsions:
REMARK  status: ('A' for Active; 'I' for Inactive)
REMARK    1  A    between atoms: C_9  and  C_10 
REMARK       I    between atoms: C_10  and  N_11 
REMARK    2  A    between atoms: N_11  and  C_12 
REMARK    3  A    between atoms: C_12  and  C_13 
REMARK    4  A    between atoms: C_12  and  C_22 
REMARK       I    between atoms: C_13  and  N_14 
REMARK    5  A    between atoms: N_14  and  C_15 
REMARK    6  A    between atoms: C_15  and  C_16 
REMARK    7  A    between atoms: C_22  and  C_23 
ROOT
HETATM    1  C   UNL     1     -41.339  57.896 -53.888  1.00  0.00     0.180 C 
ENDROOT
BRANCH   1   2
HETATM    2  N   UNL     1     -41.210  56.580 -53.210  1.00  0.00    -0.346 N 
HETATM    3  C   UNL     1     -40.886  55.443 -53.909  1.00  0.00     0.249 C 
HETATM    4  O   UNL     1     -40.437  55.429 -55.054  1.00  0.00    -0.271 OA
HETATM    5  H   UNL     1     -41.856  56.479 -52.432  1.00  0.00     0.163 HD
BRANCH   3   6
HETATM    6  C   UNL     1     -41.031  54.109 -53.167  1.00  0.00     0.281 C 
HETATM    7  N   UNL     1     -40.305  54.231 -51.840  1.00  0.00    -0.058 N 
HETATM    8  C   UNL     1     -40.426  53.027 -50.994  1.00  0.00     0.272 C 
HETATM    9  H   UNL     1     -39.315  54.428 -52.055  1.00  0.00     0.278 HD
HETATM   10  H   UNL     1     -40.628  55.075 -51.352  1.00  0.00     0.278 HD
HETATM   11  C   UNL     1     -40.088  51.772 -51.743  1.00  0.00    -0.026 A 
HETATM   12  C   UNL     1     -40.111  51.733 -53.152  1.00  0.00    -0.048 A 
HETATM   13  C   UNL     1     -39.780  50.608 -51.022  1.00  0.00     0.009 A 
HETATM   14  C   UNL     1     -39.787  50.538 -53.811  1.00  0.00     0.008 A 
HETATM   15  C   UNL     1     -40.406  52.967 -53.975  1.00  0.00     0.082 C 
HETATM   16  C   UNL     1     -39.469  49.392 -53.082  1.00  0.00     0.001 A 
HETATM   17  C   UNL     1     -39.469  49.426 -51.691  1.00  0.00     0.001 A 
ENDBRANCH   3   6
ENDBRANCH   1   2
BRANCH   1  18
HETATM   18  C   UNL     1     -41.152  58.963 -52.783  1.00  0.00     0.241 C 
HETATM   19  N   UNL     1     -42.288  59.523 -52.268  1.00  0.00    -0.353 N 
HETATM   20  H   UNL     1     -43.209  59.146 -52.476  1.00  0.00     0.162 HD
HETATM   21  O   UNL     1     -40.022  59.343 -52.455  1.00  0.00    -0.271 OA
BRANCH  19  22
HETATM   22  C   UNL     1     -42.221  60.521 -51.222  1.00  0.00     0.187 C 
BRANCH  22  23
HETATM   23  C   UNL     1     -43.512  60.582 -50.496  1.00  0.00     0.070 A 
HETATM   24  O   UNL     1     -44.482  59.700 -50.882  1.00  0.00    -0.325 OA
HETATM   25  C   UNL     1     -45.560  59.920 -50.087  1.00  0.00     0.142 A 
HETATM   26  C   UNL     1     -45.297  60.923 -49.186  1.00  0.00     0.027 A 
HETATM   27  C   UNL     1     -43.974  61.354 -49.449  1.00  0.00     0.036 A 
ENDBRANCH  22  23
ENDBRANCH  19  22
ENDBRANCH   1  18
BRANCH   1  28
HETATM   28  C   UNL     1     -42.634  58.044 -54.706  1.00  0.00     0.075 C 
BRANCH  28  29
HETATM   29  C   UNL     1     -42.437  58.458 -56.134  1.00  0.00    -0.028 A 
HETATM   30  C   UNL     1     -42.587  57.624 -57.291  1.00  0.00    -0.002 A 
HETATM   31  C   UNL     1     -42.211  58.377 -58.402  1.00  0.00     0.042 A 
HETATM   32  C   UNL     1     -42.985  56.286 -57.495  1.00  0.00     0.014 A 
HETATM   33  C   UNL     1     -42.204  57.862 -59.704  1.00  0.00     0.030 A 
HETATM   34  N   UNL     1     -41.863  59.626 -57.947  1.00  0.00    -0.365 N 
HETATM   35  C   UNL     1     -42.598  56.532 -59.877  1.00  0.00     0.002 A 
HETATM   36  C   UNL     1     -42.986  55.754 -58.790  1.00  0.00     0.001 A 
HETATM   37  H   UNL     1     -41.532  60.377 -58.540  1.00  0.00     0.165 HD
HETATM   38  C   UNL     1     -41.983  59.683 -56.584  1.00  0.00     0.096 A 
ENDBRANCH  28  29
ENDBRANCH   1  28
TORSDOF 7
ENDMDL
MODEL 5
REMARK VINA RESULT:      -8.5      1.670      2.222
REMARK  7 active torsions:
REMARK  status: ('A' for Active; 'I' for Inactive)
REMARK    1  A    between atoms: C_9  and  C_10 
REMARK       I    between atoms: C_10  and  N_11 
REMARK    2  A    between atoms: N_11  and  C_12 
REMARK    3  A    between atoms: C_12  and  C_13 
REMARK    4  A    between atoms: C_12  and  C_22 
REMARK       I    between atoms: C_13  and  N_14 
REMARK    5  A    between atoms: N_14  and  C_15 
REMARK    6  A    between atoms: C_15  and  C_16 
REMARK    7  A    between atoms: C_22  and  C_23 
ROOT
HETATM    1  C   UNL     1     -43.149  57.861 -55.762  1.00  0.00     0.180 C 
ENDROOT
BRANCH   1   2
HETATM    2  N   UNL     1     -42.866  56.554 -55.112  1.00  0.00    -0.346 N 
HETATM    3  C   UNL     1     -43.386  56.240 -53.880  1.00  0.00     0.249 C 
HETATM    4  O   UNL     1     -44.297  56.854 -53.327  1.00  0.00    -0.271 OA
HETATM    5  H   UNL     1     -41.935  56.208 -55.326  1.00  0.00     0.163 HD
BRANCH   3   6
HETATM    6  C   UNL     1     -42.829  54.987 -53.193  1.00  0.00     0.281 C 
HETATM    7  N   UNL     1     -41.854  55.435 -52.121  1.00  0.00    -0.058 N 
HETATM    8  C   UNL     1     -41.294  54.318 -51.336  1.00  0.00     0.272 C 
HETATM    9  H   UNL     1     -41.103  55.960 -52.596  1.00  0.00     0.278 HD
HETATM   10  H   UNL     1     -42.307  56.135 -51.520  1.00  0.00     0.278 HD
HETATM   11  C   UNL     1     -40.753  53.226 -52.210  1.00  0.00    -0.026 A 
HETATM   12  C   UNL     1     -41.155  53.100 -53.556  1.00  0.00    -0.048 A 
HETATM   13  C   UNL     1     -39.860  52.291 -51.664  1.00  0.00     0.009 A 
HETATM   14  C   UNL     1     -40.624  52.064 -54.337  1.00  0.00     0.008 A 
HETATM   15  C   UNL     1     -42.091  54.099 -54.200  1.00  0.00     0.082 C 
HETATM   16  C   UNL     1     -39.726  51.151 -53.786  1.00  0.00     0.001 A 
HETATM   17  C   UNL     1     -39.347  51.261 -52.451  1.00  0.00     0.001 A 
ENDBRANCH   3   6
ENDBRANCH   1   2
BRANCH   1  18
HETATM   18  C   UNL     1     -43.287  57.562 -57.274  1.00  0.00     0.241 C 
HETATM   19  N   UNL     1     -44.056  58.424 -58.005  1.00  0.00    -0.353 N 
HETATM   20  H   UNL     1     -44.383  59.305 -57.618  1.00  0.00     0.162 HD
HETATM   21  O   UNL     1     -42.793  56.540 -57.764  1.00  0.00    -0.271 OA
BRANCH  19  22
HETATM   22  C   UNL     1     -44.238  58.239 -59.429  1.00  0.00     0.187 C 
BRANCH  22  23
HETATM   23  C   UNL     1     -43.399  59.206 -60.177  1.00  0.00     0.070 A 
HETATM   24  O   UNL     1     -43.972  59.817 -61.256  1.00  0.00    -0.325 OA
HETATM   25  C   UNL     1     -43.043  60.658 -61.778  1.00  0.00     0.142 A 
HETATM   26  C   UNL     1     -41.883  60.608 -61.044  1.00  0.00     0.027 A 
HETATM   27  C   UNL     1     -42.109  59.668 -60.010  1.00  0.00     0.036 A 
ENDBRANCH  22  23
ENDBRANCH  19  22
ENDBRANCH   1  18
BRANCH   1  28
HETATM   28  C   UNL     1     -42.123  58.954 -55.419  1.00  0.00     0.075 C 
BRANCH  28  29
HETATM   29  C   UNL     1     -42.353  59.651 -54.110  1.00  0.00    -0.028 A 
HETATM   30  C   UNL     1     -41.583  59.486 -52.911  1.00  0.00    -0.002 A 
HETATM   31  C   UNL     1     -42.200  60.237 -51.911  1.00  0.00     0.042 A 
HETATM   32  C   UNL     1     -40.430  58.746 -52.575  1.00  0.00     0.014 A 
HETATM   33  C   UNL     1     -41.730  60.280 -50.593  1.00  0.00     0.030 A 
HETATM   34  N   UNL     1     -43.291  60.850 -52.478  1.00  0.00    -0.365 N 
HETATM   35  C   UNL     1     -40.590  59.534 -50.286  1.00  0.00     0.002 A 
HETATM   36  C   UNL     1     -39.945  58.779 -51.262  1.00  0.00     0.001 A 
HETATM   37  H   UNL     1     -43.935  61.448 -51.975  1.00  0.00     0.165 HD
HETATM   38  C   UNL     1     -43.400  60.496 -53.797  1.00  0.00     0.096 A 
ENDBRANCH  28  29
ENDBRANCH   1  28
TORSDOF 7
ENDMDL
MODEL 6
REMARK VINA RESULT:      -8.5      3.199      6.602
REMARK  7 active torsions:
REMARK  status: ('A' for Active; 'I' for Inactive)
REMARK    1  A    between atoms: C_9  and  C_10 
REMARK       I    between atoms: C_10  and  N_11 
REMARK    2  A    between atoms: N_11  and  C_12 
REMARK    3  A    between atoms: C_12  and  C_13 
REMARK    4  A    between atoms: C_12  and  C_22 
REMARK       I    between atoms: C_13  and  N_14 
REMARK    5  A    between atoms: N_14  and  C_15 
REMARK    6  A    between atoms: C_15  and  C_16 
REMARK    7  A    between atoms: C_22  and  C_23 
ROOT
HETATM    1  C   UNL     1     -43.984  57.306 -53.022  1.00  0.00     0.180 C 
ENDROOT
BRANCH   1   2
HETATM    2  N   UNL     1     -43.536  55.970 -52.553  1.00  0.00    -0.346 N 
HETATM    3  C   UNL     1     -42.202  55.668 -52.420  1.00  0.00     0.249 C 
HETATM    4  O   UNL     1     -41.293  56.496 -52.420  1.00  0.00    -0.271 OA
HETATM    5  H   UNL     1     -44.152  55.223 -52.860  1.00  0.00     0.163 HD
BRANCH   3   6
HETATM    6  C   UNL     1     -41.846  54.196 -52.180  1.00  0.00     0.281 C 
HETATM    7  N   UNL     1     -40.631  54.149 -51.274  1.00  0.00    -0.058 N 
HETATM    8  C   UNL     1     -40.224  52.778 -50.909  1.00  0.00     0.272 C 
HETATM    9  H   UNL     1     -39.867  54.637 -51.767  1.00  0.00     0.278 HD
HETATM   10  H   UNL     1     -40.803  54.731 -50.443  1.00  0.00     0.278 HD
HETATM   11  C   UNL     1     -40.104  51.886 -52.108  1.00  0.00    -0.026 A 
HETATM   12  C   UNL     1     -40.741  52.206 -53.326  1.00  0.00    -0.048 A 
HETATM   13  C   UNL     1     -39.375  50.691 -52.002  1.00  0.00     0.009 A 
HETATM   14  C   UNL     1     -40.601  51.343 -54.421  1.00  0.00     0.008 A 
HETATM   15  C   UNL     1     -41.511  53.496 -53.501  1.00  0.00     0.082 C 
HETATM   16  C   UNL     1     -39.862  50.166 -54.305  1.00  0.00     0.001 A 
HETATM   17  C   UNL     1     -39.253  49.838 -53.098  1.00  0.00     0.001 A 
ENDBRANCH   3   6
ENDBRANCH   1   2
BRANCH   1  18
HETATM   18  C   UNL     1     -44.892  57.867 -51.901  1.00  0.00     0.241 C 
HETATM   19  N   UNL     1     -45.336  59.151 -52.051  1.00  0.00    -0.353 N 
HETATM   20  H   UNL     1     -45.217  59.657 -52.925  1.00  0.00     0.162 HD
HETATM   21  O   UNL     1     -45.125  57.203 -50.884  1.00  0.00    -0.271 OA
BRANCH  19  22
HETATM   22  C   UNL     1     -46.200  59.764 -51.065  1.00  0.00     0.187 C 
BRANCH  22  23
HETATM   23  C   UNL     1     -45.429  60.729 -50.245  1.00  0.00     0.070 A 
HETATM   24  O   UNL     1     -44.633  61.613 -50.915  1.00  0.00    -0.325 OA
HETATM   25  C   UNL     1     -44.037  62.400 -49.983  1.00  0.00     0.142 A 
HETATM   26  C   UNL     1     -44.447  62.044 -48.721  1.00  0.00     0.027 A 
HETATM   27  C   UNL     1     -45.345  60.962 -48.887  1.00  0.00     0.036 A 
ENDBRANCH  22  23
ENDBRANCH  19  22
ENDBRANCH   1  18
BRANCH   1  28
HETATM   28  C   UNL     1     -44.632  57.285 -54.417  1.00  0.00     0.075 C 
BRANCH  28  29
HETATM   29  C   UNL     1     -43.669  57.172 -55.561  1.00  0.00    -0.028 A 
HETATM   30  C   UNL     1     -43.254  58.234 -56.434  1.00  0.00    -0.002 A 
HETATM   31  C   UNL     1     -42.438  57.673 -57.415  1.00  0.00     0.042 A 
HETATM   32  C   UNL     1     -43.520  59.617 -56.495  1.00  0.00     0.014 A 
HETATM   33  C   UNL     1     -41.879  58.423 -58.457  1.00  0.00     0.030 A 
HETATM   34  N   UNL     1     -42.340  56.330 -57.144  1.00  0.00    -0.365 N 
HETATM   35  C   UNL     1     -42.162  59.790 -58.498  1.00  0.00     0.002 A 
HETATM   36  C   UNL     1     -42.968  60.383 -57.530  1.00  0.00     0.001 A 
HETATM   37  H   UNL     1     -41.818  55.671 -57.709  1.00  0.00     0.165 HD
HETATM   38  C   UNL     1     -43.085  56.015 -56.039  1.00  0.00     0.096 A 
ENDBRANCH  28  29
ENDBRANCH   1  28
TORSDOF 7
ENDMDL
MODEL 7
REMARK VINA RESULT:      -8.4      2.028      5.976
REMARK  7 active torsions:
REMARK  status: ('A' for Active; 'I' for Inactive)
REMARK    1  A    between atoms: C_9  and  C_10 
REMARK       I    between atoms: C_10  and  N_11 
REMARK    2  A    between atoms: N_11  and  C_12 
REMARK    3  A    between atoms: C_12  and  C_13 
REMARK    4  A    between atoms: C_12  and  C_22 
REMARK       I    between atoms: C_13  and  N_14 
REMARK    5  A    between atoms: N_14  and  C_15 
REMARK    6  A    between atoms: C_15  and  C_16 
REMARK    7  A    between atoms: C_22  and  C_23 
ROOT
HETATM    1  C   UNL     1     -42.109  56.597 -55.668  1.00  0.00     0.180 C 
ENDROOT
BRANCH   1   2
HETATM    2  N   UNL     1     -42.677  57.337 -54.512  1.00  0.00    -0.346 N 
HETATM    3  C   UNL     1     -41.879  57.789 -53.489  1.00  0.00     0.249 C 
HETATM    4  O   UNL     1     -40.652  57.860 -53.537  1.00  0.00    -0.271 OA
HETATM    5  H   UNL     1     -43.610  57.018 -54.266  1.00  0.00     0.163 HD
BRANCH   3   6
HETATM    6  C   UNL     1     -42.590  58.307 -52.233  1.00  0.00     0.281 C 
HETATM    7  N   UNL     1     -44.085  58.163 -52.448  1.00  0.00    -0.058 N 
HETATM    8  C   UNL     1     -44.887  58.568 -51.278  1.00  0.00     0.272 C 
HETATM    9  H   UNL     1     -44.328  58.734 -53.273  1.00  0.00     0.278 HD
HETATM   10  H   UNL     1     -44.295  57.200 -52.741  1.00  0.00     0.278 HD
HETATM   11  C   UNL     1     -44.491  59.919 -50.760  1.00  0.00    -0.026 A 
HETATM   12  C   UNL     1     -43.235  60.481 -51.069  1.00  0.00    -0.048 A 
HETATM   13  C   UNL     1     -45.373  60.616 -49.920  1.00  0.00     0.009 A 
HETATM   14  C   UNL     1     -42.906  61.746 -50.563  1.00  0.00     0.008 A 
HETATM   15  C   UNL     1     -42.261  59.784 -51.994  1.00  0.00     0.082 C 
HETATM   16  C   UNL     1     -43.799  62.434 -49.742  1.00  0.00     0.001 A 
HETATM   17  C   UNL     1     -45.028  61.869 -49.418  1.00  0.00     0.001 A 
ENDBRANCH   3   6
ENDBRANCH   1   2
BRANCH   1  18
HETATM   18  C   UNL     1     -42.584  57.355 -56.931  1.00  0.00     0.241 C 
HETATM   19  N   UNL     1     -42.446  56.707 -58.127  1.00  0.00    -0.353 N 
HETATM   20  H   UNL     1     -42.202  55.721 -58.174  1.00  0.00     0.162 HD
HETATM   21  O   UNL     1     -42.985  58.522 -56.855  1.00  0.00    -0.271 OA
BRANCH  19  22
HETATM   22  C   UNL     1     -42.871  57.325 -59.365  1.00  0.00     0.187 C 
BRANCH  22  23
HETATM   23  C   UNL     1     -44.092  56.654 -59.873  1.00  0.00     0.070 A 
HETATM   24  O   UNL     1     -43.921  55.705 -60.840  1.00  0.00    -0.325 OA
HETATM   25  C   UNL     1     -45.150  55.220 -61.146  1.00  0.00     0.142 A 
HETATM   26  C   UNL     1     -46.113  55.834 -60.382  1.00  0.00     0.027 A 
HETATM   27  C   UNL     1     -45.432  56.764 -59.559  1.00  0.00     0.036 A 
ENDBRANCH  22  23
ENDBRANCH  19  22
ENDBRANCH   1  18
BRANCH   1  28
HETATM   28  C   UNL     1     -42.442  55.095 -55.663  1.00  0.00     0.075 C 
BRANCH  28  29
HETATM   29  C   UNL     1     -41.522  54.246 -54.835  1.00  0.00    -0.028 A 
HETATM   30  C   UNL     1     -41.633  53.993 -53.427  1.00  0.00    -0.002 A 
HETATM   31  C   UNL     1     -40.520  53.244 -53.047  1.00  0.00     0.042 A 
HETATM   32  C   UNL     1     -42.566  54.355 -52.433  1.00  0.00     0.014 A 
HETATM   33  C   UNL     1     -40.288  52.844 -51.726  1.00  0.00     0.030 A 
HETATM   34  N   UNL     1     -39.769  53.031 -54.178  1.00  0.00    -0.365 N 
HETATM   35  C   UNL     1     -41.225  53.220 -50.760  1.00  0.00     0.002 A 
HETATM   36  C   UNL     1     -42.351  53.962 -51.106  1.00  0.00     0.001 A 
HETATM   37  H   UNL     1     -38.892  52.526 -54.193  1.00  0.00     0.165 HD
HETATM   38  C   UNL     1     -40.355  53.639 -55.257  1.00  0.00     0.096 A 
ENDBRANCH  28  29
ENDBRANCH   1  28
TORSDOF 7
ENDMDL
MODEL 8
REMARK VINA RESULT:      -8.2      1.789      2.324
REMARK  7 active torsions:
REMARK  status: ('A' for Active; 'I' for Inactive)
REMARK    1  A    between atoms: C_9  and  C_10 
REMARK       I    between atoms: C_10  and  N_11 
REMARK    2  A    between atoms: N_11  and  C_12 
REMARK    3  A    between atoms: C_12  and  C_13 
REMARK    4  A    between atoms: C_12  and  C_22 
REMARK       I    between atoms: C_13  and  N_14 
REMARK    5  A    between atoms: N_14  and  C_15 
REMARK    6  A    between atoms: C_15  and  C_16 
REMARK    7  A    between atoms: C_22  and  C_23 
ROOT
HETATM    1  C   UNL     1     -44.716  58.984 -54.638  1.00  0.00     0.180 C 
ENDROOT
BRANCH   1   2
HETATM    2  N   UNL     1     -43.845  57.798 -54.849  1.00  0.00    -0.346 N 
HETATM    3  C   UNL     1     -43.659  56.862 -53.862  1.00  0.00     0.249 C 
HETATM    4  O   UNL     1     -44.352  56.762 -52.851  1.00  0.00    -0.271 OA
HETATM    5  H   UNL     1     -43.052  58.001 -55.452  1.00  0.00     0.163 HD
BRANCH   3   6
HETATM    6  C   UNL     1     -42.550  55.827 -54.089  1.00  0.00     0.281 C 
HETATM    7  N   UNL     1     -43.154  54.648 -54.826  1.00  0.00    -0.058 N 
HETATM    8  C   UNL     1     -42.169  53.603 -55.167  1.00  0.00     0.272 C 
HETATM    9  H   UNL     1     -43.899  54.263 -54.223  1.00  0.00     0.278 HD
HETATM   10  H   UNL     1     -43.655  54.986 -55.657  1.00  0.00     0.278 HD
HETATM   11  C   UNL     1     -41.338  53.201 -53.986  1.00  0.00    -0.026 A 
HETATM   12  C   UNL     1     -41.218  54.037 -52.857  1.00  0.00    -0.048 A 
HETATM   13  C   UNL     1     -40.636  51.986 -54.024  1.00  0.00     0.009 A 
HETATM   14  C   UNL     1     -40.431  53.621 -51.774  1.00  0.00     0.008 A 
HETATM   15  C   UNL     1     -41.978  55.342 -52.753  1.00  0.00     0.082 C 
HETATM   16  C   UNL     1     -39.751  52.405 -51.820  1.00  0.00     0.001 A 
HETATM   17  C   UNL     1     -39.850  51.590 -52.944  1.00  0.00     0.001 A 
ENDBRANCH   3   6
ENDBRANCH   1   2
BRANCH   1  18
HETATM   18  C   UNL     1     -45.490  59.182 -55.964  1.00  0.00     0.241 C 
HETATM   19  N   UNL     1     -45.896  58.052 -56.616  1.00  0.00    -0.353 N 
HETATM   20  H   UNL     1     -45.843  57.136 -56.178  1.00  0.00     0.162 HD
HETATM   21  O   UNL     1     -45.648  60.312 -56.440  1.00  0.00    -0.271 OA
BRANCH  19  22
HETATM   22  C   UNL     1     -46.637  58.130 -57.856  1.00  0.00     0.187 C 
BRANCH  22  23
HETATM   23  C   UNL     1     -46.031  57.231 -58.867  1.00  0.00     0.070 A 
HETATM   24  O   UNL     1     -46.889  56.514 -59.652  1.00  0.00    -0.325 OA
HETATM   25  C   UNL     1     -46.131  55.776 -60.502  1.00  0.00     0.142 A 
HETATM   26  C   UNL     1     -44.795  56.016 -60.286  1.00  0.00     0.027 A 
HETATM   27  C   UNL     1     -44.728  56.954 -59.228  1.00  0.00     0.036 A 
ENDBRANCH  22  23
ENDBRANCH  19  22
ENDBRANCH   1  18
BRANCH   1  28
HETATM   28  C   UNL     1     -43.956  60.229 -54.150  1.00  0.00     0.075 C 
BRANCH  28  29
HETATM   29  C   UNL     1     -43.425  60.138 -52.750  1.00  0.00    -0.028 A 
HETATM   30  C   UNL     1     -42.128  59.667 -52.359  1.00  0.00    -0.002 A 
HETATM   31  C   UNL     1     -42.090  59.653 -50.965  1.00  0.00     0.042 A 
HETATM   32  C   UNL     1     -40.988  59.226 -53.063  1.00  0.00     0.014 A 
HETATM   33  C   UNL     1     -40.976  59.215 -50.239  1.00  0.00     0.030 A 
HETATM   34  N   UNL     1     -43.306  60.114 -50.521  1.00  0.00    -0.365 N 
HETATM   35  C   UNL     1     -39.862  58.778 -50.961  1.00  0.00     0.002 A 
HETATM   36  C   UNL     1     -39.864  58.785 -52.353  1.00  0.00     0.001 A 
HETATM   37  H   UNL     1     -43.563  60.195 -49.545  1.00  0.00     0.165 HD
HETATM   38  C   UNL     1     -44.121  60.398 -51.584  1.00  0.00     0.096 A 
ENDBRANCH  28  29
ENDBRANCH   1  28
TORSDOF 7
ENDMDL
MODEL 9
REMARK VINA RESULT:      -8.2      2.651      6.775
REMARK  7 active torsions:
REMARK  status: ('A' for Active; 'I' for Inactive)
REMARK    1  A    between atoms: C_9  and  C_10 
REMARK       I    between atoms: C_10  and  N_11 
REMARK    2  A    between atoms: N_11  and  C_12 
REMARK    3  A    between atoms: C_12  and  C_13 
REMARK    4  A    between atoms: C_12  and  C_22 
REMARK       I    between atoms: C_13  and  N_14 
REMARK    5  A    between atoms: N_14  and  C_15 
REMARK    6  A    between atoms: C_15  and  C_16 
REMARK    7  A    between atoms: C_22  and  C_23 
ROOT
HETATM    1  C   UNL     1     -41.356  55.647 -51.737  1.00  0.00     0.180 C 
ENDROOT
BRANCH   1   2
HETATM    2  N   UNL     1     -42.276  55.642 -52.904  1.00  0.00    -0.346 N 
HETATM    3  C   UNL     1     -41.798  55.613 -54.192  1.00  0.00     0.249 C 
HETATM    4  O   UNL     1     -40.640  55.339 -54.504  1.00  0.00    -0.271 OA
HETATM    5  H   UNL     1     -43.121  56.179 -52.735  1.00  0.00     0.163 HD
BRANCH   3   6
HETATM    6  C   UNL     1     -42.813  55.869 -55.313  1.00  0.00     0.281 C 
HETATM    7  N   UNL     1     -42.042  56.140 -56.590  1.00  0.00    -0.058 N 
HETATM    8  C   UNL     1     -42.910  56.338 -57.767  1.00  0.00     0.272 C 
HETATM    9  H   UNL     1     -41.461  56.976 -56.421  1.00  0.00     0.278 HD
HETATM   10  H   UNL     1     -41.359  55.387 -56.741  1.00  0.00     0.278 HD
HETATM   11  C   UNL     1     -43.997  57.338 -57.508  1.00  0.00    -0.026 A 
HETATM   12  C   UNL     1     -44.389  57.668 -56.193  1.00  0.00    -0.048 A 
HETATM   13  C   UNL     1     -44.661  57.925 -58.596  1.00  0.00     0.009 A 
HETATM   14  C   UNL     1     -45.410  58.608 -55.997  1.00  0.00     0.008 A 
HETATM   15  C   UNL     1     -43.684  57.086 -54.987  1.00  0.00     0.082 C 
HETATM   16  C   UNL     1     -46.051  59.195 -57.088  1.00  0.00     0.001 A 
HETATM   17  C   UNL     1     -45.681  58.851 -58.384  1.00  0.00     0.001 A 
ENDBRANCH   3   6
ENDBRANCH   1   2
BRANCH   1  18
HETATM   18  C   UNL     1     -41.203  54.167 -51.311  1.00  0.00     0.241 C 
HETATM   19  N   UNL     1     -40.038  53.542 -51.659  1.00  0.00    -0.353 N 
HETATM   20  H   UNL     1     -39.245  54.061 -52.030  1.00  0.00     0.162 HD
HETATM   21  O   UNL     1     -42.134  53.568 -50.761  1.00  0.00    -0.271 OA
BRANCH  19  22
HETATM   22  C   UNL     1     -39.792  52.163 -51.297  1.00  0.00     0.187 C 
BRANCH  22  23
HETATM   23  C   UNL     1     -39.772  51.315 -52.514  1.00  0.00     0.070 A 
HETATM   24  O   UNL     1     -39.495  49.989 -52.340  1.00  0.00    -0.325 OA
HETATM   25  C   UNL     1     -39.539  49.408 -53.565  1.00  0.00     0.142 A 
HETATM   26  C   UNL     1     -39.853  50.337 -54.527  1.00  0.00     0.027 A 
HETATM   27  C   UNL     1     -40.002  51.572 -53.850  1.00  0.00     0.036 A 
ENDBRANCH  22  23
ENDBRANCH  19  22
ENDBRANCH   1  18
BRANCH   1  28
HETATM   28  C   UNL     1     -41.798  56.593 -50.608  1.00  0.00     0.075 C 
BRANCH  28  29
HETATM   29  C   UNL     1     -41.925  58.035 -51.003  1.00  0.00    -0.028 A 
HETATM   30  C   UNL     1     -43.110  58.685 -51.482  1.00  0.00    -0.002 A 
HETATM   31  C   UNL     1     -42.761  59.990 -51.829  1.00  0.00     0.042 A 
HETATM   32  C   UNL     1     -44.446  58.277 -51.678  1.00  0.00     0.014 A 
HETATM   33  C   UNL     1     -43.674  60.904 -52.367  1.00  0.00     0.030 A 
HETATM   34  N   UNL     1     -41.422  60.138 -51.556  1.00  0.00    -0.365 N 
HETATM   35  C   UNL     1     -44.990  60.473 -52.556  1.00  0.00     0.002 A 
HETATM   36  C   UNL     1     -45.374  59.179 -52.214  1.00  0.00     0.001 A 
HETATM   37  H   UNL     1     -40.896  60.986 -51.727  1.00  0.00     0.165 HD
HETATM   38  C   UNL     1     -40.906  58.966 -51.070  1.00  0.00     0.096 A 
ENDBRANCH  28  29
ENDBRANCH   1  28
TORSDOF 7
ENDMDL
MODEL 10
REMARK VINA RESULT:      -8.2      3.346      7.474
REMARK  7 active torsions:
REMARK  status: ('A' for Active; 'I' for Inactive)
REMARK    1  A    between atoms: C_9  and  C_10 
REMARK       I    between atoms: C_10  and  N_11 
REMARK    2  A    between atoms: N_11  and  C_12 
REMARK    3  A    between atoms: C_12  and  C_13 
REMARK    4  A    between atoms: C_12  and  C_22 
REMARK       I    between atoms: C_13  and  N_14 
REMARK    5  A    between atoms: N_14  and  C_15 
REMARK    6  A    between atoms: C_15  and  C_16 
REMARK    7  A    between atoms: C_22  and  C_23 
ROOT
HETATM    1  C   UNL     1     -44.418  59.232 -51.356  1.00  0.00     0.180 C 
ENDROOT
BRANCH   1   2
HETATM    2  N   UNL     1     -43.949  57.837 -51.151  1.00  0.00    -0.346 N 
HETATM    3  C   UNL     1     -42.620  57.505 -51.264  1.00  0.00     0.249 C 
HETATM    4  O   UNL     1     -41.695  58.315 -51.284  1.00  0.00    -0.271 OA
HETATM    5  H   UNL     1     -44.627  57.149 -51.465  1.00  0.00     0.163 HD
BRANCH   3   6
HETATM    6  C   UNL     1     -42.280  56.010 -51.289  1.00  0.00     0.281 C 
HETATM    7  N   UNL     1     -41.027  55.800 -50.462  1.00  0.00    -0.058 N 
HETATM    8  C   UNL     1     -40.628  54.383 -50.351  1.00  0.00     0.272 C 
HETATM    9  H   UNL     1     -40.277  56.356 -50.904  1.00  0.00     0.278 HD
HETATM   10  H   UNL     1     -41.150  56.237 -49.539  1.00  0.00     0.278 HD
HETATM   11  C   UNL     1     -40.578  53.702 -51.686  1.00  0.00    -0.026 A 
HETATM   12  C   UNL     1     -41.264  54.228 -52.801  1.00  0.00    -0.048 A 
HETATM   13  C   UNL     1     -39.867  52.499 -51.814  1.00  0.00     0.009 A 
HETATM   14  C   UNL     1     -41.190  53.558 -54.030  1.00  0.00     0.008 A 
HETATM   15  C   UNL     1     -42.018  55.537 -52.723  1.00  0.00     0.082 C 
HETATM   16  C   UNL     1     -40.467  52.371 -54.147  1.00  0.00     0.001 A 
HETATM   17  C   UNL     1     -39.811  51.840 -53.041  1.00  0.00     0.001 A 
ENDBRANCH   3   6
ENDBRANCH   1   2
BRANCH   1  18
HETATM   18  C   UNL     1     -45.257  59.585 -50.104  1.00  0.00     0.241 C 
HETATM   19  N   UNL     1     -44.734  60.520 -49.255  1.00  0.00    -0.353 N 
HETATM   20  H   UNL     1     -43.922  61.076 -49.509  1.00  0.00     0.162 HD
HETATM   21  O   UNL     1     -46.305  58.979 -49.854  1.00  0.00    -0.271 OA
BRANCH  19  22
HETATM   22  C   UNL     1     -45.446  60.928 -48.063  1.00  0.00     0.187 C 
BRANCH  22  23
HETATM   23  C   UNL     1     -45.128  62.340 -47.741  1.00  0.00     0.070 A 
HETATM   24  O   UNL     1     -44.455  63.055 -48.690  1.00  0.00    -0.325 OA
HETATM   25  C   UNL     1     -44.282  64.308 -48.198  1.00  0.00     0.142 A 
HETATM   26  C   UNL     1     -44.844  64.416 -46.949  1.00  0.00     0.027 A 
HETATM   27  C   UNL     1     -45.391  63.144 -46.650  1.00  0.00     0.036 A 
ENDBRANCH  22  23
ENDBRANCH  19  22
ENDBRANCH   1  18
BRANCH   1  28
HETATM   28  C   UNL     1     -45.145  59.448 -52.694  1.00  0.00     0.075 C 
BRANCH  28  29
HETATM   29  C   UNL     1     -44.247  59.686 -53.872  1.00  0.00    -0.028 A 
HETATM   30  C   UNL     1     -43.809  58.703 -54.821  1.00  0.00    -0.002 A 
HETATM   31  C   UNL     1     -42.910  59.327 -55.684  1.00  0.00     0.042 A 
HETATM   32  C   UNL     1     -44.075  57.331 -55.010  1.00  0.00     0.014 A 
HETATM   33  C   UNL     1     -42.258  58.650 -56.721  1.00  0.00     0.030 A 
HETATM   34  N   UNL     1     -42.815  60.641 -55.292  1.00  0.00    -0.365 N 
HETATM   35  C   UNL     1     -42.535  57.290 -56.884  1.00  0.00     0.002 A 
HETATM   36  C   UNL     1     -43.433  56.638 -56.044  1.00  0.00     0.001 A 
HETATM   37  H   UNL     1     -42.217  61.326 -55.736  1.00  0.00     0.165 HD
HETATM   38  C   UNL     1     -43.606  60.866 -54.197  1.00  0.00     0.096 A 
ENDBRANCH  28  29
ENDBRANCH   1  28
TORSDOF 7
ENDMDL
