MODEL 1
REMARK VINA RESULT:      -8.6      0.000      0.000
REMARK  3 active torsions:
REMARK  status: ('A' for Active; 'I' for Inactive)
REMARK    1  A    between atoms: C_9  and  C_10 
REMARK    2  A    between atoms: C_16  and  C_17 
REMARK       I    between atoms: C_17  and  N_18 
REMARK    3  A    between atoms: N_18  and  C_19 
ROOT
HETATM    1  C   UNL     1     -41.715  54.757 -49.246  1.00  0.00     0.070 C 
HETATM    2  C   UNL     1     -41.493  55.793 -50.318  1.00  0.00     0.037 A 
HETATM    3  N   UNL     1     -41.314  57.098 -49.869  1.00  0.00    -0.191 N 
HETATM    4  C   UNL     1     -40.930  58.105 -50.680  1.00  0.00     0.735 A 
HETATM    5  N   UNL     1     -40.819  57.878 -52.023  1.00  0.00    -0.091 N 
HETATM    6  N   UNL     1     -40.292  58.955 -52.633  1.00  0.00     0.012 NA
HETATM    7  N   UNL     1     -40.167  59.857 -51.664  1.00  0.00     0.033 NA
HETATM    8  N   UNL     1     -40.556  59.339 -50.443  1.00  0.00     0.030 NA
HETATM    9  C   UNL     1     -41.083  56.603 -52.673  1.00  0.00     0.216 A 
HETATM   10  C   UNL     1     -41.402  55.524 -51.645  1.00  0.00     0.063 A 
HETATM   11  H   UNL     1     -41.325  57.258 -48.864  1.00  0.00     0.184 HD
ENDROOT
BRANCH  10  12
HETATM   12  C   UNL     1     -41.523  54.167 -52.236  1.00  0.00     0.256 C 
HETATM   13  N   UNL     1     -40.343  53.458 -52.219  1.00  0.00    -0.323 N 
HETATM   14  H   UNL     1     -39.560  53.894 -51.747  1.00  0.00     0.169 HD
HETATM   15  O   UNL     1     -42.622  53.799 -52.630  1.00  0.00    -0.267 OA
BRANCH  13  16
HETATM   16  C   UNL     1     -40.104  52.182 -52.770  1.00  0.00     0.035 A 
HETATM   17  C   UNL     1     -40.187  51.893 -54.133  1.00  0.00     0.029 A 
HETATM   18  C   UNL     1     -39.915  50.604 -54.601  1.00  0.00     0.002 A 
HETATM   19  C   UNL     1     -39.549  49.596 -53.713  1.00  0.00     0.000 A 
HETATM   20  C   UNL     1     -39.461  49.874 -52.352  1.00  0.00     0.002 A 
HETATM   21  C   UNL     1     -39.742  51.160 -51.882  1.00  0.00     0.029 A 
ENDBRANCH  13  16
ENDBRANCH  10  12
BRANCH   9  22
HETATM   22  C   UNL     1     -42.206  56.794 -53.686  1.00  0.00     0.064 A 
HETATM   23  N   UNL     1     -41.936  56.550 -54.999  1.00  0.00    -0.263 NA
HETATM   24  C   UNL     1     -42.954  56.682 -55.880  1.00  0.00     0.117 A 
HETATM   25  C   UNL     1     -44.238  57.056 -55.523  1.00  0.00     0.019 A 
HETATM   26  C   UNL     1     -44.501  57.308 -54.183  1.00  0.00     0.003 A 
HETATM   27  C   UNL     1     -43.477  57.175 -53.249  1.00  0.00     0.030 A 
ENDBRANCH   9  22
TORSDOF 3
ENDMDL
MODEL 2
REMARK VINA RESULT:      -8.5      0.560      1.377
REMARK  3 active torsions:
REMARK  status: ('A' for Active; 'I' for Inactive)
REMARK    1  A    between atoms: C_9  and  C_10 
REMARK    2  A    between atoms: C_16  and  C_17 
REMARK       I    between atoms: C_17  and  N_18 
REMARK    3  A    between atoms: N_18  and  C_19 
ROOT
HETATM    1  C   UNL     1     -41.769  54.813 -49.260  1.00  0.00     0.070 C 
HETATM    2  C   UNL     1     -41.485  55.782 -50.378  1.00  0.00     0.037 A 
HETATM    3  N   UNL     1     -41.314  57.111 -49.997  1.00  0.00    -0.191 N 
HETATM    4  C   UNL     1     -40.880  58.065 -50.845  1.00  0.00     0.735 A 
HETATM    5  N   UNL     1     -40.708  57.760 -52.165  1.00  0.00    -0.091 N 
HETATM    6  N   UNL     1     -40.141  58.795 -52.810  1.00  0.00     0.012 NA
HETATM    7  N   UNL     1     -40.053  59.750 -51.890  1.00  0.00     0.033 NA
HETATM    8  N   UNL     1     -40.505  59.308 -50.661  1.00  0.00     0.030 NA
HETATM    9  C   UNL     1     -40.954  56.451 -52.753  1.00  0.00     0.216 A 
HETATM   10  C   UNL     1     -41.334  55.436 -51.681  1.00  0.00     0.063 A 
HETATM   11  H   UNL     1     -41.371  57.329 -49.004  1.00  0.00     0.184 HD
ENDROOT
BRANCH  10  12
HETATM   12  C   UNL     1     -41.440  54.048 -52.198  1.00  0.00     0.256 C 
HETATM   13  N   UNL     1     -40.242  53.370 -52.190  1.00  0.00    -0.323 N 
HETATM   14  H   UNL     1     -39.454  53.848 -51.770  1.00  0.00     0.169 HD
HETATM   15  O   UNL     1     -42.543  53.634 -52.531  1.00  0.00    -0.267 OA
BRANCH  13  16
HETATM   16  C   UNL     1     -39.990  52.074 -52.683  1.00  0.00     0.035 A 
HETATM   17  C   UNL     1     -39.666  50.981 -51.877  1.00  0.00     0.029 A 
HETATM   18  C   UNL     1     -39.449  49.722 -52.445  1.00  0.00     0.002 A 
HETATM   19  C   UNL     1     -39.565  49.541 -53.821  1.00  0.00     0.000 A 
HETATM   20  C   UNL     1     -39.889  50.623 -54.634  1.00  0.00     0.002 A 
HETATM   21  C   UNL     1     -40.097  51.885 -54.068  1.00  0.00     0.029 A 
ENDBRANCH  13  16
ENDBRANCH  10  12
BRANCH   9  22
HETATM   22  C   UNL     1     -42.025  56.591 -53.828  1.00  0.00     0.064 A 
HETATM   23  N   UNL     1     -43.205  57.182 -53.487  1.00  0.00    -0.263 NA
HETATM   24  C   UNL     1     -44.128  57.338 -54.463  1.00  0.00     0.117 A 
HETATM   25  C   UNL     1     -43.944  56.928 -55.772  1.00  0.00     0.019 A 
HETATM   26  C   UNL     1     -42.741  56.321 -56.107  1.00  0.00     0.003 A 
HETATM   27  C   UNL     1     -41.766  56.150 -55.128  1.00  0.00     0.030 A 
ENDBRANCH   9  22
TORSDOF 3
ENDMDL
MODEL 3
REMARK VINA RESULT:      -7.9      2.096      4.310
REMARK  3 active torsions:
REMARK  status: ('A' for Active; 'I' for Inactive)
REMARK    1  A    between atoms: C_9  and  C_10 
REMARK    2  A    between atoms: C_16  and  C_17 
REMARK       I    between atoms: C_17  and  N_18 
REMARK    3  A    between atoms: N_18  and  C_19 
ROOT
HETATM    1  C   UNL     1     -43.220  54.647 -56.359  1.00  0.00     0.070 C 
HETATM    2  C   UNL     1     -43.459  55.859 -55.495  1.00  0.00     0.037 A 
HETATM    3  N   UNL     1     -43.982  56.972 -56.148  1.00  0.00    -0.191 N 
HETATM    4  C   UNL     1     -44.418  58.067 -55.493  1.00  0.00     0.735 A 
HETATM    5  N   UNL     1     -44.239  58.154 -54.141  1.00  0.00    -0.091 N 
HETATM    6  N   UNL     1     -44.862  59.244 -53.660  1.00  0.00     0.012 NA
HETATM    7  N   UNL     1     -45.341  59.855 -54.740  1.00  0.00     0.033 NA
HETATM    8  N   UNL     1     -45.076  59.130 -55.886  1.00  0.00     0.030 NA
HETATM    9  C   UNL     1     -43.605  57.131 -53.321  1.00  0.00     0.216 A 
HETATM   10  C   UNL     1     -43.256  55.904 -54.155  1.00  0.00     0.063 A 
HETATM   11  H   UNL     1     -44.183  56.886 -57.142  1.00  0.00     0.184 HD
ENDROOT
BRANCH  10  12
HETATM   12  C   UNL     1     -42.753  54.767 -53.344  1.00  0.00     0.256 C 
HETATM   13  N   UNL     1     -41.495  54.347 -53.714  1.00  0.00    -0.323 N 
HETATM   14  H   UNL     1     -41.027  54.893 -54.427  1.00  0.00     0.169 HD
HETATM   15  O   UNL     1     -43.452  54.349 -52.430  1.00  0.00    -0.267 OA
BRANCH  13  16
HETATM   16  C   UNL     1     -40.774  53.250 -53.199  1.00  0.00     0.035 A 
HETATM   17  C   UNL     1     -40.363  53.143 -51.869  1.00  0.00     0.029 A 
HETATM   18  C   UNL     1     -39.667  52.011 -51.433  1.00  0.00     0.002 A 
HETATM   19  C   UNL     1     -39.385  50.974 -52.318  1.00  0.00     0.000 A 
HETATM   20  C   UNL     1     -39.792  51.070 -53.646  1.00  0.00     0.002 A 
HETATM   21  C   UNL     1     -40.480  52.205 -54.085  1.00  0.00     0.029 A 
ENDBRANCH  13  16
ENDBRANCH  10  12
BRANCH   9  22
HETATM   22  C   UNL     1     -42.385  57.739 -52.639  1.00  0.00     0.064 A 
HETATM   23  N   UNL     1     -42.342  57.737 -51.276  1.00  0.00    -0.263 NA
HETATM   24  C   UNL     1     -41.235  58.241 -50.687  1.00  0.00     0.117 A 
HETATM   25  C   UNL     1     -40.158  58.761 -51.386  1.00  0.00     0.019 A 
HETATM   26  C   UNL     1     -40.215  58.763 -52.773  1.00  0.00     0.003 A 
HETATM   27  C   UNL     1     -41.338  58.247 -53.412  1.00  0.00     0.030 A 
ENDBRANCH   9  22
TORSDOF 3
ENDMDL
MODEL 4
REMARK VINA RESULT:      -7.8      2.623      5.821
REMARK  3 active torsions:
REMARK  status: ('A' for Active; 'I' for Inactive)
REMARK    1  A    between atoms: C_9  and  C_10 
REMARK    2  A    between atoms: C_16  and  C_17 
REMARK       I    between atoms: C_17  and  N_18 
REMARK    3  A    between atoms: N_18  and  C_19 
ROOT
HETATM    1  C   UNL     1     -42.037  60.054 -55.755  1.00  0.00     0.070 C 
HETATM    2  C   UNL     1     -41.884  59.001 -54.687  1.00  0.00     0.037 A 
HETATM    3  N   UNL     1     -41.103  59.361 -53.591  1.00  0.00    -0.191 N 
HETATM    4  C   UNL     1     -41.015  58.608 -52.477  1.00  0.00     0.735 A 
HETATM    5  N   UNL     1     -41.615  57.381 -52.449  1.00  0.00    -0.091 N 
HETATM    6  N   UNL     1     -41.535  56.854 -51.214  1.00  0.00     0.012 NA
HETATM    7  N   UNL     1     -40.809  57.730 -50.526  1.00  0.00     0.033 NA
HETATM    8  N   UNL     1     -40.483  58.829 -51.299  1.00  0.00     0.030 NA
HETATM    9  C   UNL     1     -42.371  56.801 -53.550  1.00  0.00     0.216 A 
HETATM   10  C   UNL     1     -42.490  57.788 -54.706  1.00  0.00     0.063 A 
HETATM   11  H   UNL     1     -40.714  60.301 -53.577  1.00  0.00     0.184 HD
ENDROOT
BRANCH  10  12
HETATM   12  C   UNL     1     -43.385  57.314 -55.792  1.00  0.00     0.256 C 
HETATM   13  N   UNL     1     -42.707  56.908 -56.919  1.00  0.00    -0.323 N 
HETATM   14  H   UNL     1     -41.695  56.901 -56.860  1.00  0.00     0.169 HD
HETATM   15  O   UNL     1     -44.591  57.287 -55.583  1.00  0.00    -0.267 OA
BRANCH  13  16
HETATM   16  C   UNL     1     -43.261  56.482 -58.143  1.00  0.00     0.035 A 
HETATM   17  C   UNL     1     -43.615  55.161 -58.421  1.00  0.00     0.029 A 
HETATM   18  C   UNL     1     -44.179  54.823 -59.655  1.00  0.00     0.002 A 
HETATM   19  C   UNL     1     -44.401  55.803 -60.619  1.00  0.00     0.000 A 
HETATM   20  C   UNL     1     -44.052  57.124 -60.352  1.00  0.00     0.002 A 
HETATM   21  C   UNL     1     -43.481  57.462 -59.121  1.00  0.00     0.029 A 
ENDBRANCH  13  16
ENDBRANCH  10  12
BRANCH   9  22
HETATM   22  C   UNL     1     -41.706  55.495 -53.965  1.00  0.00     0.064 A 
HETATM   23  N   UNL     1     -40.559  55.561 -54.698  1.00  0.00    -0.263 NA
HETATM   24  C   UNL     1     -39.958  54.394 -55.021  1.00  0.00     0.117 A 
HETATM   25  C   UNL     1     -40.444  53.149 -54.659  1.00  0.00     0.019 A 
HETATM   26  C   UNL     1     -41.617  53.093 -53.917  1.00  0.00     0.003 A 
HETATM   27  C   UNL     1     -42.259  54.276 -53.562  1.00  0.00     0.030 A 
ENDBRANCH   9  22
TORSDOF 3
ENDMDL
MODEL 5
REMARK VINA RESULT:      -7.7      3.845      6.183
REMARK  3 active torsions:
REMARK  status: ('A' for Active; 'I' for Inactive)
REMARK    1  A    between atoms: C_9  and  C_10 
REMARK    2  A    between atoms: C_16  and  C_17 
REMARK       I    between atoms: C_17  and  N_18 
REMARK    3  A    between atoms: N_18  and  C_19 
ROOT
HETATM    1  C   UNL     1     -42.470  59.485 -55.162  1.00  0.00     0.070 C 
HETATM    2  C   UNL     1     -42.460  59.090 -56.616  1.00  0.00     0.037 A 
HETATM    3  N   UNL     1     -42.363  60.139 -57.526  1.00  0.00    -0.191 N 
HETATM    4  C   UNL     1     -42.162  59.947 -58.846  1.00  0.00     0.735 A 
HETATM    5  N   UNL     1     -42.169  58.676 -59.346  1.00  0.00    -0.091 N 
HETATM    6  N   UNL     1     -41.812  58.686 -60.643  1.00  0.00     0.012 NA
HETATM    7  N   UNL     1     -41.677  59.975 -60.939  1.00  0.00     0.033 NA
HETATM    8  N   UNL     1     -41.887  60.771 -59.828  1.00  0.00     0.030 NA
HETATM    9  C   UNL     1     -42.374  57.473 -58.552  1.00  0.00     0.216 A 
HETATM   10  C   UNL     1     -42.480  57.812 -57.070  1.00  0.00     0.063 A 
HETATM   11  H   UNL     1     -42.286  61.083 -57.153  1.00  0.00     0.184 HD
ENDROOT
BRANCH  10  12
HETATM   12  C   UNL     1     -42.529  56.612 -56.196  1.00  0.00     0.256 C 
HETATM   13  N   UNL     1     -41.303  56.268 -55.673  1.00  0.00    -0.323 N 
HETATM   14  H   UNL     1     -40.534  56.898 -55.870  1.00  0.00     0.169 HD
HETATM   15  O   UNL     1     -43.614  56.084 -55.993  1.00  0.00    -0.267 OA
BRANCH  13  16
HETATM   16  C   UNL     1     -40.998  55.145 -54.876  1.00  0.00     0.035 A 
HETATM   17  C   UNL     1     -40.459  53.959 -55.375  1.00  0.00     0.029 A 
HETATM   18  C   UNL     1     -40.165  52.897 -54.514  1.00  0.00     0.002 A 
HETATM   19  C   UNL     1     -40.400  53.015 -53.147  1.00  0.00     0.000 A 
HETATM   20  C   UNL     1     -40.936  54.195 -52.638  1.00  0.00     0.002 A 
HETATM   21  C   UNL     1     -41.238  55.254 -53.500  1.00  0.00     0.029 A 
ENDBRANCH  13  16
ENDBRANCH  10  12
BRANCH   9  22
HETATM   22  C   UNL     1     -43.607  56.747 -59.075  1.00  0.00     0.064 A 
HETATM   23  N   UNL     1     -44.802  57.402 -59.040  1.00  0.00    -0.263 NA
HETATM   24  C   UNL     1     -45.879  56.760 -59.547  1.00  0.00     0.117 A 
HETATM   25  C   UNL     1     -45.835  55.486 -60.085  1.00  0.00     0.019 A 
HETATM   26  C   UNL     1     -44.614  54.825 -60.110  1.00  0.00     0.003 A 
HETATM   27  C   UNL     1     -43.483  55.459 -59.602  1.00  0.00     0.030 A 
ENDBRANCH   9  22
TORSDOF 3
ENDMDL
MODEL 6
REMARK VINA RESULT:      -7.5      2.185      5.222
REMARK  3 active torsions:
REMARK  status: ('A' for Active; 'I' for Inactive)
REMARK    1  A    between atoms: C_9  and  C_10 
REMARK    2  A    between atoms: C_16  and  C_17 
REMARK       I    between atoms: C_17  and  N_18 
REMARK    3  A    between atoms: N_18  and  C_19 
ROOT
HETATM    1  C   UNL     1     -41.328  52.903 -53.666  1.00  0.00     0.070 C 
HETATM    2  C   UNL     1     -41.394  53.865 -52.507  1.00  0.00     0.037 A 
HETATM    3  N   UNL     1     -41.435  53.285 -51.242  1.00  0.00    -0.191 N 
HETATM    4  C   UNL     1     -41.316  54.000 -50.105  1.00  0.00     0.735 A 
HETATM    5  N   UNL     1     -41.269  55.364 -50.173  1.00  0.00    -0.091 N 
HETATM    6  N   UNL     1     -41.008  55.880 -48.959  1.00  0.00     0.012 NA
HETATM    7  N   UNL     1     -40.984  54.825 -48.149  1.00  0.00     0.033 NA
HETATM    8  N   UNL     1     -41.169  53.649 -48.850  1.00  0.00     0.030 NA
HETATM    9  C   UNL     1     -41.333  56.135 -51.406  1.00  0.00     0.216 A 
HETATM   10  C   UNL     1     -41.357  55.216 -52.622  1.00  0.00     0.063 A 
HETATM   11  H   UNL     1     -41.398  52.269 -51.187  1.00  0.00     0.184 HD
ENDROOT
BRANCH  10  12
HETATM   12  C   UNL     1     -41.260  55.946 -53.911  1.00  0.00     0.256 C 
HETATM   13  N   UNL     1     -42.406  55.868 -54.670  1.00  0.00    -0.323 N 
HETATM   14  H   UNL     1     -43.199  55.402 -54.245  1.00  0.00     0.169 HD
HETATM   15  O   UNL     1     -40.231  56.562 -54.156  1.00  0.00    -0.267 OA
BRANCH  13  16
HETATM   16  C   UNL     1     -42.610  56.382 -55.967  1.00  0.00     0.035 A 
HETATM   17  C   UNL     1     -42.520  57.736 -56.292  1.00  0.00     0.029 A 
HETATM   18  C   UNL     1     -42.717  58.163 -57.609  1.00  0.00     0.002 A 
HETATM   19  C   UNL     1     -42.997  57.239 -58.613  1.00  0.00     0.000 A 
HETATM   20  C   UNL     1     -43.088  55.886 -58.300  1.00  0.00     0.002 A 
HETATM   21  C   UNL     1     -42.899  55.460 -56.982  1.00  0.00     0.029 A 
ENDBRANCH  13  16
ENDBRANCH  10  12
BRANCH   9  22
HETATM   22  C   UNL     1     -42.547  57.054 -51.345  1.00  0.00     0.064 A 
HETATM   23  N   UNL     1     -42.342  58.398 -51.452  1.00  0.00    -0.263 NA
HETATM   24  C   UNL     1     -43.433  59.197 -51.439  1.00  0.00     0.117 A 
HETATM   25  C   UNL     1     -44.730  58.729 -51.317  1.00  0.00     0.019 A 
HETATM   26  C   UNL     1     -44.927  57.359 -51.203  1.00  0.00     0.003 A 
HETATM   27  C   UNL     1     -43.826  56.507 -51.218  1.00  0.00     0.030 A 
ENDBRANCH   9  22
TORSDOF 3
ENDMDL
MODEL 7
REMARK VINA RESULT:      -7.4      2.451      4.914
REMARK  3 active torsions:
REMARK  status: ('A' for Active; 'I' for Inactive)
REMARK    1  A    between atoms: C_9  and  C_10 
REMARK    2  A    between atoms: C_16  and  C_17 
REMARK       I    between atoms: C_17  and  N_18 
REMARK    3  A    between atoms: N_18  and  C_19 
ROOT
HETATM    1  C   UNL     1     -40.785  54.214 -55.430  1.00  0.00     0.070 C 
HETATM    2  C   UNL     1     -41.818  55.311 -55.455  1.00  0.00     0.037 A 
HETATM    3  N   UNL     1     -41.965  55.975 -56.670  1.00  0.00    -0.191 N 
HETATM    4  C   UNL     1     -42.962  56.851 -56.909  1.00  0.00     0.735 A 
HETATM    5  N   UNL     1     -43.802  57.203 -55.891  1.00  0.00    -0.091 N 
HETATM    6  N   UNL     1     -44.804  57.968 -56.361  1.00  0.00     0.012 NA
HETATM    7  N   UNL     1     -44.512  58.144 -57.646  1.00  0.00     0.033 NA
HETATM    8  N   UNL     1     -43.371  57.450 -58.001  1.00  0.00     0.030 NA
HETATM    9  C   UNL     1     -43.717  56.693 -54.530  1.00  0.00     0.216 A 
HETATM   10  C   UNL     1     -42.625  55.635 -54.414  1.00  0.00     0.063 A 
HETATM   11  H   UNL     1     -41.389  55.666 -57.450  1.00  0.00     0.184 HD
ENDROOT
BRANCH  10  12
HETATM   12  C   UNL     1     -42.597  54.964 -53.090  1.00  0.00     0.256 C 
HETATM   13  N   UNL     1     -41.537  55.353 -52.303  1.00  0.00    -0.323 N 
HETATM   14  H   UNL     1     -40.949  56.093 -52.669  1.00  0.00     0.169 HD
HETATM   15  O   UNL     1     -43.504  54.190 -52.810  1.00  0.00    -0.267 OA
BRANCH  13  16
HETATM   16  C   UNL     1     -41.183  54.850 -51.034  1.00  0.00     0.035 A 
HETATM   17  C   UNL     1     -41.386  55.540 -49.838  1.00  0.00     0.029 A 
HETATM   18  C   UNL     1     -41.024  54.963 -48.617  1.00  0.00     0.002 A 
HETATM   19  C   UNL     1     -40.467  53.687 -48.580  1.00  0.00     0.000 A 
HETATM   20  C   UNL     1     -40.262  52.989 -49.767  1.00  0.00     0.002 A 
HETATM   21  C   UNL     1     -40.615  53.570 -50.989  1.00  0.00     0.029 A 
ENDBRANCH  13  16
ENDBRANCH  10  12
BRANCH   9  22
HETATM   22  C   UNL     1     -43.496  57.865 -53.582  1.00  0.00     0.064 A 
HETATM   23  N   UNL     1     -42.267  58.454 -53.561  1.00  0.00    -0.263 NA
HETATM   24  C   UNL     1     -42.100  59.519 -52.746  1.00  0.00     0.117 A 
HETATM   25  C   UNL     1     -43.097  60.034 -51.935  1.00  0.00     0.019 A 
HETATM   26  C   UNL     1     -44.344  59.423 -51.959  1.00  0.00     0.003 A 
HETATM   27  C   UNL     1     -44.552  58.326 -52.791  1.00  0.00     0.030 A 
ENDBRANCH   9  22
TORSDOF 3
ENDMDL
MODEL 8
REMARK VINA RESULT:      -7.3     14.947     16.956
REMARK  3 active torsions:
REMARK  status: ('A' for Active; 'I' for Inactive)
REMARK    1  A    between atoms: C_9  and  C_10 
REMARK    2  A    between atoms: C_16  and  C_17 
REMARK       I    between atoms: C_17  and  N_18 
REMARK    3  A    between atoms: N_18  and  C_19 
ROOT
HETATM    1  C   UNL     1     -38.142  41.154 -52.458  1.00  0.00     0.070 C 
HETATM    2  C   UNL     1     -37.240  41.238 -53.662  1.00  0.00     0.037 A 
HETATM    3  N   UNL     1     -37.883  41.293 -54.896  1.00  0.00    -0.191 N 
HETATM    4  C   UNL     1     -37.232  41.549 -56.049  1.00  0.00     0.735 A 
HETATM    5  N   UNL     1     -35.869  41.644 -56.042  1.00  0.00    -0.091 N 
HETATM    6  N   UNL     1     -35.427  42.041 -57.249  1.00  0.00     0.012 NA
HETATM    7  N   UNL     1     -36.521  42.098 -58.001  1.00  0.00     0.033 NA
HETATM    8  N   UNL     1     -37.652  41.799 -57.265  1.00  0.00     0.030 NA
HETATM    9  C   UNL     1     -35.033  41.495 -54.860  1.00  0.00     0.216 A 
HETATM   10  C   UNL     1     -35.887  41.318 -53.609  1.00  0.00     0.063 A 
HETATM   11  H   UNL     1     -38.900  41.294 -54.899  1.00  0.00     0.184 HD
ENDROOT
BRANCH  10  12
HETATM   12  C   UNL     1     -35.095  41.322 -52.353  1.00  0.00     0.256 C 
HETATM   13  N   UNL     1     -34.586  40.086 -52.026  1.00  0.00    -0.323 N 
HETATM   14  H   UNL     1     -34.735  39.342 -52.698  1.00  0.00     0.169 HD
HETATM   15  O   UNL     1     -34.935  42.385 -51.768  1.00  0.00    -0.267 OA
BRANCH  13  16
HETATM   16  C   UNL     1     -33.863  39.738 -50.866  1.00  0.00     0.035 A 
HETATM   17  C   UNL     1     -32.548  40.134 -50.619  1.00  0.00     0.029 A 
HETATM   18  C   UNL     1     -31.907  39.763 -49.433  1.00  0.00     0.002 A 
HETATM   19  C   UNL     1     -32.578  39.001 -48.480  1.00  0.00     0.000 A 
HETATM   20  C   UNL     1     -33.891  38.601 -48.716  1.00  0.00     0.002 A 
HETATM   21  C   UNL     1     -34.529  38.964 -49.905  1.00  0.00     0.029 A 
ENDBRANCH  13  16
ENDBRANCH  10  12
BRANCH   9  22
HETATM   22  C   UNL     1     -34.075  40.331 -55.082  1.00  0.00     0.064 A 
HETATM   23  N   UNL     1     -34.596  39.073 -55.145  1.00  0.00    -0.263 NA
HETATM   24  C   UNL     1     -33.739  38.056 -55.385  1.00  0.00     0.117 A 
HETATM   25  C   UNL     1     -32.376  38.220 -55.561  1.00  0.00     0.019 A 
HETATM   26  C   UNL     1     -31.855  39.506 -55.489  1.00  0.00     0.003 A 
HETATM   27  C   UNL     1     -32.710  40.577 -55.248  1.00  0.00     0.030 A 
ENDBRANCH   9  22
TORSDOF 3
ENDMDL
MODEL 9
REMARK VINA RESULT:      -7.2      2.321      6.130
REMARK  3 active torsions:
REMARK  status: ('A' for Active; 'I' for Inactive)
REMARK    1  A    between atoms: C_9  and  C_10 
REMARK    2  A    between atoms: C_16  and  C_17 
REMARK       I    between atoms: C_17  and  N_18 
REMARK    3  A    between atoms: N_18  and  C_19 
ROOT
HETATM    1  C   UNL     1     -40.506  54.778 -49.544  1.00  0.00     0.070 C 
HETATM    2  C   UNL     1     -40.771  54.182 -50.902  1.00  0.00     0.037 A 
HETATM    3  N   UNL     1     -39.821  53.272 -51.357  1.00  0.00    -0.191 N 
HETATM    4  C   UNL     1     -39.998  52.520 -52.463  1.00  0.00     0.735 A 
HETATM    5  N   UNL     1     -41.097  52.731 -53.247  1.00  0.00    -0.091 N 
HETATM    6  N   UNL     1     -41.165  51.796 -54.211  1.00  0.00     0.012 NA
HETATM    7  N   UNL     1     -40.058  51.077 -54.054  1.00  0.00     0.033 NA
HETATM    8  N   UNL     1     -39.325  51.514 -52.967  1.00  0.00     0.030 NA
HETATM    9  C   UNL     1     -42.128  53.724 -52.980  1.00  0.00     0.216 A 
HETATM   10  C   UNL     1     -41.873  54.430 -51.653  1.00  0.00     0.063 A 
HETATM   11  H   UNL     1     -39.038  53.059 -50.743  1.00  0.00     0.184 HD
ENDROOT
BRANCH  10  12
HETATM   12  C   UNL     1     -42.975  55.339 -51.251  1.00  0.00     0.256 C 
HETATM   13  N   UNL     1     -42.785  56.641 -51.655  1.00  0.00    -0.323 N 
HETATM   14  H   UNL     1     -41.974  56.820 -52.237  1.00  0.00     0.169 HD
HETATM   15  O   UNL     1     -43.935  54.863 -50.658  1.00  0.00    -0.267 OA
BRANCH  13  16
HETATM   16  C   UNL     1     -43.601  57.754 -51.368  1.00  0.00     0.035 A 
HETATM   17  C   UNL     1     -44.991  57.696 -51.266  1.00  0.00     0.029 A 
HETATM   18  C   UNL     1     -45.728  58.844 -50.957  1.00  0.00     0.002 A 
HETATM   19  C   UNL     1     -45.080  60.057 -50.739  1.00  0.00     0.000 A 
HETATM   20  C   UNL     1     -43.693  60.126 -50.837  1.00  0.00     0.002 A 
HETATM   21  C   UNL     1     -42.957  58.981 -51.154  1.00  0.00     0.029 A 
ENDBRANCH  13  16
ENDBRANCH  10  12
BRANCH   9  22
HETATM   22  C   UNL     1     -42.189  54.693 -54.155  1.00  0.00     0.064 A 
HETATM   23  N   UNL     1     -41.308  55.732 -54.177  1.00  0.00    -0.263 NA
HETATM   24  C   UNL     1     -41.346  56.558 -55.247  1.00  0.00     0.117 A 
HETATM   25  C   UNL     1     -42.228  56.411 -56.304  1.00  0.00     0.019 A 
HETATM   26  C   UNL     1     -43.125  55.352 -56.268  1.00  0.00     0.003 A 
HETATM   27  C   UNL     1     -43.110  54.479 -55.184  1.00  0.00     0.030 A 
ENDBRANCH   9  22
TORSDOF 3
ENDMDL
MODEL 10
REMARK VINA RESULT:      -7.2      3.110      4.938
REMARK  3 active torsions:
REMARK  status: ('A' for Active; 'I' for Inactive)
REMARK    1  A    between atoms: C_9  and  C_10 
REMARK    2  A    between atoms: C_16  and  C_17 
REMARK       I    between atoms: C_17  and  N_18 
REMARK    3  A    between atoms: N_18  and  C_19 
ROOT
HETATM    1  C   UNL     1     -43.795  58.895 -53.199  1.00  0.00     0.070 C 
HETATM    2  C   UNL     1     -43.367  58.976 -54.642  1.00  0.00     0.037 A 
HETATM    3  N   UNL     1     -43.377  60.250 -55.203  1.00  0.00    -0.191 N 
HETATM    4  C   UNL     1     -42.856  60.519 -56.418  1.00  0.00     0.735 A 
HETATM    5  N   UNL     1     -42.400  59.490 -57.193  1.00  0.00    -0.091 N 
HETATM    6  N   UNL     1     -41.795  59.971 -58.293  1.00  0.00     0.012 NA
HETATM    7  N   UNL     1     -41.966  61.287 -58.216  1.00  0.00     0.033 NA
HETATM    8  N   UNL     1     -42.620  61.642 -57.051  1.00  0.00     0.030 NA
HETATM    9  C   UNL     1     -42.424  58.086 -56.807  1.00  0.00     0.216 A 
HETATM   10  C   UNL     1     -42.933  57.924 -55.379  1.00  0.00     0.063 A 
HETATM   11  H   UNL     1     -43.647  61.028 -54.606  1.00  0.00     0.184 HD
ENDROOT
BRANCH  10  12
HETATM   12  C   UNL     1     -42.829  56.532 -54.874  1.00  0.00     0.256 C 
HETATM   13  N   UNL     1     -41.559  56.194 -54.463  1.00  0.00    -0.323 N 
HETATM   14  H   UNL     1     -40.868  56.935 -54.474  1.00  0.00     0.169 HD
HETATM   15  O   UNL     1     -43.845  55.850 -54.830  1.00  0.00    -0.267 OA
BRANCH  13  16
HETATM   16  C   UNL     1     -41.113  54.936 -54.009  1.00  0.00     0.035 A 
HETATM   17  C   UNL     1     -41.196  54.511 -52.683  1.00  0.00     0.029 A 
HETATM   18  C   UNL     1     -40.748  53.237 -52.317  1.00  0.00     0.002 A 
HETATM   19  C   UNL     1     -40.223  52.375 -53.276  1.00  0.00     0.000 A 
HETATM   20  C   UNL     1     -40.136  52.788 -54.602  1.00  0.00     0.002 A 
HETATM   21  C   UNL     1     -40.575  54.065 -54.967  1.00  0.00     0.029 A 
ENDBRANCH  13  16
ENDBRANCH  10  12
BRANCH   9  22
HETATM   22  C   UNL     1     -43.266  57.316 -57.817  1.00  0.00     0.064 A 
HETATM   23  N   UNL     1     -44.529  57.759 -58.072  1.00  0.00    -0.263 NA
HETATM   24  C   UNL     1     -45.248  57.090 -59.002  1.00  0.00     0.117 A 
HETATM   25  C   UNL     1     -44.778  55.988 -59.695  1.00  0.00     0.019 A 
HETATM   26  C   UNL     1     -43.491  55.541 -59.423  1.00  0.00     0.003 A 
HETATM   27  C   UNL     1     -42.722  56.210 -58.475  1.00  0.00     0.030 A 
ENDBRANCH   9  22
TORSDOF 3
ENDMDL
