MODEL 1
REMARK VINA RESULT:      -6.9      0.000      0.000
REMARK  3 active torsions:
REMARK  status: ('A' for Active; 'I' for Inactive)
REMARK    1  A    between atoms: N_7  and  O_8 
REMARK    2  A    between atoms: O_8  and  C_9 
REMARK    3  A    between atoms: C_9  and  C_10 
ROOT
HETATM    1  O   UNL     1     -41.432  54.046 -49.530  1.00  0.00    -0.170 OA
ENDROOT
BRANCH   1   2
HETATM    2  N   UNL     1     -41.815  55.367 -49.822  1.00  0.00    -0.134 NA
HETATM    3  C   UNL     1     -42.877  55.444 -50.552  1.00  0.00     0.043 C 
HETATM    4  C   UNL     1     -43.664  54.291 -51.113  1.00  0.00     0.084 C 
HETATM    5  C   UNL     1     -43.303  56.805 -51.034  1.00  0.00     0.084 C 
HETATM    6  C   UNL     1     -43.420  54.306 -52.614  1.00  0.00     0.240 C 
HETATM    7  N   UNL     1     -43.780  55.668 -53.196  1.00  0.00    -0.074 N 
HETATM    8  C   UNL     1     -43.576  55.688 -54.691  1.00  0.00     0.269 C 
HETATM    9  H   UNL     1     -44.787  55.826 -53.045  1.00  0.00     0.279 HD
HETATM   10  C   UNL     1     -43.026  56.814 -52.528  1.00  0.00     0.240 C 
ENDBRANCH   1   2
BRANCH   1  11
HETATM   11  C   UNL     1     -40.131  53.862 -49.927  1.00  0.00     0.317 C 
HETATM   12  O   UNL     1     -39.145  54.425 -49.473  1.00  0.00    -0.257 OA
BRANCH  11  13
HETATM   13  C   UNL     1     -40.059  52.929 -51.086  1.00  0.00     0.041 A 
HETATM   14  C   UNL     1     -39.795  51.577 -50.816  1.00  0.00     0.019 A 
HETATM   15  C   UNL     1     -39.688  50.654 -51.859  1.00  0.00     0.020 A 
HETATM   16  C   UNL     1     -39.847  51.080 -53.174  1.00  0.00     0.011 A 
HETATM   17 BR   UNL     1     -39.689  49.836 -54.588  1.00  0.00    -0.051 Br
HETATM   18  C   UNL     1     -40.121  52.418 -53.457  1.00  0.00     0.020 A 
HETATM   19  C   UNL     1     -40.230  53.345 -52.414  1.00  0.00     0.019 A 
ENDBRANCH  11  13
ENDBRANCH   1  11
TORSDOF 3
ENDMDL
MODEL 2
REMARK VINA RESULT:      -6.7      2.551      3.324
REMARK  3 active torsions:
REMARK  status: ('A' for Active; 'I' for Inactive)
REMARK    1  A    between atoms: N_7  and  O_8 
REMARK    2  A    between atoms: O_8  and  C_9 
REMARK    3  A    between atoms: C_9  and  C_10 
ROOT
HETATM    1  O   UNL     1     -41.974  55.583 -53.406  1.00  0.00    -0.170 OA
ENDROOT
BRANCH   1   2
HETATM    2  N   UNL     1     -41.638  56.878 -52.975  1.00  0.00    -0.134 NA
HETATM    3  C   UNL     1     -42.178  57.199 -51.846  1.00  0.00     0.043 C 
HETATM    4  C   UNL     1     -43.116  56.354 -51.029  1.00  0.00     0.084 C 
HETATM    5  C   UNL     1     -41.992  58.610 -51.353  1.00  0.00     0.084 C 
HETATM    6  C   UNL     1     -44.479  57.022 -51.128  1.00  0.00     0.240 C 
HETATM    7  N   UNL     1     -44.388  58.480 -50.691  1.00  0.00    -0.074 N 
HETATM    8  C   UNL     1     -45.740  59.148 -50.752  1.00  0.00     0.269 C 
HETATM    9  H   UNL     1     -44.104  58.501 -49.702  1.00  0.00     0.279 HD
HETATM   10  C   UNL     1     -43.353  59.271 -51.487  1.00  0.00     0.240 C 
ENDBRANCH   1   2
BRANCH   1  11
HETATM   11  C   UNL     1     -40.860  54.990 -53.946  1.00  0.00     0.317 C 
HETATM   12  O   UNL     1     -40.263  55.345 -54.952  1.00  0.00    -0.257 OA
BRANCH  11  13
HETATM   13  C   UNL     1     -40.500  53.758 -53.191  1.00  0.00     0.041 A 
HETATM   14  C   UNL     1     -40.166  52.615 -53.935  1.00  0.00     0.019 A 
HETATM   15  C   UNL     1     -39.845  51.418 -53.290  1.00  0.00     0.020 A 
HETATM   16  C   UNL     1     -39.854  51.362 -51.899  1.00  0.00     0.011 A 
HETATM   17 BR   UNL     1     -39.433  49.740 -51.024  1.00  0.00    -0.051 Br
HETATM   18  C   UNL     1     -40.173  52.493 -51.146  1.00  0.00     0.020 A 
HETATM   19  C   UNL     1     -40.494  53.693 -51.790  1.00  0.00     0.019 A 
ENDBRANCH  11  13
ENDBRANCH   1  11
TORSDOF 3
ENDMDL
MODEL 3
REMARK VINA RESULT:      -6.6      1.789      2.386
REMARK  3 active torsions:
REMARK  status: ('A' for Active; 'I' for Inactive)
REMARK    1  A    between atoms: N_7  and  O_8 
REMARK    2  A    between atoms: O_8  and  C_9 
REMARK    3  A    between atoms: C_9  and  C_10 
ROOT
HETATM    1  O   UNL     1     -41.338  56.013 -51.663  1.00  0.00    -0.170 OA
ENDROOT
BRANCH   1   2
HETATM    2  N   UNL     1     -42.414  56.646 -51.017  1.00  0.00    -0.134 NA
HETATM    3  C   UNL     1     -43.483  56.705 -51.739  1.00  0.00     0.043 C 
HETATM    4  C   UNL     1     -43.638  56.212 -53.152  1.00  0.00     0.084 C 
HETATM    5  C   UNL     1     -44.656  57.478 -51.198  1.00  0.00     0.084 C 
HETATM    6  C   UNL     1     -43.767  57.455 -54.020  1.00  0.00     0.240 C 
HETATM    7  N   UNL     1     -44.908  58.334 -53.522  1.00  0.00    -0.074 N 
HETATM    8  C   UNL     1     -45.070  59.555 -54.393  1.00  0.00     0.269 C 
HETATM    9  H   UNL     1     -45.785  57.802 -53.611  1.00  0.00     0.279 HD
HETATM   10  C   UNL     1     -44.752  58.728 -52.055  1.00  0.00     0.240 C 
ENDBRANCH   1   2
BRANCH   1  11
HETATM   11  C   UNL     1     -40.868  55.004 -50.860  1.00  0.00     0.317 C 
HETATM   12  O   UNL     1     -40.667  55.066 -49.656  1.00  0.00    -0.257 OA
BRANCH  11  13
HETATM   13  C   UNL     1     -40.525  53.801 -51.669  1.00  0.00     0.041 A 
HETATM   14  C   UNL     1     -40.928  53.786 -53.014  1.00  0.00     0.019 A 
HETATM   15  C   UNL     1     -40.662  52.677 -53.821  1.00  0.00     0.020 A 
HETATM   16  C   UNL     1     -39.990  51.582 -53.287  1.00  0.00     0.011 A 
HETATM   17 BR   UNL     1     -39.641  50.075 -54.373  1.00  0.00    -0.051 Br
HETATM   18  C   UNL     1     -39.573  51.587 -51.955  1.00  0.00     0.020 A 
HETATM   19  C   UNL     1     -39.837  52.697 -51.144  1.00  0.00     0.019 A 
ENDBRANCH  11  13
ENDBRANCH   1  11
TORSDOF 3
ENDMDL
MODEL 4
REMARK VINA RESULT:      -6.5      2.174      3.247
REMARK  3 active torsions:
REMARK  status: ('A' for Active; 'I' for Inactive)
REMARK    1  A    between atoms: N_7  and  O_8 
REMARK    2  A    between atoms: O_8  and  C_9 
REMARK    3  A    between atoms: C_9  and  C_10 
ROOT
HETATM    1  O   UNL     1     -41.357  56.180 -53.265  1.00  0.00    -0.170 OA
ENDROOT
BRANCH   1   2
HETATM    2  N   UNL     1     -42.625  56.775 -53.147  1.00  0.00    -0.134 NA
HETATM    3  C   UNL     1     -43.436  56.445 -54.097  1.00  0.00     0.043 C 
HETATM    4  C   UNL     1     -43.127  55.557 -55.271  1.00  0.00     0.084 C 
HETATM    5  C   UNL     1     -44.778  57.125 -54.143  1.00  0.00     0.084 C 
HETATM    6  C   UNL     1     -43.102  56.465 -56.490  1.00  0.00     0.240 C 
HETATM    7  N   UNL     1     -44.410  57.239 -56.603  1.00  0.00    -0.074 N 
HETATM    8  C   UNL     1     -44.414  58.121 -57.827  1.00  0.00     0.269 C 
HETATM    9  H   UNL     1     -45.173  56.562 -56.737  1.00  0.00     0.279 HD
HETATM   10  C   UNL     1     -44.726  58.049 -55.348  1.00  0.00     0.240 C 
ENDBRANCH   1   2
BRANCH   1  11
HETATM   11  C   UNL     1     -41.136  55.381 -52.171  1.00  0.00     0.317 C 
HETATM   12  O   UNL     1     -41.216  55.715 -50.998  1.00  0.00    -0.257 OA
BRANCH  11  13
HETATM   13  C   UNL     1     -40.677  54.027 -52.591  1.00  0.00     0.041 A 
HETATM   14  C   UNL     1     -40.702  53.729 -53.962  1.00  0.00     0.019 A 
HETATM   15  C   UNL     1     -40.311  52.469 -54.420  1.00  0.00     0.020 A 
HETATM   16  C   UNL     1     -39.891  51.504 -53.509  1.00  0.00     0.011 A 
HETATM   17 BR   UNL     1     -39.374  49.794 -54.125  1.00  0.00    -0.051 Br
HETATM   18  C   UNL     1     -39.850  51.790 -52.144  1.00  0.00     0.020 A 
HETATM   19  C   UNL     1     -40.241  53.052 -51.682  1.00  0.00     0.019 A 
ENDBRANCH  11  13
ENDBRANCH   1  11
TORSDOF 3
ENDMDL
MODEL 5
REMARK VINA RESULT:      -6.2      3.530      6.229
REMARK  3 active torsions:
REMARK  status: ('A' for Active; 'I' for Inactive)
REMARK    1  A    between atoms: N_7  and  O_8 
REMARK    2  A    between atoms: O_8  and  C_9 
REMARK    3  A    between atoms: C_9  and  C_10 
ROOT
HETATM    1  O   UNL     1     -42.819  54.161 -51.879  1.00  0.00    -0.170 OA
ENDROOT
BRANCH   1   2
HETATM    2  N   UNL     1     -41.756  53.520 -51.218  1.00  0.00    -0.134 NA
HETATM    3  C   UNL     1     -40.746  53.280 -51.986  1.00  0.00     0.043 C 
HETATM    4  C   UNL     1     -40.646  53.581 -53.456  1.00  0.00     0.084 C 
HETATM    5  C   UNL     1     -39.605  52.480 -51.416  1.00  0.00     0.084 C 
HETATM    6  C   UNL     1     -40.675  52.235 -54.164  1.00  0.00     0.240 C 
HETATM    7  N   UNL     1     -39.577  51.327 -53.623  1.00  0.00    -0.074 N 
HETATM    8  C   UNL     1     -39.571  49.999 -54.339  1.00  0.00     0.269 C 
HETATM    9  H   UNL     1     -38.668  51.765 -53.827  1.00  0.00     0.279 HD
HETATM   10  C   UNL     1     -39.666  51.131 -52.111  1.00  0.00     0.240 C 
ENDBRANCH   1   2
BRANCH   1  11
HETATM   11  C   UNL     1     -43.579  54.832 -50.953  1.00  0.00     0.317 C 
HETATM   12  O   UNL     1     -44.386  54.339 -50.179  1.00  0.00    -0.257 OA
BRANCH  11  13
HETATM   13  C   UNL     1     -43.372  56.303 -51.066  1.00  0.00     0.041 A 
HETATM   14  C   UNL     1     -44.513  57.114 -51.172  1.00  0.00     0.019 A 
HETATM   15  C   UNL     1     -44.388  58.498 -51.308  1.00  0.00     0.020 A 
HETATM   16  C   UNL     1     -43.123  59.077 -51.336  1.00  0.00     0.011 A 
HETATM   17 BR   UNL     1     -42.951  60.948 -51.534  1.00  0.00    -0.051 Br
HETATM   18  C   UNL     1     -41.980  58.285 -51.220  1.00  0.00     0.020 A 
HETATM   19  C   UNL     1     -42.102  56.897 -51.083  1.00  0.00     0.019 A 
ENDBRANCH  11  13
ENDBRANCH   1  11
TORSDOF 3
ENDMDL
MODEL 6
REMARK VINA RESULT:      -6.2      2.780      3.751
REMARK  3 active torsions:
REMARK  status: ('A' for Active; 'I' for Inactive)
REMARK    1  A    between atoms: N_7  and  O_8 
REMARK    2  A    between atoms: O_8  and  C_9 
REMARK    3  A    between atoms: C_9  and  C_10 
ROOT
HETATM    1  O   UNL     1     -40.943  56.175 -52.030  1.00  0.00    -0.170 OA
ENDROOT
BRANCH   1   2
HETATM    2  N   UNL     1     -41.224  57.055 -53.090  1.00  0.00    -0.134 NA
HETATM    3  C   UNL     1     -41.021  58.295 -52.794  1.00  0.00     0.043 C 
HETATM    4  C   UNL     1     -40.573  58.837 -51.465  1.00  0.00     0.084 C 
HETATM    5  C   UNL     1     -41.414  59.334 -53.811  1.00  0.00     0.084 C 
HETATM    6  C   UNL     1     -41.772  59.570 -50.883  1.00  0.00     0.240 C 
HETATM    7  N   UNL     1     -42.278  60.622 -51.863  1.00  0.00    -0.074 N 
HETATM    8  C   UNL     1     -43.448  61.381 -51.287  1.00  0.00     0.269 C 
HETATM    9  H   UNL     1     -41.531  61.315 -52.004  1.00  0.00     0.279 HD
HETATM   10  C   UNL     1     -42.629  60.035 -53.229  1.00  0.00     0.240 C 
ENDBRANCH   1   2
BRANCH   1  11
HETATM   11  C   UNL     1     -41.885  55.176 -52.020  1.00  0.00     0.317 C 
HETATM   12  O   UNL     1     -43.007  55.238 -51.538  1.00  0.00    -0.257 OA
BRANCH  11  13
HETATM   13  C   UNL     1     -41.330  53.922 -52.601  1.00  0.00     0.041 A 
HETATM   14  C   UNL     1     -40.426  53.186 -51.819  1.00  0.00     0.019 A 
HETATM   15  C   UNL     1     -39.848  52.016 -52.315  1.00  0.00     0.020 A 
HETATM   16  C   UNL     1     -40.175  51.575 -53.594  1.00  0.00     0.011 A 
HETATM   17 BR   UNL     1     -39.384  49.999 -54.273  1.00  0.00    -0.051 Br
HETATM   18  C   UNL     1     -41.081  52.289 -54.379  1.00  0.00     0.020 A 
HETATM   19  C   UNL     1     -41.662  53.462 -53.884  1.00  0.00     0.019 A 
ENDBRANCH  11  13
ENDBRANCH   1  11
TORSDOF 3
ENDMDL
MODEL 7
REMARK VINA RESULT:      -6.1      2.460      3.606
REMARK  3 active torsions:
REMARK  status: ('A' for Active; 'I' for Inactive)
REMARK    1  A    between atoms: N_7  and  O_8 
REMARK    2  A    between atoms: O_8  and  C_9 
REMARK    3  A    between atoms: C_9  and  C_10 
ROOT
HETATM    1  O   UNL     1     -41.830  56.137 -52.830  1.00  0.00    -0.170 OA
ENDROOT
BRANCH   1   2
HETATM    2  N   UNL     1     -43.099  56.601 -52.439  1.00  0.00    -0.134 NA
HETATM    3  C   UNL     1     -43.289  57.852 -52.695  1.00  0.00     0.043 C 
HETATM    4  C   UNL     1     -42.296  58.802 -53.308  1.00  0.00     0.084 C 
HETATM    5  C   UNL     1     -44.561  58.486 -52.201  1.00  0.00     0.084 C 
HETATM    6  C   UNL     1     -41.891  59.760 -52.198  1.00  0.00     0.240 C 
HETATM    7  N   UNL     1     -43.123  60.426 -51.596  1.00  0.00    -0.074 N 
HETATM    8  C   UNL     1     -42.735  61.405 -50.516  1.00  0.00     0.269 C 
HETATM    9  H   UNL     1     -43.581  60.980 -52.333  1.00  0.00     0.279 HD
HETATM   10  C   UNL     1     -44.143  59.416 -51.076  1.00  0.00     0.240 C 
ENDBRANCH   1   2
BRANCH   1  11
HETATM   11  C   UNL     1     -41.308  55.366 -51.822  1.00  0.00     0.317 C 
HETATM   12  O   UNL     1     -41.165  55.695 -50.653  1.00  0.00    -0.257 OA
BRANCH  11  13
HETATM   13  C   UNL     1     -40.826  54.060 -52.351  1.00  0.00     0.041 A 
HETATM   14  C   UNL     1     -41.111  53.757 -53.692  1.00  0.00     0.019 A 
HETATM   15  C   UNL     1     -40.712  52.538 -54.244  1.00  0.00     0.020 A 
HETATM   16  C   UNL     1     -40.024  51.619 -53.458  1.00  0.00     0.011 A 
HETATM   17 BR   UNL     1     -39.495  49.962 -54.198  1.00  0.00    -0.051 Br
HETATM   18  C   UNL     1     -39.723  51.910 -52.127  1.00  0.00     0.020 A 
HETATM   19  C   UNL     1     -40.122  53.131 -51.571  1.00  0.00     0.019 A 
ENDBRANCH  11  13
ENDBRANCH   1  11
TORSDOF 3
ENDMDL
MODEL 8
REMARK VINA RESULT:      -6.1      4.768      6.689
REMARK  3 active torsions:
REMARK  status: ('A' for Active; 'I' for Inactive)
REMARK    1  A    between atoms: N_7  and  O_8 
REMARK    2  A    between atoms: O_8  and  C_9 
REMARK    3  A    between atoms: C_9  and  C_10 
ROOT
HETATM    1  O   UNL     1     -42.456  55.704 -57.167  1.00  0.00    -0.170 OA
ENDROOT
BRANCH   1   2
HETATM    2  N   UNL     1     -43.422  55.043 -57.947  1.00  0.00    -0.134 NA
HETATM    3  C   UNL     1     -43.611  55.590 -59.101  1.00  0.00     0.043 C 
HETATM    4  C   UNL     1     -42.943  56.832 -59.625  1.00  0.00     0.084 C 
HETATM    5  C   UNL     1     -44.716  55.044 -59.965  1.00  0.00     0.084 C 
HETATM    6  C   UNL     1     -44.021  57.904 -59.666  1.00  0.00     0.240 C 
HETATM    7  N   UNL     1     -45.213  57.426 -60.486  1.00  0.00    -0.074 N 
HETATM    8  C   UNL     1     -46.278  58.493 -60.565  1.00  0.00     0.269 C 
HETATM    9  H   UNL     1     -44.896  57.270 -61.453  1.00  0.00     0.279 HD
HETATM   10  C   UNL     1     -45.795  56.112 -59.972  1.00  0.00     0.240 C 
ENDBRANCH   1   2
BRANCH   1  11
HETATM   11  C   UNL     1     -42.904  55.780 -55.872  1.00  0.00     0.317 C 
HETATM   12  O   UNL     1     -43.763  56.538 -55.443  1.00  0.00    -0.257 OA
BRANCH  11  13
HETATM   13  C   UNL     1     -42.129  54.864 -54.990  1.00  0.00     0.041 A 
HETATM   14  C   UNL     1     -42.665  54.573 -53.725  1.00  0.00     0.019 A 
HETATM   15  C   UNL     1     -41.976  53.743 -52.838  1.00  0.00     0.020 A 
HETATM   16  C   UNL     1     -40.751  53.199 -53.214  1.00  0.00     0.011 A 
HETATM   17 BR   UNL     1     -39.810  52.087 -52.011  1.00  0.00    -0.051 Br
HETATM   18  C   UNL     1     -40.212  53.471 -54.472  1.00  0.00     0.020 A 
HETATM   19  C   UNL     1     -40.900  54.302 -55.363  1.00  0.00     0.019 A 
ENDBRANCH  11  13
ENDBRANCH   1  11
TORSDOF 3
ENDMDL
MODEL 9
REMARK VINA RESULT:      -6.0      2.443      3.511
REMARK  3 active torsions:
REMARK  status: ('A' for Active; 'I' for Inactive)
REMARK    1  A    between atoms: N_7  and  O_8 
REMARK    2  A    between atoms: O_8  and  C_9 
REMARK    3  A    between atoms: C_9  and  C_10 
ROOT
HETATM    1  O   UNL     1     -41.642  56.629 -53.212  1.00  0.00    -0.170 OA
ENDROOT
BRANCH   1   2
HETATM    2  N   UNL     1     -42.949  57.135 -53.322  1.00  0.00    -0.134 NA
HETATM    3  C   UNL     1     -43.619  56.619 -54.298  1.00  0.00     0.043 C 
HETATM    4  C   UNL     1     -43.118  55.606 -55.291  1.00  0.00     0.084 C 
HETATM    5  C   UNL     1     -44.985  57.181 -54.589  1.00  0.00     0.084 C 
HETATM    6  C   UNL     1     -43.002  56.340 -56.618  1.00  0.00     0.240 C 
HETATM    7  N   UNL     1     -44.331  56.989 -56.984  1.00  0.00    -0.074 N 
HETATM    8  C   UNL     1     -44.241  57.694 -58.315  1.00  0.00     0.269 C 
HETATM    9  H   UNL     1     -45.031  56.243 -57.103  1.00  0.00     0.279 HD
HETATM   10  C   UNL     1     -44.844  57.935 -55.900  1.00  0.00     0.240 C 
ENDBRANCH   1   2
BRANCH   1  11
HETATM   11  C   UNL     1     -41.412  56.267 -51.909  1.00  0.00     0.317 C 
HETATM   12  O   UNL     1     -41.469  56.997 -50.930  1.00  0.00    -0.257 OA
BRANCH  11  13
HETATM   13  C   UNL     1     -40.976  54.846 -51.824  1.00  0.00     0.041 A 
HETATM   14  C   UNL     1     -40.677  54.332 -50.552  1.00  0.00     0.019 A 
HETATM   15  C   UNL     1     -40.236  53.015 -50.406  1.00  0.00     0.020 A 
HETATM   16  C   UNL     1     -40.095  52.206 -51.530  1.00  0.00     0.011 A 
HETATM   17 BR   UNL     1     -39.485  50.428 -51.336  1.00  0.00    -0.051 Br
HETATM   18  C   UNL     1     -40.399  52.699 -52.799  1.00  0.00     0.020 A 
HETATM   19  C   UNL     1     -40.842  54.019 -52.949  1.00  0.00     0.019 A 
ENDBRANCH  11  13
ENDBRANCH   1  11
TORSDOF 3
ENDMDL
MODEL 10
REMARK VINA RESULT:      -5.9      3.678      5.097
REMARK  3 active torsions:
REMARK  status: ('A' for Active; 'I' for Inactive)
REMARK    1  A    between atoms: N_7  and  O_8 
REMARK    2  A    between atoms: O_8  and  C_9 
REMARK    3  A    between atoms: C_9  and  C_10 
ROOT
HETATM    1  O   UNL     1     -41.845  57.425 -55.028  1.00  0.00    -0.170 OA
ENDROOT
BRANCH   1   2
HETATM    2  N   UNL     1     -43.122  57.971 -55.242  1.00  0.00    -0.134 NA
HETATM    3  C   UNL     1     -43.734  57.462 -56.259  1.00  0.00     0.043 C 
HETATM    4  C   UNL     1     -43.195  56.419 -57.199  1.00  0.00     0.084 C 
HETATM    5  C   UNL     1     -45.054  58.065 -56.659  1.00  0.00     0.084 C 
HETATM    6  C   UNL     1     -42.955  57.129 -58.522  1.00  0.00     0.240 C 
HETATM    7  N   UNL     1     -44.231  57.815 -58.995  1.00  0.00    -0.074 N 
HETATM    8  C   UNL     1     -44.018  58.496 -60.325  1.00  0.00     0.269 C 
HETATM    9  H   UNL     1     -44.944  57.091 -59.158  1.00  0.00     0.279 HD
HETATM   10  C   UNL     1     -44.791  58.793 -57.966  1.00  0.00     0.240 C 
ENDBRANCH   1   2
BRANCH   1  11
HETATM   11  C   UNL     1     -41.801  56.872 -53.772  1.00  0.00     0.317 C 
HETATM   12  O   UNL     1     -42.050  57.441 -52.719  1.00  0.00    -0.257 OA
BRANCH  11  13
HETATM   13  C   UNL     1     -41.304  55.470 -53.829  1.00  0.00     0.041 A 
HETATM   14  C   UNL     1     -41.511  54.661 -52.700  1.00  0.00     0.019 A 
HETATM   15  C   UNL     1     -41.045  53.344 -52.677  1.00  0.00     0.020 A 
HETATM   16  C   UNL     1     -40.375  52.831 -53.784  1.00  0.00     0.011 A 
HETATM   17 BR   UNL     1     -39.732  51.054 -53.750  1.00  0.00    -0.051 Br
HETATM   18  C   UNL     1     -40.172  53.619 -54.917  1.00  0.00     0.020 A 
HETATM   19  C   UNL     1     -40.638  54.939 -54.943  1.00  0.00     0.019 A 
ENDBRANCH  11  13
ENDBRANCH   1  11
TORSDOF 3
ENDMDL
