MODEL 1
REMARK VINA RESULT:      -9.1      0.000      0.000
REMARK  9 active torsions:
REMARK  status: ('A' for Active; 'I' for Inactive)
REMARK    1  A    between atoms: C_4  and  S_5 
REMARK    2  A    between atoms: S_5  and  C_6 
REMARK    3  A    between atoms: C_6  and  C_7 
REMARK       I    between atoms: C_7  and  N_8 
REMARK    4  A    between atoms: N_8  and  C_9 
REMARK    5  A    between atoms: C_10  and  O_11 
REMARK    6  A    between atoms: C_16  and  O_17 
REMARK    7  A    between atoms: C_24  and  C_25 
REMARK    8  A    between atoms: C_31  and  C_32 
REMARK       I    between atoms: C_32  and  N_33 
REMARK    9  A    between atoms: N_33  and  C_34 
ROOT
HETATM    1  C   UNL     1     -41.254  55.085 -48.697  1.00  0.00     0.069 C 
HETATM    2  C   UNL     1     -41.246  55.843 -50.004  1.00  0.00     0.019 A 
HETATM    3  N   UNL     1     -41.450  57.207 -49.892  1.00  0.00    -0.353 N 
HETATM    4  C   UNL     1     -41.450  58.107 -50.939  1.00  0.00     0.087 A 
HETATM    5  C   UNL     1     -41.177  57.665 -52.188  1.00  0.00     0.055 A 
HETATM    6  C   UNL     1     -41.077  58.621 -53.364  1.00  0.00     0.019 C 
HETATM    7  N   UNL     1     -40.993  59.415 -54.342  1.00  0.00    -0.096 N 
HETATM    8  C   UNL     1     -40.987  56.172 -52.476  1.00  0.00     0.104 A 
HETATM    9  C   UNL     1     -41.050  55.283 -51.225  1.00  0.00     0.046 A 
HETATM   10  H   UNL     1     -41.389  57.619 -48.965  1.00  0.00     0.166 HD
ENDROOT
BRANCH   4  11
HETATM   11  S   UNL     1     -41.783  59.801 -50.648  1.00  0.00    -0.102 SA
BRANCH  11  12
HETATM   12  C   UNL     1     -43.323  60.033 -51.577  1.00  0.00     0.184 C 
BRANCH  12  13
HETATM   13  C   UNL     1     -44.461  60.613 -50.739  1.00  0.00     0.231 C 
HETATM   14  N   UNL     1     -44.058  60.939 -49.448  1.00  0.00    -0.324 N 
HETATM   15  H   UNL     1     -43.067  60.856 -49.260  1.00  0.00     0.169 HD
HETATM   16  O   UNL     1     -45.552  60.846 -51.250  1.00  0.00    -0.272 OA
BRANCH  14  17
HETATM   17  C   UNL     1     -44.799  61.610 -48.443  1.00  0.00     0.071 A 
HETATM   18  C   UNL     1     -44.681  62.969 -48.094  1.00  0.00     0.096 A 
HETATM   19  C   UNL     1     -45.469  63.488 -47.055  1.00  0.00     0.065 A 
HETATM   20  C   UNL     1     -46.370  62.672 -46.368  1.00  0.00     0.070 A 
HETATM   21 CL   UNL     1     -47.311  63.368 -45.097  1.00  0.00    -0.081 Cl
HETATM   22  C   UNL     1     -46.501  61.331 -46.715  1.00  0.00     0.092 A 
HETATM   23  C   UNL     1     -45.746  60.815 -47.771  1.00  0.00     0.071 A 
BRANCH  18  24
HETATM   24  O   UNL     1     -43.920  63.773 -48.897  1.00  0.00    -0.354 OA
HETATM   25  C   UNL     1     -44.598  64.509 -49.907  1.00  0.00     0.210 C 
ENDBRANCH  18  24
BRANCH  22  26
HETATM   26  O   UNL     1     -47.426  60.550 -46.071  1.00  0.00    -0.354 OA
HETATM   27  C   UNL     1     -46.913  59.257 -45.756  1.00  0.00     0.210 C 
ENDBRANCH  22  26
ENDBRANCH  14  17
ENDBRANCH  12  13
ENDBRANCH  11  12
ENDBRANCH   4  11
BRANCH   8  28
HETATM   28  C   UNL     1     -41.937  55.709 -53.585  1.00  0.00    -0.044 A 
HETATM   29  C   UNL     1     -41.420  55.282 -54.821  1.00  0.00     0.008 A 
HETATM   30  C   UNL     1     -42.273  54.867 -55.845  1.00  0.00     0.001 A 
HETATM   31  C   UNL     1     -43.651  54.871 -55.650  1.00  0.00     0.000 A 
HETATM   32  C   UNL     1     -44.179  55.298 -54.436  1.00  0.00     0.001 A 
HETATM   33  C   UNL     1     -43.329  55.726 -53.413  1.00  0.00     0.008 A 
ENDBRANCH   8  28
BRANCH   9  34
HETATM   34  C   UNL     1     -41.006  53.780 -51.362  1.00  0.00     0.255 C 
HETATM   35  N   UNL     1     -40.001  53.289 -52.170  1.00  0.00    -0.323 N 
HETATM   36  H   UNL     1     -39.382  53.947 -52.618  1.00  0.00     0.169 HD
HETATM   37  O   UNL     1     -41.864  53.098 -50.808  1.00  0.00    -0.268 OA
BRANCH  35  38
HETATM   38  C   UNL     1     -39.799  51.944 -52.559  1.00  0.00     0.035 A 
HETATM   39  C   UNL     1     -39.489  50.907 -51.677  1.00  0.00     0.029 A 
HETATM   40  C   UNL     1     -39.320  49.600 -52.147  1.00  0.00     0.002 A 
HETATM   41  C   UNL     1     -39.462  49.317 -53.503  1.00  0.00     0.000 A 
HETATM   42  C   UNL     1     -39.769  50.342 -54.392  1.00  0.00     0.002 A 
HETATM   43  C   UNL     1     -39.933  51.649 -53.923  1.00  0.00     0.029 A 
ENDBRANCH  35  38
ENDBRANCH   9  34
TORSDOF 9
ENDMDL
MODEL 2
REMARK VINA RESULT:      -8.8      2.630      5.145
REMARK  9 active torsions:
REMARK  status: ('A' for Active; 'I' for Inactive)
REMARK    1  A    between atoms: C_4  and  S_5 
REMARK    2  A    between atoms: S_5  and  C_6 
REMARK    3  A    between atoms: C_6  and  C_7 
REMARK       I    between atoms: C_7  and  N_8 
REMARK    4  A    between atoms: N_8  and  C_9 
REMARK    5  A    between atoms: C_10  and  O_11 
REMARK    6  A    between atoms: C_16  and  O_17 
REMARK    7  A    between atoms: C_24  and  C_25 
REMARK    8  A    between atoms: C_31  and  C_32 
REMARK       I    between atoms: C_32  and  N_33 
REMARK    9  A    between atoms: N_33  and  C_34 
ROOT
HETATM    1  C   UNL     1     -42.561  60.129 -55.325  1.00  0.00     0.069 C 
HETATM    2  C   UNL     1     -42.227  59.030 -54.343  1.00  0.00     0.019 A 
HETATM    3  N   UNL     1     -41.385  59.403 -53.311  1.00  0.00    -0.353 N 
HETATM    4  C   UNL     1     -40.970  58.585 -52.279  1.00  0.00     0.087 A 
HETATM    5  C   UNL     1     -41.448  57.322 -52.205  1.00  0.00     0.055 A 
HETATM    6  C   UNL     1     -41.096  56.406 -51.046  1.00  0.00     0.019 C 
HETATM    7  N   UNL     1     -40.804  55.644 -50.084  1.00  0.00    -0.096 N 
HETATM    8  C   UNL     1     -42.344  56.749 -53.308  1.00  0.00     0.104 A 
HETATM    9  C   UNL     1     -42.695  57.757 -54.413  1.00  0.00     0.046 A 
HETATM   10  H   UNL     1     -41.220  60.396 -53.171  1.00  0.00     0.166 HD
ENDROOT
BRANCH   4  11
HETATM   11  S   UNL     1     -39.851  59.184 -51.071  1.00  0.00    -0.102 SA
BRANCH  11  12
HETATM   12  C   UNL     1     -40.980  59.656 -49.734  1.00  0.00     0.184 C 
BRANCH  12  13
HETATM   13  C   UNL     1     -42.057  60.650 -50.165  1.00  0.00     0.231 C 
HETATM   14  N   UNL     1     -43.305  60.347 -49.630  1.00  0.00    -0.324 N 
HETATM   15  H   UNL     1     -43.326  59.593 -48.956  1.00  0.00     0.169 HD
HETATM   16  O   UNL     1     -41.757  61.647 -50.814  1.00  0.00    -0.272 OA
BRANCH  14  17
HETATM   17  C   UNL     1     -44.498  61.109 -49.706  1.00  0.00     0.071 A 
HETATM   18  C   UNL     1     -45.196  61.439 -50.884  1.00  0.00     0.096 A 
HETATM   19  C   UNL     1     -46.356  62.226 -50.803  1.00  0.00     0.065 A 
HETATM   20  C   UNL     1     -46.826  62.678 -49.570  1.00  0.00     0.070 A 
HETATM   21 CL   UNL     1     -48.259  63.644 -49.535  1.00  0.00    -0.081 Cl
HETATM   22  C   UNL     1     -46.149  62.345 -48.400  1.00  0.00     0.092 A 
HETATM   23  C   UNL     1     -45.013  61.534 -48.468  1.00  0.00     0.071 A 
BRANCH  18  24
HETATM   24  O   UNL     1     -44.807  60.839 -52.049  1.00  0.00    -0.354 OA
HETATM   25  C   UNL     1     -45.414  59.594 -52.371  1.00  0.00     0.210 C 
ENDBRANCH  18  24
BRANCH  22  26
HETATM   26  O   UNL     1     -46.647  62.749 -47.188  1.00  0.00    -0.354 OA
HETATM   27  C   UNL     1     -46.987  61.644 -46.352  1.00  0.00     0.210 C 
ENDBRANCH  22  26
ENDBRANCH  14  17
ENDBRANCH  12  13
ENDBRANCH  11  12
ENDBRANCH   4  11
BRANCH   8  28
HETATM   28  C   UNL     1     -41.761  55.444 -53.857  1.00  0.00    -0.044 A 
HETATM   29  C   UNL     1     -40.511  55.449 -54.502  1.00  0.00     0.008 A 
HETATM   30  C   UNL     1     -39.971  54.268 -55.016  1.00  0.00     0.001 A 
HETATM   31  C   UNL     1     -40.667  53.070 -54.893  1.00  0.00     0.000 A 
HETATM   32  C   UNL     1     -41.907  53.050 -54.264  1.00  0.00     0.001 A 
HETATM   33  C   UNL     1     -42.458  54.230 -53.759  1.00  0.00     0.008 A 
ENDBRANCH   8  28
BRANCH   9  34
HETATM   34  C   UNL     1     -43.465  57.308 -55.632  1.00  0.00     0.255 C 
HETATM   35  N   UNL     1     -42.697  57.006 -56.738  1.00  0.00    -0.323 N 
HETATM   36  H   UNL     1     -41.697  57.113 -56.670  1.00  0.00     0.169 HD
HETATM   37  O   UNL     1     -44.692  57.282 -55.595  1.00  0.00    -0.268 OA
BRANCH  35  38
HETATM   38  C   UNL     1     -43.160  56.672 -58.032  1.00  0.00     0.035 A 
HETATM   39  C   UNL     1     -43.452  55.373 -58.453  1.00  0.00     0.029 A 
HETATM   40  C   UNL     1     -43.921  55.134 -59.750  1.00  0.00     0.002 A 
HETATM   41  C   UNL     1     -44.102  56.192 -60.637  1.00  0.00     0.000 A 
HETATM   42  C   UNL     1     -43.812  57.490 -60.230  1.00  0.00     0.002 A 
HETATM   43  C   UNL     1     -43.340  57.728 -58.936  1.00  0.00     0.029 A 
ENDBRANCH  35  38
ENDBRANCH   9  34
TORSDOF 9
ENDMDL
MODEL 3
REMARK VINA RESULT:      -8.8      5.727      9.076
REMARK  9 active torsions:
REMARK  status: ('A' for Active; 'I' for Inactive)
REMARK    1  A    between atoms: C_4  and  S_5 
REMARK    2  A    between atoms: S_5  and  C_6 
REMARK    3  A    between atoms: C_6  and  C_7 
REMARK       I    between atoms: C_7  and  N_8 
REMARK    4  A    between atoms: N_8  and  C_9 
REMARK    5  A    between atoms: C_10  and  O_11 
REMARK    6  A    between atoms: C_16  and  O_17 
REMARK    7  A    between atoms: C_24  and  C_25 
REMARK    8  A    between atoms: C_31  and  C_32 
REMARK       I    between atoms: C_32  and  N_33 
REMARK    9  A    between atoms: N_33  and  C_34 
ROOT
HETATM    1  C   UNL     1     -42.858  54.939 -56.467  1.00  0.00     0.069 C 
HETATM    2  C   UNL     1     -42.953  56.247 -55.717  1.00  0.00     0.019 A 
HETATM    3  N   UNL     1     -43.139  57.365 -56.510  1.00  0.00    -0.353 N 
HETATM    4  C   UNL     1     -43.288  58.659 -56.050  1.00  0.00     0.087 A 
HETATM    5  C   UNL     1     -43.317  58.886 -54.717  1.00  0.00     0.055 A 
HETATM    6  C   UNL     1     -43.566  60.274 -54.152  1.00  0.00     0.019 C 
HETATM    7  N   UNL     1     -43.773  61.426 -53.683  1.00  0.00    -0.096 N 
HETATM    8  C   UNL     1     -43.067  57.753 -53.715  1.00  0.00     0.104 A 
HETATM    9  C   UNL     1     -42.878  56.375 -54.367  1.00  0.00     0.046 A 
HETATM   10  H   UNL     1     -43.393  57.218 -57.482  1.00  0.00     0.166 HD
ENDROOT
BRANCH   4  11
HETATM   11  S   UNL     1     -43.456  59.985 -57.181  1.00  0.00    -0.102 SA
BRANCH  11  12
HETATM   12  C   UNL     1     -42.540  59.358 -58.614  1.00  0.00     0.184 C 
BRANCH  12  13
HETATM   13  C   UNL     1     -43.416  58.621 -59.625  1.00  0.00     0.231 C 
HETATM   14  N   UNL     1     -44.763  58.647 -59.280  1.00  0.00    -0.324 N 
HETATM   15  H   UNL     1     -45.005  59.224 -58.485  1.00  0.00     0.169 HD
HETATM   16  O   UNL     1     -42.930  58.182 -60.664  1.00  0.00    -0.272 OA
BRANCH  14  17
HETATM   17  C   UNL     1     -45.870  58.184 -60.036  1.00  0.00     0.071 A 
HETATM   18  C   UNL     1     -46.203  56.837 -60.277  1.00  0.00     0.096 A 
HETATM   19  C   UNL     1     -47.320  56.532 -61.070  1.00  0.00     0.065 A 
HETATM   20  C   UNL     1     -48.105  57.549 -61.617  1.00  0.00     0.070 A 
HETATM   21 CL   UNL     1     -49.467  57.110 -62.586  1.00  0.00    -0.081 Cl
HETATM   22  C   UNL     1     -47.789  58.882 -61.373  1.00  0.00     0.092 A 
HETATM   23  C   UNL     1     -46.699  59.194 -60.557  1.00  0.00     0.071 A 
BRANCH  18  24
HETATM   24  O   UNL     1     -45.519  55.875 -59.588  1.00  0.00    -0.354 OA
HETATM   25  C   UNL     1     -44.733  54.967 -60.350  1.00  0.00     0.210 C 
ENDBRANCH  18  24
BRANCH  22  26
HETATM   26  O   UNL     1     -48.596  59.874 -61.870  1.00  0.00    -0.354 OA
HETATM   27  C   UNL     1     -49.569  60.302 -60.919  1.00  0.00     0.210 C 
ENDBRANCH  22  26
ENDBRANCH  14  17
ENDBRANCH  12  13
ENDBRANCH  11  12
ENDBRANCH   4  11
BRANCH   8  28
HETATM   28  C   UNL     1     -41.931  58.119 -52.756  1.00  0.00    -0.044 A 
HETATM   29  C   UNL     1     -42.165  58.155 -51.370  1.00  0.00     0.008 A 
HETATM   30  C   UNL     1     -41.142  58.497 -50.483  1.00  0.00     0.001 A 
HETATM   31  C   UNL     1     -39.874  58.806 -50.966  1.00  0.00     0.000 A 
HETATM   32  C   UNL     1     -39.628  58.782 -52.335  1.00  0.00     0.001 A 
HETATM   33  C   UNL     1     -40.652  58.453 -53.227  1.00  0.00     0.008 A 
ENDBRANCH   8  28
BRANCH   9  34
HETATM   34  C   UNL     1     -42.499  55.183 -53.521  1.00  0.00     0.255 C 
HETATM   35  N   UNL     1     -41.204  54.734 -53.678  1.00  0.00    -0.323 N 
HETATM   36  H   UNL     1     -40.609  55.209 -54.339  1.00  0.00     0.169 HD
HETATM   37  O   UNL     1     -43.345  54.661 -52.800  1.00  0.00    -0.268 OA
BRANCH  35  38
HETATM   38  C   UNL     1     -40.625  53.581 -53.100  1.00  0.00     0.035 A 
HETATM   39  C   UNL     1     -40.428  53.401 -51.730  1.00  0.00     0.029 A 
HETATM   40  C   UNL     1     -39.859  52.218 -51.242  1.00  0.00     0.002 A 
HETATM   41  C   UNL     1     -39.484  51.204 -52.120  1.00  0.00     0.000 A 
HETATM   42  C   UNL     1     -39.674  51.374 -53.488  1.00  0.00     0.002 A 
HETATM   43  C   UNL     1     -40.237  52.557 -53.975  1.00  0.00     0.029 A 
ENDBRANCH  35  38
ENDBRANCH   9  34
TORSDOF 9
ENDMDL
MODEL 4
REMARK VINA RESULT:      -8.4      5.618      8.630
REMARK  9 active torsions:
REMARK  status: ('A' for Active; 'I' for Inactive)
REMARK    1  A    between atoms: C_4  and  S_5 
REMARK    2  A    between atoms: S_5  and  C_6 
REMARK    3  A    between atoms: C_6  and  C_7 
REMARK       I    between atoms: C_7  and  N_8 
REMARK    4  A    between atoms: N_8  and  C_9 
REMARK    5  A    between atoms: C_10  and  O_11 
REMARK    6  A    between atoms: C_16  and  O_17 
REMARK    7  A    between atoms: C_24  and  C_25 
REMARK    8  A    between atoms: C_31  and  C_32 
REMARK       I    between atoms: C_32  and  N_33 
REMARK    9  A    between atoms: N_33  and  C_34 
ROOT
HETATM    1  C   UNL     1     -42.590  55.820 -57.278  1.00  0.00     0.069 C 
HETATM    2  C   UNL     1     -43.005  56.573 -56.035  1.00  0.00     0.019 A 
HETATM    3  N   UNL     1     -43.869  57.631 -56.252  1.00  0.00    -0.353 N 
HETATM    4  C   UNL     1     -44.410  58.439 -55.272  1.00  0.00     0.087 A 
HETATM    5  C   UNL     1     -44.140  58.171 -53.973  1.00  0.00     0.055 A 
HETATM    6  C   UNL     1     -44.776  58.970 -52.849  1.00  0.00     0.019 C 
HETATM    7  N   UNL     1     -45.303  59.633 -51.914  1.00  0.00    -0.096 N 
HETATM    8  C   UNL     1     -43.154  57.066 -53.581  1.00  0.00     0.104 A 
HETATM    9  C   UNL     1     -42.599  56.272 -54.775  1.00  0.00     0.046 A 
HETATM   10  H   UNL     1     -44.310  57.702 -57.165  1.00  0.00     0.166 HD
ENDROOT
BRANCH   4  11
HETATM   11  S   UNL     1     -45.446  59.783 -55.705  1.00  0.00    -0.102 SA
BRANCH  11  12
HETATM   12  C   UNL     1     -44.272  61.165 -55.688  1.00  0.00     0.184 C 
BRANCH  12  13
HETATM   13  C   UNL     1     -43.948  61.708 -57.078  1.00  0.00     0.231 C 
HETATM   14  N   UNL     1     -42.621  61.494 -57.436  1.00  0.00    -0.324 N 
HETATM   15  H   UNL     1     -42.077  60.927 -56.799  1.00  0.00     0.169 HD
HETATM   16  O   UNL     1     -44.838  62.165 -57.790  1.00  0.00    -0.272 OA
BRANCH  14  17
HETATM   17  C   UNL     1     -42.000  61.744 -58.687  1.00  0.00     0.071 A 
HETATM   18  C   UNL     1     -42.079  60.924 -59.829  1.00  0.00     0.096 A 
HETATM   19  C   UNL     1     -41.386  61.292 -60.993  1.00  0.00     0.065 A 
HETATM   20  C   UNL     1     -40.626  62.462 -61.031  1.00  0.00     0.070 A 
HETATM   21 CL   UNL     1     -39.795  62.860 -62.493  1.00  0.00    -0.081 Cl
HETATM   22  C   UNL     1     -40.554  63.284 -59.910  1.00  0.00     0.092 A 
HETATM   23  C   UNL     1     -41.268  62.943 -58.759  1.00  0.00     0.071 A 
BRANCH  18  24
HETATM   24  O   UNL     1     -42.965  59.883 -59.811  1.00  0.00    -0.354 OA
HETATM   25  C   UNL     1     -42.425  58.570 -59.888  1.00  0.00     0.210 C 
ENDBRANCH  18  24
BRANCH  22  26
HETATM   26  O   UNL     1     -39.849  64.458 -59.973  1.00  0.00    -0.354 OA
HETATM   27  C   UNL     1     -38.538  64.328 -59.425  1.00  0.00     0.210 C 
ENDBRANCH  22  26
ENDBRANCH  14  17
ENDBRANCH  12  13
ENDBRANCH  11  12
ENDBRANCH   4  11
BRANCH   8  28
HETATM   28  C   UNL     1     -42.053  57.619 -52.671  1.00  0.00    -0.044 A 
HETATM   29  C   UNL     1     -41.970  57.197 -51.333  1.00  0.00     0.008 A 
HETATM   30  C   UNL     1     -40.978  57.701 -50.488  1.00  0.00     0.001 A 
HETATM   31  C   UNL     1     -40.058  58.629 -50.967  1.00  0.00     0.000 A 
HETATM   32  C   UNL     1     -40.132  59.061 -52.287  1.00  0.00     0.001 A 
HETATM   33  C   UNL     1     -41.130  58.570 -53.132  1.00  0.00     0.008 A 
ENDBRANCH   8  28
BRANCH   9  34
HETATM   34  C   UNL     1     -41.523  55.235 -54.560  1.00  0.00     0.255 C 
HETATM   35  N   UNL     1     -41.938  54.071 -53.946  1.00  0.00    -0.323 N 
HETATM   36  H   UNL     1     -42.905  53.992 -53.675  1.00  0.00     0.169 HD
HETATM   37  O   UNL     1     -40.367  55.490 -54.885  1.00  0.00    -0.268 OA
BRANCH  35  38
HETATM   38  C   UNL     1     -41.126  52.992 -53.527  1.00  0.00     0.035 A 
HETATM   39  C   UNL     1     -40.800  51.895 -54.327  1.00  0.00     0.029 A 
HETATM   40  C   UNL     1     -39.976  50.876 -53.835  1.00  0.00     0.002 A 
HETATM   41  C   UNL     1     -39.469  50.946 -52.540  1.00  0.00     0.000 A 
HETATM   42  C   UNL     1     -39.789  52.033 -51.734  1.00  0.00     0.002 A 
HETATM   43  C   UNL     1     -40.616  53.048 -52.223  1.00  0.00     0.029 A 
ENDBRANCH  35  38
ENDBRANCH   9  34
TORSDOF 9
ENDMDL
MODEL 5
REMARK VINA RESULT:      -8.4      4.731      9.949
REMARK  9 active torsions:
REMARK  status: ('A' for Active; 'I' for Inactive)
REMARK    1  A    between atoms: C_4  and  S_5 
REMARK    2  A    between atoms: S_5  and  C_6 
REMARK    3  A    between atoms: C_6  and  C_7 
REMARK       I    between atoms: C_7  and  N_8 
REMARK    4  A    between atoms: N_8  and  C_9 
REMARK    5  A    between atoms: C_10  and  O_11 
REMARK    6  A    between atoms: C_16  and  O_17 
REMARK    7  A    between atoms: C_24  and  C_25 
REMARK    8  A    between atoms: C_31  and  C_32 
REMARK       I    between atoms: C_32  and  N_33 
REMARK    9  A    between atoms: N_33  and  C_34 
ROOT
HETATM    1  C   UNL     1     -44.029  57.318 -56.433  1.00  0.00     0.069 C 
HETATM    2  C   UNL     1     -43.815  58.197 -55.223  1.00  0.00     0.019 A 
HETATM    3  N   UNL     1     -44.085  57.596 -54.007  1.00  0.00    -0.353 N 
HETATM    4  C   UNL     1     -43.930  58.186 -52.768  1.00  0.00     0.087 A 
HETATM    5  C   UNL     1     -43.421  59.438 -52.693  1.00  0.00     0.055 A 
HETATM    6  C   UNL     1     -43.146  60.104 -51.355  1.00  0.00     0.019 C 
HETATM    7  N   UNL     1     -42.918  60.658 -50.246  1.00  0.00    -0.096 N 
HETATM    8  C   UNL     1     -43.128  60.251 -53.958  1.00  0.00     0.104 A 
HETATM    9  C   UNL     1     -43.383  59.484 -55.265  1.00  0.00     0.046 A 
HETATM   10  H   UNL     1     -44.205  56.587 -53.995  1.00  0.00     0.166 HD
ENDROOT
BRANCH   4  11
HETATM   11  S   UNL     1     -44.371  57.317 -51.313  1.00  0.00    -0.102 SA
BRANCH  11  12
HETATM   12  C   UNL     1     -42.827  56.448 -50.928  1.00  0.00     0.184 C 
BRANCH  12  13
HETATM   13  C   UNL     1     -42.709  55.083 -51.604  1.00  0.00     0.231 C 
HETATM   14  N   UNL     1     -41.459  54.881 -52.178  1.00  0.00    -0.324 N 
HETATM   15  H   UNL     1     -40.766  55.594 -51.993  1.00  0.00     0.169 HD
HETATM   16  O   UNL     1     -43.617  54.262 -51.507  1.00  0.00    -0.272 OA
BRANCH  14  17
HETATM   17  C   UNL     1     -40.950  53.698 -52.772  1.00  0.00     0.071 A 
HETATM   18  C   UNL     1     -41.103  53.315 -54.119  1.00  0.00     0.096 A 
HETATM   19  C   UNL     1     -40.561  52.096 -54.557  1.00  0.00     0.065 A 
HETATM   20  C   UNL     1     -39.869  51.265 -53.675  1.00  0.00     0.070 A 
HETATM   21 CL   UNL     1     -39.226  49.777 -54.273  1.00  0.00    -0.081 Cl
HETATM   22  C   UNL     1     -39.703  51.643 -52.345  1.00  0.00     0.092 A 
HETATM   23  C   UNL     1     -40.209  52.870 -51.909  1.00  0.00     0.071 A 
BRANCH  18  24
HETATM   24  O   UNL     1     -41.633  54.227 -54.988  1.00  0.00    -0.354 OA
HETATM   25  C   UNL     1     -43.012  54.093 -55.308  1.00  0.00     0.210 C 
ENDBRANCH  18  24
BRANCH  22  26
HETATM   26  O   UNL     1     -38.976  50.846 -51.498  1.00  0.00    -0.354 OA
HETATM   27  C   UNL     1     -39.808  49.987 -50.721  1.00  0.00     0.210 C 
ENDBRANCH  22  26
ENDBRANCH  14  17
ENDBRANCH  12  13
ENDBRANCH  11  12
ENDBRANCH   4  11
BRANCH   8  28
HETATM   28  C   UNL     1     -43.847  61.603 -53.911  1.00  0.00    -0.044 A 
HETATM   29  C   UNL     1     -43.101  62.795 -53.909  1.00  0.00     0.008 A 
HETATM   30  C   UNL     1     -43.741  64.035 -53.856  1.00  0.00     0.001 A 
HETATM   31  C   UNL     1     -45.131  64.102 -53.807  1.00  0.00     0.000 A 
HETATM   32  C   UNL     1     -45.882  62.931 -53.802  1.00  0.00     0.001 A 
HETATM   33  C   UNL     1     -45.245  61.688 -53.841  1.00  0.00     0.008 A 
ENDBRANCH   8  28
BRANCH   9  34
HETATM   34  C   UNL     1     -43.260  60.191 -56.593  1.00  0.00     0.255 C 
HETATM   35  N   UNL     1     -41.994  60.200 -57.143  1.00  0.00    -0.323 N 
HETATM   36  H   UNL     1     -41.247  59.758 -56.632  1.00  0.00     0.169 HD
HETATM   37  O   UNL     1     -44.245  60.743 -57.076  1.00  0.00    -0.268 OA
BRANCH  35  38
HETATM   38  C   UNL     1     -41.577  60.880 -58.311  1.00  0.00     0.035 A 
HETATM   39  C   UNL     1     -40.750  62.005 -58.315  1.00  0.00     0.029 A 
HETATM   40  C   UNL     1     -40.373  62.607 -59.521  1.00  0.00     0.002 A 
HETATM   41  C   UNL     1     -40.819  62.090 -60.734  1.00  0.00     0.000 A 
HETATM   42  C   UNL     1     -41.646  60.971 -60.743  1.00  0.00     0.002 A 
HETATM   43  C   UNL     1     -42.026  60.372 -59.538  1.00  0.00     0.029 A 
ENDBRANCH  35  38
ENDBRANCH   9  34
TORSDOF 9
ENDMDL
MODEL 6
REMARK VINA RESULT:      -8.3      5.476      8.755
REMARK  9 active torsions:
REMARK  status: ('A' for Active; 'I' for Inactive)
REMARK    1  A    between atoms: C_4  and  S_5 
REMARK    2  A    between atoms: S_5  and  C_6 
REMARK    3  A    between atoms: C_6  and  C_7 
REMARK       I    between atoms: C_7  and  N_8 
REMARK    4  A    between atoms: N_8  and  C_9 
REMARK    5  A    between atoms: C_10  and  O_11 
REMARK    6  A    between atoms: C_16  and  O_17 
REMARK    7  A    between atoms: C_24  and  C_25 
REMARK    8  A    between atoms: C_31  and  C_32 
REMARK       I    between atoms: C_32  and  N_33 
REMARK    9  A    between atoms: N_33  and  C_34 
ROOT
HETATM    1  C   UNL     1     -42.604  55.817 -56.450  1.00  0.00     0.069 C 
HETATM    2  C   UNL     1     -42.622  57.097 -55.646  1.00  0.00     0.019 A 
HETATM    3  N   UNL     1     -42.677  58.258 -56.395  1.00  0.00    -0.353 N 
HETATM    4  C   UNL     1     -42.738  59.540 -55.885  1.00  0.00     0.087 A 
HETATM    5  C   UNL     1     -42.807  59.713 -54.545  1.00  0.00     0.055 A 
HETATM    6  C   UNL     1     -42.963  61.093 -53.930  1.00  0.00     0.019 C 
HETATM    7  N   UNL     1     -43.093  62.239 -53.418  1.00  0.00    -0.096 N 
HETATM    8  C   UNL     1     -42.699  58.523 -53.586  1.00  0.00     0.104 A 
HETATM    9  C   UNL     1     -42.598  57.162 -54.290  1.00  0.00     0.046 A 
HETATM   10  H   UNL     1     -42.899  58.174 -57.383  1.00  0.00     0.166 HD
ENDROOT
BRANCH   4  11
HETATM   11  S   UNL     1     -42.742  60.922 -56.961  1.00  0.00    -0.102 SA
BRANCH  11  12
HETATM   12  C   UNL     1     -41.910  60.245 -58.423  1.00  0.00     0.184 C 
BRANCH  12  13
HETATM   13  C   UNL     1     -42.871  59.791 -59.518  1.00  0.00     0.231 C 
HETATM   14  N   UNL     1     -43.966  59.099 -59.011  1.00  0.00    -0.324 N 
HETATM   15  H   UNL     1     -44.046  59.075 -58.003  1.00  0.00     0.169 HD
HETATM   16  O   UNL     1     -42.694  60.136 -60.683  1.00  0.00    -0.272 OA
BRANCH  14  17
HETATM   17  C   UNL     1     -45.114  58.644 -59.708  1.00  0.00     0.071 A 
HETATM   18  C   UNL     1     -46.279  59.393 -59.964  1.00  0.00     0.096 A 
HETATM   19  C   UNL     1     -47.349  58.797 -60.649  1.00  0.00     0.065 A 
HETATM   20  C   UNL     1     -47.268  57.472 -61.082  1.00  0.00     0.070 A 
HETATM   21 CL   UNL     1     -48.619  56.792 -61.918  1.00  0.00    -0.081 Cl
HETATM   22  C   UNL     1     -46.116  56.729 -60.843  1.00  0.00     0.092 A 
HETATM   23  C   UNL     1     -45.033  57.326 -60.193  1.00  0.00     0.071 A 
BRANCH  18  24
HETATM   24  O   UNL     1     -46.256  60.731 -59.681  1.00  0.00    -0.354 OA
HETATM   25  C   UNL     1     -46.936  61.156 -58.507  1.00  0.00     0.210 C 
ENDBRANCH  18  24
BRANCH  22  26
HETATM   26  O   UNL     1     -46.024  55.446 -61.318  1.00  0.00    -0.354 OA
HETATM   27  C   UNL     1     -44.955  54.722 -60.711  1.00  0.00     0.210 C 
ENDBRANCH  22  26
ENDBRANCH  14  17
ENDBRANCH  12  13
ENDBRANCH  11  12
ENDBRANCH   4  11
BRANCH   8  28
HETATM   28  C   UNL     1     -41.580  58.750 -52.565  1.00  0.00    -0.044 A 
HETATM   29  C   UNL     1     -40.243  58.832 -52.993  1.00  0.00     0.008 A 
HETATM   30  C   UNL     1     -39.211  59.028 -52.073  1.00  0.00     0.001 A 
HETATM   31  C   UNL     1     -39.499  59.147 -50.717  1.00  0.00     0.000 A 
HETATM   32  C   UNL     1     -40.815  59.060 -50.276  1.00  0.00     0.001 A 
HETATM   33  C   UNL     1     -41.849  58.851 -51.191  1.00  0.00     0.008 A 
ENDBRANCH   8  28
BRANCH   9  34
HETATM   34  C   UNL     1     -42.359  55.907 -53.484  1.00  0.00     0.255 C 
HETATM   35  N   UNL     1     -41.099  55.359 -53.602  1.00  0.00    -0.323 N 
HETATM   36  H   UNL     1     -40.436  55.811 -54.213  1.00  0.00     0.169 HD
HETATM   37  O   UNL     1     -43.280  55.428 -52.827  1.00  0.00    -0.268 OA
BRANCH  35  38
HETATM   38  C   UNL     1     -40.644  54.138 -53.053  1.00  0.00     0.035 A 
HETATM   39  C   UNL     1     -40.398  52.983 -53.797  1.00  0.00     0.029 A 
HETATM   40  C   UNL     1     -39.935  51.819 -53.172  1.00  0.00     0.002 A 
HETATM   41  C   UNL     1     -39.712  51.801 -51.797  1.00  0.00     0.000 A 
HETATM   42  C   UNL     1     -39.956  52.945 -51.045  1.00  0.00     0.002 A 
HETATM   43  C   UNL     1     -40.424  54.106 -51.669  1.00  0.00     0.029 A 
ENDBRANCH  35  38
ENDBRANCH   9  34
TORSDOF 9
ENDMDL
MODEL 7
REMARK VINA RESULT:      -8.1      5.583      6.748
REMARK  9 active torsions:
REMARK  status: ('A' for Active; 'I' for Inactive)
REMARK    1  A    between atoms: C_4  and  S_5 
REMARK    2  A    between atoms: S_5  and  C_6 
REMARK    3  A    between atoms: C_6  and  C_7 
REMARK       I    between atoms: C_7  and  N_8 
REMARK    4  A    between atoms: N_8  and  C_9 
REMARK    5  A    between atoms: C_10  and  O_11 
REMARK    6  A    between atoms: C_16  and  O_17 
REMARK    7  A    between atoms: C_24  and  C_25 
REMARK    8  A    between atoms: C_31  and  C_32 
REMARK       I    between atoms: C_32  and  N_33 
REMARK    9  A    between atoms: N_33  and  C_34 
ROOT
HETATM    1  C   UNL     1     -44.972  58.591 -53.498  1.00  0.00     0.069 C 
HETATM    2  C   UNL     1     -44.766  58.986 -54.942  1.00  0.00     0.019 A 
HETATM    3  N   UNL     1     -45.815  59.684 -55.514  1.00  0.00    -0.353 N 
HETATM    4  C   UNL     1     -45.842  60.178 -56.803  1.00  0.00     0.087 A 
HETATM    5  C   UNL     1     -44.749  60.036 -57.587  1.00  0.00     0.055 A 
HETATM    6  C   UNL     1     -44.687  60.635 -58.981  1.00  0.00     0.019 C 
HETATM    7  N   UNL     1     -44.636  61.132 -60.140  1.00  0.00    -0.096 N 
HETATM    8  C   UNL     1     -43.532  59.235 -57.111  1.00  0.00     0.104 A 
HETATM    9  C   UNL     1     -43.654  58.711 -55.671  1.00  0.00     0.046 A 
HETATM   10  H   UNL     1     -46.533  60.049 -54.894  1.00  0.00     0.166 HD
ENDROOT
BRANCH   4  11
HETATM   11  S   UNL     1     -47.269  60.994 -57.408  1.00  0.00    -0.102 SA
BRANCH  11  12
HETATM   12  C   UNL     1     -47.113  62.623 -56.628  1.00  0.00     0.184 C 
BRANCH  12  13
HETATM   13  C   UNL     1     -48.383  63.083 -55.915  1.00  0.00     0.231 C 
HETATM   14  N   UNL     1     -48.840  62.150 -54.989  1.00  0.00    -0.324 N 
HETATM   15  H   UNL     1     -48.237  61.355 -54.828  1.00  0.00     0.169 HD
HETATM   16  O   UNL     1     -48.827  64.212 -56.103  1.00  0.00    -0.272 OA
BRANCH  14  17
HETATM   17  C   UNL     1     -49.903  62.287 -54.061  1.00  0.00     0.071 A 
HETATM   18  C   UNL     1     -51.228  61.848 -54.249  1.00  0.00     0.096 A 
HETATM   19  C   UNL     1     -52.182  62.078 -53.245  1.00  0.00     0.065 A 
HETATM   20  C   UNL     1     -51.829  62.730 -52.063  1.00  0.00     0.070 A 
HETATM   21 CL   UNL     1     -53.048  62.985 -50.864  1.00  0.00    -0.081 Cl
HETATM   22  C   UNL     1     -50.519  63.156 -51.864  1.00  0.00     0.092 A 
HETATM   23  C   UNL     1     -49.556  62.901 -52.844  1.00  0.00     0.071 A 
BRANCH  18  24
HETATM   24  O   UNL     1     -51.496  61.065 -55.337  1.00  0.00    -0.354 OA
HETATM   25  C   UNL     1     -52.862  60.903 -55.699  1.00  0.00     0.210 C 
ENDBRANCH  18  24
BRANCH  22  26
HETATM   26  O   UNL     1     -50.169  63.748 -50.678  1.00  0.00    -0.354 OA
HETATM   27  C   UNL     1     -48.761  63.953 -50.574  1.00  0.00     0.210 C 
ENDBRANCH  22  26
ENDBRANCH  14  17
ENDBRANCH  12  13
ENDBRANCH  11  12
ENDBRANCH   4  11
BRANCH   8  28
HETATM   28  C   UNL     1     -43.180  58.135 -58.116  1.00  0.00    -0.044 A 
HETATM   29  C   UNL     1     -41.999  58.228 -58.875  1.00  0.00     0.008 A 
HETATM   30  C   UNL     1     -41.670  57.239 -59.804  1.00  0.00     0.001 A 
HETATM   31  C   UNL     1     -42.511  56.145 -59.986  1.00  0.00     0.000 A 
HETATM   32  C   UNL     1     -43.686  56.042 -59.249  1.00  0.00     0.001 A 
HETATM   33  C   UNL     1     -44.026  57.036 -58.328  1.00  0.00     0.008 A 
ENDBRANCH   8  28
BRANCH   9  34
HETATM   34  C   UNL     1     -42.592  57.800 -55.104  1.00  0.00     0.255 C 
HETATM   35  N   UNL     1     -42.877  56.451 -55.166  1.00  0.00    -0.323 N 
HETATM   36  H   UNL     1     -43.758  56.165 -55.563  1.00  0.00     0.169 HD
HETATM   37  O   UNL     1     -41.589  58.288 -54.591  1.00  0.00    -0.268 OA
BRANCH  35  38
HETATM   38  C   UNL     1     -42.118  55.394 -54.613  1.00  0.00     0.035 A 
HETATM   39  C   UNL     1     -42.410  54.764 -53.402  1.00  0.00     0.029 A 
HETATM   40  C   UNL     1     -41.612  53.713 -52.936  1.00  0.00     0.002 A 
HETATM   41  C   UNL     1     -40.515  53.281 -53.677  1.00  0.00     0.000 A 
HETATM   42  C   UNL     1     -40.213  53.903 -54.884  1.00  0.00     0.002 A 
HETATM   43  C   UNL     1     -41.007  54.955 -55.347  1.00  0.00     0.029 A 
ENDBRANCH  35  38
ENDBRANCH   9  34
TORSDOF 9
ENDMDL
MODEL 8
REMARK VINA RESULT:      -8.1      3.572      9.869
REMARK  9 active torsions:
REMARK  status: ('A' for Active; 'I' for Inactive)
REMARK    1  A    between atoms: C_4  and  S_5 
REMARK    2  A    between atoms: S_5  and  C_6 
REMARK    3  A    between atoms: C_6  and  C_7 
REMARK       I    between atoms: C_7  and  N_8 
REMARK    4  A    between atoms: N_8  and  C_9 
REMARK    5  A    between atoms: C_10  and  O_11 
REMARK    6  A    between atoms: C_16  and  O_17 
REMARK    7  A    between atoms: C_24  and  C_25 
REMARK    8  A    between atoms: C_31  and  C_32 
REMARK       I    between atoms: C_32  and  N_33 
REMARK    9  A    between atoms: N_33  and  C_34 
ROOT
HETATM    1  C   UNL     1     -41.409  58.615 -50.592  1.00  0.00     0.069 C 
HETATM    2  C   UNL     1     -42.293  59.036 -51.744  1.00  0.00     0.019 A 
HETATM    3  N   UNL     1     -42.010  58.424 -52.952  1.00  0.00    -0.353 N 
HETATM    4  C   UNL     1     -42.701  58.622 -54.131  1.00  0.00     0.087 A 
HETATM    5  C   UNL     1     -43.785  59.431 -54.134  1.00  0.00     0.055 A 
HETATM    6  C   UNL     1     -44.635  59.617 -55.379  1.00  0.00     0.019 C 
HETATM    7  N   UNL     1     -45.342  59.772 -56.412  1.00  0.00    -0.096 N 
HETATM    8  C   UNL     1     -44.186  60.221 -52.883  1.00  0.00     0.104 A 
HETATM    9  C   UNL     1     -43.307  59.934 -51.656  1.00  0.00     0.046 A 
HETATM   10  H   UNL     1     -41.392  57.619 -52.941  1.00  0.00     0.166 HD
ENDROOT
BRANCH   4  11
HETATM   11  S   UNL     1     -42.188  57.820 -55.602  1.00  0.00    -0.102 SA
BRANCH  11  12
HETATM   12  C   UNL     1     -43.436  56.514 -55.757  1.00  0.00     0.184 C 
BRANCH  12  13
HETATM   13  C   UNL     1     -43.181  55.313 -54.848  1.00  0.00     0.231 C 
HETATM   14  N   UNL     1     -41.827  55.116 -54.596  1.00  0.00    -0.324 N 
HETATM   15  H   UNL     1     -41.203  55.833 -54.944  1.00  0.00     0.169 HD
HETATM   16  O   UNL     1     -44.120  54.708 -54.340  1.00  0.00    -0.272 OA
BRANCH  14  17
HETATM   17  C   UNL     1     -41.228  54.190 -53.705  1.00  0.00     0.071 A 
HETATM   18  C   UNL     1     -41.150  54.320 -52.304  1.00  0.00     0.096 A 
HETATM   19  C   UNL     1     -40.501  53.328 -51.553  1.00  0.00     0.065 A 
HETATM   20  C   UNL     1     -39.938  52.214 -52.178  1.00  0.00     0.070 A 
HETATM   21 CL   UNL     1     -39.151  51.026 -51.199  1.00  0.00    -0.081 Cl
HETATM   22  C   UNL     1     -40.023  52.072 -53.560  1.00  0.00     0.092 A 
HETATM   23  C   UNL     1     -40.697  53.038 -54.312  1.00  0.00     0.071 A 
BRANCH  18  24
HETATM   24  O   UNL     1     -41.857  55.330 -51.714  1.00  0.00    -0.354 OA
HETATM   25  C   UNL     1     -42.957  54.956 -50.893  1.00  0.00     0.210 C 
ENDBRANCH  18  24
BRANCH  22  26
HETATM   26  O   UNL     1     -39.515  50.949 -54.160  1.00  0.00    -0.354 OA
HETATM   27  C   UNL     1     -40.526  49.979 -54.430  1.00  0.00     0.210 C 
ENDBRANCH  22  26
ENDBRANCH  14  17
ENDBRANCH  12  13
ENDBRANCH  11  12
ENDBRANCH   4  11
BRANCH   8  28
HETATM   28  C   UNL     1     -44.297  61.715 -53.199  1.00  0.00    -0.044 A 
HETATM   29  C   UNL     1     -45.533  62.372 -53.067  1.00  0.00     0.008 A 
HETATM   30  C   UNL     1     -45.653  63.732 -53.362  1.00  0.00     0.001 A 
HETATM   31  C   UNL     1     -44.542  64.453 -53.790  1.00  0.00     0.000 A 
HETATM   32  C   UNL     1     -43.314  63.816 -53.933  1.00  0.00     0.001 A 
HETATM   33  C   UNL     1     -43.192  62.454 -53.651  1.00  0.00     0.008 A 
ENDBRANCH   8  28
BRANCH   9  34
HETATM   34  C   UNL     1     -43.498  60.727 -50.386  1.00  0.00     0.255 C 
HETATM   35  N   UNL     1     -44.676  60.486 -49.709  1.00  0.00    -0.323 N 
HETATM   36  H   UNL     1     -45.326  59.822 -50.101  1.00  0.00     0.169 HD
HETATM   37  O   UNL     1     -42.650  61.553 -50.056  1.00  0.00    -0.268 OA
BRANCH  35  38
HETATM   38  C   UNL     1     -45.157  61.164 -48.565  1.00  0.00     0.035 A 
HETATM   39  C   UNL     1     -44.650  60.991 -47.276  1.00  0.00     0.029 A 
HETATM   40  C   UNL     1     -45.178  61.716 -46.201  1.00  0.00     0.002 A 
HETATM   41  C   UNL     1     -46.215  62.622 -46.405  1.00  0.00     0.000 A 
HETATM   42  C   UNL     1     -46.729  62.801 -47.686  1.00  0.00     0.002 A 
HETATM   43  C   UNL     1     -46.206  62.074 -48.758  1.00  0.00     0.029 A 
ENDBRANCH  35  38
ENDBRANCH   9  34
TORSDOF 9
ENDMDL
MODEL 9
REMARK VINA RESULT:      -8.0      5.908      9.174
REMARK  9 active torsions:
REMARK  status: ('A' for Active; 'I' for Inactive)
REMARK    1  A    between atoms: C_4  and  S_5 
REMARK    2  A    between atoms: S_5  and  C_6 
REMARK    3  A    between atoms: C_6  and  C_7 
REMARK       I    between atoms: C_7  and  N_8 
REMARK    4  A    between atoms: N_8  and  C_9 
REMARK    5  A    between atoms: C_10  and  O_11 
REMARK    6  A    between atoms: C_16  and  O_17 
REMARK    7  A    between atoms: C_24  and  C_25 
REMARK    8  A    between atoms: C_31  and  C_32 
REMARK       I    between atoms: C_32  and  N_33 
REMARK    9  A    between atoms: N_33  and  C_34 
ROOT
HETATM    1  C   UNL     1     -41.069  54.224 -55.279  1.00  0.00     0.069 C 
HETATM    2  C   UNL     1     -41.839  55.524 -55.300  1.00  0.00     0.019 A 
HETATM    3  N   UNL     1     -41.720  56.257 -56.467  1.00  0.00    -0.353 N 
HETATM    4  C   UNL     1     -42.356  57.454 -56.731  1.00  0.00     0.087 A 
HETATM    5  C   UNL     1     -43.220  57.957 -55.819  1.00  0.00     0.055 A 
HETATM    6  C   UNL     1     -44.014  59.223 -56.091  1.00  0.00     0.019 C 
HETATM    7  N   UNL     1     -44.674  60.275 -56.316  1.00  0.00    -0.096 N 
HETATM    8  C   UNL     1     -43.411  57.286 -54.455  1.00  0.00     0.104 A 
HETATM    9  C   UNL     1     -42.613  55.984 -54.283  1.00  0.00     0.046 A 
HETATM   10  H   UNL     1     -41.309  55.797 -57.274  1.00  0.00     0.166 HD
ENDROOT
BRANCH   4  11
HETATM   11  S   UNL     1     -42.061  58.300 -58.236  1.00  0.00    -0.102 SA
BRANCH  11  12
HETATM   12  C   UNL     1     -42.416  57.006 -59.455  1.00  0.00     0.184 C 
BRANCH  12  13
HETATM   13  C   UNL     1     -43.780  57.156 -60.127  1.00  0.00     0.231 C 
HETATM   14  N   UNL     1     -44.383  58.375 -59.838  1.00  0.00    -0.324 N 
HETATM   15  H   UNL     1     -43.817  59.038 -59.323  1.00  0.00     0.169 HD
HETATM   16  O   UNL     1     -44.181  56.304 -60.915  1.00  0.00    -0.272 OA
BRANCH  14  17
HETATM   17  C   UNL     1     -45.578  58.911 -60.381  1.00  0.00     0.071 A 
HETATM   18  C   UNL     1     -46.886  58.471 -60.098  1.00  0.00     0.096 A 
HETATM   19  C   UNL     1     -47.975  59.086 -60.735  1.00  0.00     0.065 A 
HETATM   20  C   UNL     1     -47.776  60.130 -61.640  1.00  0.00     0.070 A 
HETATM   21 CL   UNL     1     -49.156  60.847 -62.393  1.00  0.00    -0.081 Cl
HETATM   22  C   UNL     1     -46.487  60.579 -61.914  1.00  0.00     0.092 A 
HETATM   23  C   UNL     1     -45.400  59.995 -61.259  1.00  0.00     0.071 A 
BRANCH  18  24
HETATM   24  O   UNL     1     -47.054  57.569 -59.085  1.00  0.00    -0.354 OA
HETATM   25  C   UNL     1     -47.242  58.093 -57.776  1.00  0.00     0.210 C 
ENDBRANCH  18  24
BRANCH  22  26
HETATM   26  O   UNL     1     -46.303  61.640 -62.763  1.00  0.00    -0.354 OA
HETATM   27  C   UNL     1     -46.011  62.847 -62.060  1.00  0.00     0.210 C 
ENDBRANCH  22  26
ENDBRANCH  14  17
ENDBRANCH  12  13
ENDBRANCH  11  12
ENDBRANCH   4  11
BRANCH   8  28
HETATM   28  C   UNL     1     -43.170  58.286 -53.320  1.00  0.00    -0.044 A 
HETATM   29  C   UNL     1     -44.209  58.600 -52.427  1.00  0.00     0.008 A 
HETATM   30  C   UNL     1     -44.008  59.518 -51.394  1.00  0.00     0.001 A 
HETATM   31  C   UNL     1     -42.769  60.132 -51.238  1.00  0.00     0.000 A 
HETATM   32  C   UNL     1     -41.732  59.837 -52.117  1.00  0.00     0.001 A 
HETATM   33  C   UNL     1     -41.933  58.930 -53.160  1.00  0.00     0.008 A 
ENDBRANCH   8  28
BRANCH   9  34
HETATM   34  C   UNL     1     -42.599  55.275 -52.951  1.00  0.00     0.255 C 
HETATM   35  N   UNL     1     -41.469  55.476 -52.185  1.00  0.00    -0.323 N 
HETATM   36  H   UNL     1     -40.735  56.058 -52.559  1.00  0.00     0.169 HD
HETATM   37  O   UNL     1     -43.537  54.542 -52.647  1.00  0.00    -0.268 OA
BRANCH  35  38
HETATM   38  C   UNL     1     -41.146  54.850 -50.959  1.00  0.00     0.035 A 
HETATM   39  C   UNL     1     -41.279  55.454 -49.707  1.00  0.00     0.029 A 
HETATM   40  C   UNL     1     -40.949  54.755 -48.541  1.00  0.00     0.002 A 
HETATM   41  C   UNL     1     -40.486  53.444 -48.615  1.00  0.00     0.000 A 
HETATM   42  C   UNL     1     -40.348  52.832 -49.857  1.00  0.00     0.002 A 
HETATM   43  C   UNL     1     -40.672  53.532 -51.022  1.00  0.00     0.029 A 
ENDBRANCH  35  38
ENDBRANCH   9  34
TORSDOF 9
ENDMDL
MODEL 10
REMARK VINA RESULT:      -8.0      6.057      9.442
REMARK  9 active torsions:
REMARK  status: ('A' for Active; 'I' for Inactive)
REMARK    1  A    between atoms: C_4  and  S_5 
REMARK    2  A    between atoms: S_5  and  C_6 
REMARK    3  A    between atoms: C_6  and  C_7 
REMARK       I    between atoms: C_7  and  N_8 
REMARK    4  A    between atoms: N_8  and  C_9 
REMARK    5  A    between atoms: C_10  and  O_11 
REMARK    6  A    between atoms: C_16  and  O_17 
REMARK    7  A    between atoms: C_24  and  C_25 
REMARK    8  A    between atoms: C_31  and  C_32 
REMARK       I    between atoms: C_32  and  N_33 
REMARK    9  A    between atoms: N_33  and  C_34 
ROOT
HETATM    1  C   UNL     1     -40.908  53.816 -55.088  1.00  0.00     0.069 C 
HETATM    2  C   UNL     1     -41.910  54.937 -55.240  1.00  0.00     0.019 A 
HETATM    3  N   UNL     1     -41.925  55.545 -56.482  1.00  0.00    -0.353 N 
HETATM    4  C   UNL     1     -42.774  56.564 -56.867  1.00  0.00     0.087 A 
HETATM    5  C   UNL     1     -43.722  56.995 -56.002  1.00  0.00     0.055 A 
HETATM    6  C   UNL     1     -44.739  58.051 -56.399  1.00  0.00     0.019 C 
HETATM    7  N   UNL     1     -45.584  58.927 -56.729  1.00  0.00    -0.096 N 
HETATM    8  C   UNL     1     -43.790  56.456 -54.569  1.00  0.00     0.104 A 
HETATM    9  C   UNL     1     -42.762  55.354 -54.268  1.00  0.00     0.046 A 
HETATM   10  H   UNL     1     -41.430  55.084 -57.240  1.00  0.00     0.166 HD
ENDROOT
BRANCH   4  11
HETATM   11  S   UNL     1     -42.636  57.277 -58.460  1.00  0.00    -0.102 SA
BRANCH  11  12
HETATM   12  C   UNL     1     -43.116  55.888 -59.522  1.00  0.00     0.184 C 
BRANCH  12  13
HETATM   13  C   UNL     1     -44.375  56.155 -60.345  1.00  0.00     0.231 C 
HETATM   14  N   UNL     1     -45.080  57.266 -59.894  1.00  0.00    -0.324 N 
HETATM   15  H   UNL     1     -44.632  57.809 -59.167  1.00  0.00     0.169 HD
HETATM   16  O   UNL     1     -44.610  55.493 -61.352  1.00  0.00    -0.272 OA
BRANCH  14  17
HETATM   17  C   UNL     1     -46.212  57.883 -60.483  1.00  0.00     0.071 A 
HETATM   18  C   UNL     1     -46.561  59.244 -60.381  1.00  0.00     0.096 A 
HETATM   19  C   UNL     1     -47.732  59.706 -61.002  1.00  0.00     0.065 A 
HETATM   20  C   UNL     1     -48.549  58.834 -61.722  1.00  0.00     0.070 A 
HETATM   21 CL   UNL     1     -49.979  59.462 -62.463  1.00  0.00    -0.081 Cl
HETATM   22  C   UNL     1     -48.204  57.490 -61.838  1.00  0.00     0.092 A 
HETATM   23  C   UNL     1     -47.023  57.029 -61.252  1.00  0.00     0.071 A 
BRANCH  18  24
HETATM   24  O   UNL     1     -45.653  60.097 -59.818  1.00  0.00    -0.354 OA
HETATM   25  C   UNL     1     -45.398  61.316 -60.505  1.00  0.00     0.210 C 
ENDBRANCH  18  24
BRANCH  22  26
HETATM   26  O   UNL     1     -48.984  56.651 -62.591  1.00  0.00    -0.354 OA
HETATM   27  C   UNL     1     -48.587  56.633 -63.961  1.00  0.00     0.210 C 
ENDBRANCH  22  26
ENDBRANCH  14  17
ENDBRANCH  12  13
ENDBRANCH  11  12
ENDBRANCH   4  11
BRANCH   8  28
HETATM   28  C   UNL     1     -43.747  57.603 -53.556  1.00  0.00    -0.044 A 
HETATM   29  C   UNL     1     -44.826  57.805 -52.677  1.00  0.00     0.008 A 
HETATM   30  C   UNL     1     -44.807  58.854 -51.755  1.00  0.00     0.001 A 
HETATM   31  C   UNL     1     -43.713  59.711 -51.696  1.00  0.00     0.000 A 
HETATM   32  C   UNL     1     -42.641  59.529 -52.564  1.00  0.00     0.001 A 
HETATM   33  C   UNL     1     -42.661  58.490 -53.496  1.00  0.00     0.008 A 
ENDBRANCH   8  28
BRANCH   9  34
HETATM   34  C   UNL     1     -42.622  54.813 -52.865  1.00  0.00     0.255 C 
HETATM   35  N   UNL     1     -41.553  55.307 -52.145  1.00  0.00    -0.323 N 
HETATM   36  H   UNL     1     -40.941  55.971 -52.592  1.00  0.00     0.169 HD
HETATM   37  O   UNL     1     -43.406  53.956 -52.468  1.00  0.00    -0.268 OA
BRANCH  35  38
HETATM   38  C   UNL     1     -41.125  54.893 -50.863  1.00  0.00     0.035 A 
HETATM   39  C   UNL     1     -41.435  55.560 -49.676  1.00  0.00     0.029 A 
HETATM   40  C   UNL     1     -40.980  55.071 -48.446  1.00  0.00     0.002 A 
HETATM   41  C   UNL     1     -40.213  53.910 -48.390  1.00  0.00     0.000 A 
HETATM   42  C   UNL     1     -39.896  53.239 -49.567  1.00  0.00     0.002 A 
HETATM   43  C   UNL     1     -40.346  53.729 -50.796  1.00  0.00     0.029 A 
ENDBRANCH  35  38
ENDBRANCH   9  34
TORSDOF 9
ENDMDL
