MODEL 1
REMARK VINA RESULT:      -8.1      0.000      0.000
REMARK  7 active torsions:
REMARK  status: ('A' for Active; 'I' for Inactive)
REMARK    1  A    between atoms: C_2  and  O_3 
REMARK    2  A    between atoms: O_3  and  C_4 
REMARK    3  A    between atoms: C_7  and  N_8 
REMARK       I    between atoms: N_8  and  C_9 
REMARK    4  A    between atoms: C_9  and  C_10 
REMARK    5  A    between atoms: C_10  and  S_11 
REMARK    6  A    between atoms: S_11  and  C_12 
REMARK    7  A    between atoms: N_13  and  C_14 
ROOT
HETATM    1  C   UNL     1     -42.582  58.344 -54.901  1.00  0.00     0.177 A 
HETATM    2  N   UNL     1     -42.351  57.294 -55.818  1.00  0.00    -0.276 N 
HETATM    3  C   UNL     1     -42.475  57.592 -57.224  1.00  0.00     0.124 A 
HETATM    4  N   UNL     1     -42.239  56.708 -58.176  1.00  0.00    -0.384 N 
HETATM    5  H   UNL     1     -42.312  56.961 -59.150  1.00  0.00     0.157 HD
HETATM    6  H   UNL     1     -41.953  55.767 -57.939  1.00  0.00     0.157 HD
HETATM    7  C   UNL     1     -42.833  58.934 -57.557  1.00  0.00     0.081 A 
HETATM    8  C   UNL     1     -42.970  59.861 -56.529  1.00  0.00     0.187 A 
HETATM    9  N   UNL     1     -43.298  61.066 -56.972  1.00  0.00    -0.153 NA
HETATM   10  N   UNL     1     -43.374  60.900 -58.305  1.00  0.00    -0.280 N 
HETATM   11  H   UNL     1     -43.622  61.707 -58.871  1.00  0.00     0.189 HD
HETATM   12  C   UNL     1     -43.110  59.611 -58.722  1.00  0.00     0.042 A 
HETATM   13  C   UNL     1     -43.178  59.229 -60.149  1.00  0.00     0.071 C 
HETATM   14  N   UNL     1     -42.843  59.589 -55.175  1.00  0.00    -0.202 NA
ENDROOT
BRANCH   1  15
HETATM   15  S   UNL     1     -42.556  57.979 -53.156  1.00  0.00    -0.082 SA
BRANCH  15  16
HETATM   16  C   UNL     1     -44.284  57.466 -52.905  1.00  0.00     0.185 C 
BRANCH  16  17
HETATM   17  C   UNL     1     -44.590  57.402 -51.426  1.00  0.00     0.231 C 
HETATM   18  N   UNL     1     -43.861  56.659 -50.548  1.00  0.00    -0.327 N 
HETATM   19  H   UNL     1     -44.113  56.902 -49.595  1.00  0.00     0.169 HD
HETATM   20  O   UNL     1     -45.497  58.102 -50.955  1.00  0.00    -0.272 OA
BRANCH  18  21
HETATM   21  C   UNL     1     -42.905  55.639 -50.680  1.00  0.00     0.034 A 
HETATM   22  C   UNL     1     -43.127  54.396 -51.264  1.00  0.00     0.032 A 
HETATM   23  C   UNL     1     -42.109  53.433 -51.290  1.00  0.00     0.039 A 
HETATM   24  C   UNL     1     -40.858  53.690 -50.730  1.00  0.00     0.068 A 
HETATM   25  C   UNL     1     -40.628  54.929 -50.142  1.00  0.00     0.039 A 
HETATM   26  C   UNL     1     -41.648  55.889 -50.110  1.00  0.00     0.032 A 
BRANCH  24  27
HETATM   27  O   UNL     1     -39.969  52.656 -50.812  1.00  0.00    -0.352 OA
BRANCH  27  28
HETATM   28  C   UNL     1     -40.329  51.436 -50.165  1.00  0.00     0.171 C 
HETATM   29  C   UNL     1     -39.624  50.299 -50.883  1.00  0.00     0.034 C 
ENDBRANCH  27  28
ENDBRANCH  24  27
ENDBRANCH  18  21
ENDBRANCH  16  17
ENDBRANCH  15  16
ENDBRANCH   1  15
BRANCH   2  30
HETATM   30  C   UNL     1     -41.936  55.999 -55.389  1.00  0.00     0.043 A 
HETATM   31  C   UNL     1     -42.847  54.931 -55.388  1.00  0.00     0.031 A 
HETATM   32  C   UNL     1     -42.431  53.647 -55.025  1.00  0.00     0.021 A 
HETATM   33  C   UNL     1     -41.103  53.426 -54.666  1.00  0.00     0.011 A 
HETATM   34 BR   UNL     1     -40.540  51.689 -54.181  1.00  0.00    -0.051 Br
HETATM   35  C   UNL     1     -40.186  54.475 -54.665  1.00  0.00     0.021 A 
HETATM   36  C   UNL     1     -40.601  55.758 -55.030  1.00  0.00     0.031 A 
ENDBRANCH   2  30
TORSDOF 7
ENDMDL
MODEL 2
REMARK VINA RESULT:      -7.7      3.218      5.303
REMARK  7 active torsions:
REMARK  status: ('A' for Active; 'I' for Inactive)
REMARK    1  A    between atoms: C_2  and  O_3 
REMARK    2  A    between atoms: O_3  and  C_4 
REMARK    3  A    between atoms: C_7  and  N_8 
REMARK       I    between atoms: N_8  and  C_9 
REMARK    4  A    between atoms: C_9  and  C_10 
REMARK    5  A    between atoms: C_10  and  S_11 
REMARK    6  A    between atoms: S_11  and  C_12 
REMARK    7  A    between atoms: N_13  and  C_14 
ROOT
HETATM    1  C   UNL     1     -42.274  59.864 -53.246  1.00  0.00     0.177 A 
HETATM    2  N   UNL     1     -42.455  59.589 -51.871  1.00  0.00    -0.276 N 
HETATM    3  C   UNL     1     -42.950  60.654 -51.033  1.00  0.00     0.124 A 
HETATM    4  N   UNL     1     -43.202  60.505 -49.746  1.00  0.00    -0.384 N 
HETATM    5  H   UNL     1     -43.572  61.267 -49.197  1.00  0.00     0.157 HD
HETATM    6  H   UNL     1     -43.054  59.611 -49.296  1.00  0.00     0.157 HD
HETATM    7  C   UNL     1     -43.205  61.901 -51.680  1.00  0.00     0.081 A 
HETATM    8  C   UNL     1     -43.026  61.986 -53.057  1.00  0.00     0.187 A 
HETATM    9  N   UNL     1     -43.299  63.192 -53.531  1.00  0.00    -0.153 NA
HETATM   10  N   UNL     1     -43.656  63.887 -52.435  1.00  0.00    -0.280 N 
HETATM   11  H   UNL     1     -43.911  64.863 -52.554  1.00  0.00     0.189 HD
HETATM   12  C   UNL     1     -43.606  63.151 -51.268  1.00  0.00     0.042 A 
HETATM   13  C   UNL     1     -43.931  63.754 -49.958  1.00  0.00     0.071 C 
HETATM   14  N   UNL     1     -42.559  60.967 -53.874  1.00  0.00    -0.202 NA
ENDROOT
BRANCH   1  15
HETATM   15  S   UNL     1     -41.550  58.608 -54.283  1.00  0.00    -0.082 SA
BRANCH  15  16
HETATM   16  C   UNL     1     -43.053  57.857 -54.983  1.00  0.00     0.185 C 
BRANCH  16  17
HETATM   17  C   UNL     1     -42.728  57.194 -56.301  1.00  0.00     0.231 C 
HETATM   18  N   UNL     1     -42.253  55.920 -56.396  1.00  0.00    -0.327 N 
HETATM   19  H   UNL     1     -42.282  55.610 -57.362  1.00  0.00     0.169 HD
HETATM   20  O   UNL     1     -42.960  57.788 -57.363  1.00  0.00    -0.272 OA
BRANCH  18  21
HETATM   21  C   UNL     1     -41.715  55.001 -55.481  1.00  0.00     0.034 A 
HETATM   22  C   UNL     1     -40.409  54.523 -55.491  1.00  0.00     0.032 A 
HETATM   23  C   UNL     1     -39.998  53.562 -54.558  1.00  0.00     0.039 A 
HETATM   24  C   UNL     1     -40.882  53.057 -53.604  1.00  0.00     0.068 A 
HETATM   25  C   UNL     1     -42.191  53.528 -53.589  1.00  0.00     0.039 A 
HETATM   26  C   UNL     1     -42.603  54.483 -54.527  1.00  0.00     0.032 A 
BRANCH  24  27
HETATM   27  O   UNL     1     -40.351  52.115 -52.770  1.00  0.00    -0.352 OA
BRANCH  27  28
HETATM   28  C   UNL     1     -39.428  51.188 -53.340  1.00  0.00     0.171 C 
HETATM   29  C   UNL     1     -40.220  50.171 -54.142  1.00  0.00     0.034 C 
ENDBRANCH  27  28
ENDBRANCH  24  27
ENDBRANCH  18  21
ENDBRANCH  16  17
ENDBRANCH  15  16
ENDBRANCH   1  15
BRANCH   2  30
HETATM   30  C   UNL     1     -42.232  58.289 -51.329  1.00  0.00     0.043 A 
HETATM   31  C   UNL     1     -43.252  57.325 -51.364  1.00  0.00     0.031 A 
HETATM   32  C   UNL     1     -43.020  56.032 -50.888  1.00  0.00     0.021 A 
HETATM   33  C   UNL     1     -41.766  55.697 -50.380  1.00  0.00     0.011 A 
HETATM   34 BR   UNL     1     -41.451  53.947 -49.741  1.00  0.00    -0.051 Br
HETATM   35  C   UNL     1     -40.742  56.641 -50.342  1.00  0.00     0.021 A 
HETATM   36  C   UNL     1     -40.973  57.933 -50.820  1.00  0.00     0.031 A 
ENDBRANCH   2  30
TORSDOF 7
ENDMDL
MODEL 3
REMARK VINA RESULT:      -7.6      2.265      2.796
REMARK  7 active torsions:
REMARK  status: ('A' for Active; 'I' for Inactive)
REMARK    1  A    between atoms: C_2  and  O_3 
REMARK    2  A    between atoms: O_3  and  C_4 
REMARK    3  A    between atoms: C_7  and  N_8 
REMARK       I    between atoms: N_8  and  C_9 
REMARK    4  A    between atoms: C_9  and  C_10 
REMARK    5  A    between atoms: C_10  and  S_11 
REMARK    6  A    between atoms: S_11  and  C_12 
REMARK    7  A    between atoms: N_13  and  C_14 
ROOT
HETATM    1  C   UNL     1     -43.526  57.958 -56.655  1.00  0.00     0.177 A 
HETATM    2  N   UNL     1     -43.361  56.558 -56.754  1.00  0.00    -0.276 N 
HETATM    3  C   UNL     1     -43.758  55.921 -57.987  1.00  0.00     0.124 A 
HETATM    4  N   UNL     1     -43.609  54.629 -58.215  1.00  0.00    -0.384 N 
HETATM    5  H   UNL     1     -43.876  54.224 -59.100  1.00  0.00     0.157 HD
HETATM    6  H   UNL     1     -43.197  54.030 -57.511  1.00  0.00     0.157 HD
HETATM    7  C   UNL     1     -44.295  56.776 -58.996  1.00  0.00     0.081 A 
HETATM    8  C   UNL     1     -44.337  58.145 -58.756  1.00  0.00     0.187 A 
HETATM    9  N   UNL     1     -44.851  58.824 -59.770  1.00  0.00    -0.153 NA
HETATM   10  N   UNL     1     -45.144  57.868 -60.671  1.00  0.00    -0.280 N 
HETATM   11  H   UNL     1     -45.563  58.156 -61.550  1.00  0.00     0.189 HD
HETATM   12  C   UNL     1     -44.836  56.590 -60.247  1.00  0.00     0.042 A 
HETATM   13  C   UNL     1     -45.116  55.407 -61.088  1.00  0.00     0.071 C 
HETATM   14  N   UNL     1     -43.950  58.770 -57.579  1.00  0.00    -0.202 NA
ENDROOT
BRANCH   1  15
HETATM   15  S   UNL     1     -43.160  58.756 -55.103  1.00  0.00    -0.082 SA
BRANCH  15  16
HETATM   16  C   UNL     1     -44.760  58.570 -54.256  1.00  0.00     0.185 C 
BRANCH  16  17
HETATM   17  C   UNL     1     -44.824  59.506 -53.071  1.00  0.00     0.231 C 
HETATM   18  N   UNL     1     -44.026  59.373 -51.975  1.00  0.00    -0.327 N 
HETATM   19  H   UNL     1     -44.097  60.201 -51.391  1.00  0.00     0.169 HD
HETATM   20  O   UNL     1     -45.578  60.488 -53.103  1.00  0.00    -0.272 OA
BRANCH  18  21
HETATM   21  C   UNL     1     -43.195  58.354 -51.481  1.00  0.00     0.034 A 
HETATM   22  C   UNL     1     -43.595  57.051 -51.203  1.00  0.00     0.032 A 
HETATM   23  C   UNL     1     -42.687  56.132 -50.660  1.00  0.00     0.039 A 
HETATM   24  C   UNL     1     -41.370  56.497 -50.380  1.00  0.00     0.068 A 
HETATM   25  C   UNL     1     -40.963  57.798 -50.654  1.00  0.00     0.039 A 
HETATM   26  C   UNL     1     -41.873  58.719 -51.190  1.00  0.00     0.032 A 
BRANCH  24  27
HETATM   27  O   UNL     1     -40.602  55.506 -49.838  1.00  0.00    -0.352 OA
BRANCH  27  28
HETATM   28  C   UNL     1     -41.267  54.539 -49.026  1.00  0.00     0.171 C 
HETATM   29  C   UNL     1     -40.234  53.908 -48.109  1.00  0.00     0.034 C 
ENDBRANCH  27  28
ENDBRANCH  24  27
ENDBRANCH  18  21
ENDBRANCH  16  17
ENDBRANCH  15  16
ENDBRANCH   1  15
BRANCH   2  30
HETATM   30  C   UNL     1     -42.755  55.797 -55.712  1.00  0.00     0.043 A 
HETATM   31  C   UNL     1     -43.554  55.093 -54.796  1.00  0.00     0.031 A 
HETATM   32  C   UNL     1     -42.967  54.299 -53.809  1.00  0.00     0.021 A 
HETATM   33  C   UNL     1     -41.579  54.202 -53.735  1.00  0.00     0.011 A 
HETATM   34 BR   UNL     1     -40.784  53.123 -52.402  1.00  0.00    -0.051 Br
HETATM   35  C   UNL     1     -40.772  54.891 -54.638  1.00  0.00     0.021 A 
HETATM   36  C   UNL     1     -41.359  55.684 -55.627  1.00  0.00     0.031 A 
ENDBRANCH   2  30
TORSDOF 7
ENDMDL
MODEL 4
REMARK VINA RESULT:      -7.3     15.953     18.488
REMARK  7 active torsions:
REMARK  status: ('A' for Active; 'I' for Inactive)
REMARK    1  A    between atoms: C_2  and  O_3 
REMARK    2  A    between atoms: O_3  and  C_4 
REMARK    3  A    between atoms: C_7  and  N_8 
REMARK       I    between atoms: N_8  and  C_9 
REMARK    4  A    between atoms: C_9  and  C_10 
REMARK    5  A    between atoms: C_10  and  S_11 
REMARK    6  A    between atoms: S_11  and  C_12 
REMARK    7  A    between atoms: N_13  and  C_14 
ROOT
HETATM    1  C   UNL     1     -35.334  40.751 -57.511  1.00  0.00     0.177 A 
HETATM    2  N   UNL     1     -35.385  39.464 -58.093  1.00  0.00    -0.276 N 
HETATM    3  C   UNL     1     -34.301  38.555 -57.809  1.00  0.00     0.124 A 
HETATM    4  N   UNL     1     -34.259  37.314 -58.256  1.00  0.00    -0.384 N 
HETATM    5  H   UNL     1     -33.496  36.700 -58.014  1.00  0.00     0.157 HD
HETATM    6  H   UNL     1     -35.012  36.951 -58.826  1.00  0.00     0.157 HD
HETATM    7  C   UNL     1     -33.263  39.054 -56.964  1.00  0.00     0.081 A 
HETATM    8  C   UNL     1     -33.396  40.331 -56.429  1.00  0.00     0.187 A 
HETATM    9  N   UNL     1     -32.371  40.670 -55.661  1.00  0.00    -0.153 NA
HETATM   10  N   UNL     1     -31.570  39.589 -55.712  1.00  0.00    -0.280 N 
HETATM   11  H   UNL     1     -30.699  39.618 -55.190  1.00  0.00     0.189 HD
HETATM   12  C   UNL     1     -32.059  38.570 -56.505  1.00  0.00     0.042 A 
HETATM   13  C   UNL     1     -31.304  37.317 -56.710  1.00  0.00     0.071 C 
HETATM   14  N   UNL     1     -34.438  41.209 -56.687  1.00  0.00    -0.202 NA
ENDROOT
BRANCH   1  15
HETATM   15  S   UNL     1     -36.595  41.936 -57.941  1.00  0.00    -0.082 SA
BRANCH  15  16
HETATM   16  C   UNL     1     -37.144  42.444 -56.282  1.00  0.00     0.185 C 
BRANCH  16  17
HETATM   17  C   UNL     1     -37.912  41.318 -55.630  1.00  0.00     0.231 C 
HETATM   18  N   UNL     1     -37.593  40.811 -54.406  1.00  0.00    -0.327 N 
HETATM   19  H   UNL     1     -38.337  40.203 -54.077  1.00  0.00     0.169 HD
HETATM   20  O   UNL     1     -38.924  40.863 -56.181  1.00  0.00    -0.272 OA
BRANCH  18  21
HETATM   21  C   UNL     1     -36.479  40.917 -53.558  1.00  0.00     0.034 A 
HETATM   22  C   UNL     1     -36.166  42.020 -52.771  1.00  0.00     0.032 A 
HETATM   23  C   UNL     1     -34.993  42.034 -52.004  1.00  0.00     0.039 A 
HETATM   24  C   UNL     1     -34.112  40.953 -52.012  1.00  0.00     0.068 A 
HETATM   25  C   UNL     1     -34.417  39.847 -52.798  1.00  0.00     0.039 A 
HETATM   26  C   UNL     1     -35.585  39.836 -53.571  1.00  0.00     0.032 A 
BRANCH  24  27
HETATM   27  O   UNL     1     -33.003  41.109 -51.231  1.00  0.00    -0.352 OA
BRANCH  27  28
HETATM   28  C   UNL     1     -32.168  39.966 -51.050  1.00  0.00     0.171 C 
HETATM   29  C   UNL     1     -32.015  39.729 -49.558  1.00  0.00     0.034 C 
ENDBRANCH  27  28
ENDBRANCH  24  27
ENDBRANCH  18  21
ENDBRANCH  16  17
ENDBRANCH  15  16
ENDBRANCH   1  15
BRANCH   2  30
HETATM   30  C   UNL     1     -36.498  39.036 -58.875  1.00  0.00     0.043 A 
HETATM   31  C   UNL     1     -37.588  38.399 -58.261  1.00  0.00     0.031 A 
HETATM   32  C   UNL     1     -38.707  38.031 -59.012  1.00  0.00     0.021 A 
HETATM   33  C   UNL     1     -38.742  38.302 -60.379  1.00  0.00     0.011 A 
HETATM   34 BR   UNL     1     -40.257  37.809 -61.394  1.00  0.00    -0.051 Br
HETATM   35  C   UNL     1     -37.669  38.936 -61.002  1.00  0.00     0.021 A 
HETATM   36  C   UNL     1     -36.552  39.307 -60.251  1.00  0.00     0.031 A 
ENDBRANCH   2  30
TORSDOF 7
ENDMDL
MODEL 5
REMARK VINA RESULT:      -7.3      3.151      4.935
REMARK  7 active torsions:
REMARK  status: ('A' for Active; 'I' for Inactive)
REMARK    1  A    between atoms: C_2  and  O_3 
REMARK    2  A    between atoms: O_3  and  C_4 
REMARK    3  A    between atoms: C_7  and  N_8 
REMARK       I    between atoms: N_8  and  C_9 
REMARK    4  A    between atoms: C_9  and  C_10 
REMARK    5  A    between atoms: C_10  and  S_11 
REMARK    6  A    between atoms: S_11  and  C_12 
REMARK    7  A    between atoms: N_13  and  C_14 
ROOT
HETATM    1  C   UNL     1     -43.364  59.465 -51.965  1.00  0.00     0.177 A 
HETATM    2  N   UNL     1     -44.166  59.584 -53.122  1.00  0.00    -0.276 N 
HETATM    3  C   UNL     1     -45.301  60.472 -53.064  1.00  0.00     0.124 A 
HETATM    4  N   UNL     1     -46.096  60.700 -54.093  1.00  0.00    -0.384 N 
HETATM    5  H   UNL     1     -46.866  61.348 -54.021  1.00  0.00     0.157 HD
HETATM    6  H   UNL     1     -45.924  60.247 -54.981  1.00  0.00     0.157 HD
HETATM    7  C   UNL     1     -45.514  61.146 -51.824  1.00  0.00     0.081 A 
HETATM    8  C   UNL     1     -44.593  60.958 -50.797  1.00  0.00     0.187 A 
HETATM    9  N   UNL     1     -44.903  61.642 -49.706  1.00  0.00    -0.153 NA
HETATM   10  N   UNL     1     -46.042  62.274 -50.044  1.00  0.00    -0.280 N 
HETATM   11  H   UNL     1     -46.479  62.869 -49.346  1.00  0.00     0.189 HD
HETATM   12  C   UNL     1     -46.472  61.999 -51.327  1.00  0.00     0.042 A 
HETATM   13  C   UNL     1     -47.722  62.576 -51.865  1.00  0.00     0.071 C 
HETATM   14  N   UNL     1     -43.493  60.115 -50.845  1.00  0.00    -0.202 NA
ENDROOT
BRANCH   1  15
HETATM   15  S   UNL     1     -42.027  58.285 -51.966  1.00  0.00    -0.082 SA
BRANCH  15  16
HETATM   16  C   UNL     1     -42.582  57.162 -50.645  1.00  0.00     0.185 C 
BRANCH  16  17
HETATM   17  C   UNL     1     -43.853  56.462 -51.068  1.00  0.00     0.231 C 
HETATM   18  N   UNL     1     -43.861  55.292 -51.764  1.00  0.00    -0.327 N 
HETATM   19  H   UNL     1     -44.798  54.903 -51.780  1.00  0.00     0.169 HD
HETATM   20  O   UNL     1     -44.951  56.916 -50.717  1.00  0.00    -0.272 OA
BRANCH  18  21
HETATM   21  C   UNL     1     -42.891  54.563 -52.473  1.00  0.00     0.034 A 
HETATM   22  C   UNL     1     -42.855  54.400 -53.853  1.00  0.00     0.032 A 
HETATM   23  C   UNL     1     -41.867  53.602 -54.447  1.00  0.00     0.039 A 
HETATM   24  C   UNL     1     -40.906  52.950 -53.675  1.00  0.00     0.068 A 
HETATM   25  C   UNL     1     -40.937  53.106 -52.294  1.00  0.00     0.039 A 
HETATM   26  C   UNL     1     -41.928  53.898 -51.700  1.00  0.00     0.032 A 
BRANCH  24  27
HETATM   27  O   UNL     1     -40.016  52.193 -54.384  1.00  0.00    -0.352 OA
BRANCH  27  28
HETATM   28  C   UNL     1     -39.448  51.065 -53.720  1.00  0.00     0.171 C 
HETATM   29  C   UNL     1     -39.814  49.822 -54.510  1.00  0.00     0.034 C 
ENDBRANCH  27  28
ENDBRANCH  24  27
ENDBRANCH  18  21
ENDBRANCH  16  17
ENDBRANCH  15  16
ENDBRANCH   1  15
BRANCH   2  30
HETATM   30  C   UNL     1     -43.835  58.914 -54.337  1.00  0.00     0.043 A 
HETATM   31  C   UNL     1     -44.464  57.703 -54.669  1.00  0.00     0.031 A 
HETATM   32  C   UNL     1     -44.188  57.073 -55.885  1.00  0.00     0.021 A 
HETATM   33  C   UNL     1     -43.286  57.652 -56.775  1.00  0.00     0.011 A 
HETATM   34 BR   UNL     1     -42.917  56.802 -58.422  1.00  0.00    -0.051 Br
HETATM   35  C   UNL     1     -42.656  58.855 -56.462  1.00  0.00     0.021 A 
HETATM   36  C   UNL     1     -42.933  59.487 -55.247  1.00  0.00     0.031 A 
ENDBRANCH   2  30
TORSDOF 7
ENDMDL
MODEL 6
REMARK VINA RESULT:      -7.2     15.850     19.480
REMARK  7 active torsions:
REMARK  status: ('A' for Active; 'I' for Inactive)
REMARK    1  A    between atoms: C_2  and  O_3 
REMARK    2  A    between atoms: O_3  and  C_4 
REMARK    3  A    between atoms: C_7  and  N_8 
REMARK       I    between atoms: N_8  and  C_9 
REMARK    4  A    between atoms: C_9  and  C_10 
REMARK    5  A    between atoms: C_10  and  S_11 
REMARK    6  A    between atoms: S_11  and  C_12 
REMARK    7  A    between atoms: N_13  and  C_14 
ROOT
HETATM    1  C   UNL     1     -35.681  39.015 -51.129  1.00  0.00     0.177 A 
HETATM    2  N   UNL     1     -34.287  38.794 -51.061  1.00  0.00    -0.276 N 
HETATM    3  C   UNL     1     -33.728  38.423 -49.784  1.00  0.00     0.124 A 
HETATM    4  N   UNL     1     -32.449  38.147 -49.604  1.00  0.00    -0.384 N 
HETATM    5  H   UNL     1     -32.100  37.867 -48.701  1.00  0.00     0.157 HD
HETATM    6  H   UNL     1     -31.805  38.185 -50.384  1.00  0.00     0.157 HD
HETATM    7  C   UNL     1     -34.648  38.323 -48.696  1.00  0.00     0.081 A 
HETATM    8  C   UNL     1     -36.001  38.520 -48.948  1.00  0.00     0.187 A 
HETATM    9  N   UNL     1     -36.745  38.395 -47.859  1.00  0.00    -0.153 NA
HETATM   10  N   UNL     1     -35.847  38.116 -46.896  1.00  0.00    -0.280 N 
HETATM   11  H   UNL     1     -36.191  37.980 -45.951  1.00  0.00     0.189 HD
HETATM   12  C   UNL     1     -34.543  38.071 -47.348  1.00  0.00     0.042 A 
HETATM   13  C   UNL     1     -33.414  37.812 -46.429  1.00  0.00     0.071 C 
HETATM   14  N   UNL     1     -36.551  38.867 -50.173  1.00  0.00    -0.202 NA
ENDROOT
BRANCH   1  15
HETATM   15  S   UNL     1     -36.383  39.591 -52.664  1.00  0.00    -0.082 SA
BRANCH  15  16
HETATM   16  C   UNL     1     -36.721  41.328 -52.235  1.00  0.00     0.185 C 
BRANCH  16  17
HETATM   17  C   UNL     1     -35.490  42.167 -52.485  1.00  0.00     0.231 C 
HETATM   18  N   UNL     1     -35.113  42.583 -53.726  1.00  0.00    -0.327 N 
HETATM   19  H   UNL     1     -34.379  43.280 -53.651  1.00  0.00     0.169 HD
HETATM   20  O   UNL     1     -34.813  42.566 -51.528  1.00  0.00    -0.272 OA
BRANCH  18  21
HETATM   21  C   UNL     1     -35.483  42.232 -55.035  1.00  0.00     0.034 A 
HETATM   22  C   UNL     1     -36.773  42.289 -55.551  1.00  0.00     0.032 A 
HETATM   23  C   UNL     1     -37.033  41.861 -56.860  1.00  0.00     0.039 A 
HETATM   24  C   UNL     1     -36.014  41.363 -57.672  1.00  0.00     0.068 A 
HETATM   25  C   UNL     1     -34.722  41.301 -57.163  1.00  0.00     0.039 A 
HETATM   26  C   UNL     1     -34.463  41.723 -55.852  1.00  0.00     0.032 A 
BRANCH  24  27
HETATM   27  O   UNL     1     -36.413  40.967 -58.916  1.00  0.00    -0.352 OA
BRANCH  27  28
HETATM   28  C   UNL     1     -37.643  41.501 -59.406  1.00  0.00     0.171 C 
HETATM   29  C   UNL     1     -37.319  42.710 -60.266  1.00  0.00     0.034 C 
ENDBRANCH  27  28
ENDBRANCH  24  27
ENDBRANCH  18  21
ENDBRANCH  16  17
ENDBRANCH  15  16
ENDBRANCH   1  15
BRANCH   2  30
HETATM   30  C   UNL     1     -33.458  38.857 -52.220  1.00  0.00     0.043 A 
HETATM   31  C   UNL     1     -33.444  37.794 -53.136  1.00  0.00     0.031 A 
HETATM   32  C   UNL     1     -32.680  37.876 -54.303  1.00  0.00     0.021 A 
HETATM   33  C   UNL     1     -31.930  39.022 -54.559  1.00  0.00     0.011 A 
HETATM   34 BR   UNL     1     -30.900  39.135 -56.140  1.00  0.00    -0.051 Br
HETATM   35  C   UNL     1     -31.936  40.088 -53.661  1.00  0.00     0.021 A 
HETATM   36  C   UNL     1     -32.702  40.007 -52.496  1.00  0.00     0.031 A 
ENDBRANCH   2  30
TORSDOF 7
ENDMDL
MODEL 7
REMARK VINA RESULT:      -7.1      1.632      2.213
REMARK  7 active torsions:
REMARK  status: ('A' for Active; 'I' for Inactive)
REMARK    1  A    between atoms: C_2  and  O_3 
REMARK    2  A    between atoms: O_3  and  C_4 
REMARK    3  A    between atoms: C_7  and  N_8 
REMARK       I    between atoms: N_8  and  C_9 
REMARK    4  A    between atoms: C_9  and  C_10 
REMARK    5  A    between atoms: C_10  and  S_11 
REMARK    6  A    between atoms: S_11  and  C_12 
REMARK    7  A    between atoms: N_13  and  C_14 
ROOT
HETATM    1  C   UNL     1     -42.495  57.577 -55.674  1.00  0.00     0.177 A 
HETATM    2  N   UNL     1     -42.655  56.280 -56.214  1.00  0.00    -0.276 N 
HETATM    3  C   UNL     1     -43.417  56.150 -57.432  1.00  0.00     0.124 A 
HETATM    4  N   UNL     1     -43.596  54.999 -58.055  1.00  0.00    -0.384 N 
HETATM    5  H   UNL     1     -44.114  54.952 -58.919  1.00  0.00     0.157 HD
HETATM    6  H   UNL     1     -43.188  54.150 -57.686  1.00  0.00     0.157 HD
HETATM    7  C   UNL     1     -43.951  57.357 -57.976  1.00  0.00     0.081 A 
HETATM    8  C   UNL     1     -43.652  58.561 -57.347  1.00  0.00     0.187 A 
HETATM    9  N   UNL     1     -44.203  59.602 -57.952  1.00  0.00    -0.153 NA
HETATM   10  N   UNL     1     -44.867  59.049 -58.984  1.00  0.00    -0.280 N 
HETATM   11  H   UNL     1     -45.383  59.668 -59.603  1.00  0.00     0.189 HD
HETATM   12  C   UNL     1     -44.759  57.674 -59.043  1.00  0.00     0.042 A 
HETATM   13  C   UNL     1     -45.448  56.887 -60.088  1.00  0.00     0.071 C 
HETATM   14  N   UNL     1     -42.913  58.700 -56.181  1.00  0.00    -0.202 NA
ENDROOT
BRANCH   1  15
HETATM   15  S   UNL     1     -41.663  57.756 -54.107  1.00  0.00    -0.082 SA
BRANCH  15  16
HETATM   16  C   UNL     1     -42.857  58.808 -53.223  1.00  0.00     0.185 C 
BRANCH  16  17
HETATM   17  C   UNL     1     -44.160  58.063 -53.041  1.00  0.00     0.231 C 
HETATM   18  N   UNL     1     -44.296  56.998 -52.202  1.00  0.00    -0.327 N 
HETATM   19  H   UNL     1     -45.279  56.770 -52.088  1.00  0.00     0.169 HD
HETATM   20  O   UNL     1     -45.181  58.461 -53.616  1.00  0.00    -0.272 OA
BRANCH  18  21
HETATM   21  C   UNL     1     -43.398  56.159 -51.524  1.00  0.00     0.034 A 
HETATM   22  C   UNL     1     -42.283  56.582 -50.808  1.00  0.00     0.032 A 
HETATM   23  C   UNL     1     -41.423  55.646 -50.216  1.00  0.00     0.039 A 
HETATM   24  C   UNL     1     -41.657  54.276 -50.334  1.00  0.00     0.068 A 
HETATM   25  C   UNL     1     -42.768  53.845 -51.050  1.00  0.00     0.039 A 
HETATM   26  C   UNL     1     -43.623  54.780 -51.648  1.00  0.00     0.032 A 
BRANCH  24  27
HETATM   27  O   UNL     1     -40.730  53.480 -49.722  1.00  0.00    -0.352 OA
BRANCH  27  28
HETATM   28  C   UNL     1     -39.781  54.124 -48.872  1.00  0.00     0.171 C 
HETATM   29  C   UNL     1     -40.163  53.824 -47.433  1.00  0.00     0.034 C 
ENDBRANCH  27  28
ENDBRANCH  24  27
ENDBRANCH  18  21
ENDBRANCH  16  17
ENDBRANCH  15  16
ENDBRANCH   1  15
BRANCH   2  30
HETATM   30  C   UNL     1     -42.029  55.141 -55.629  1.00  0.00     0.043 A 
HETATM   31  C   UNL     1     -40.628  55.050 -55.584  1.00  0.00     0.031 A 
HETATM   32  C   UNL     1     -40.009  53.964 -54.960  1.00  0.00     0.021 A 
HETATM   33  C   UNL     1     -40.787  52.967 -54.375  1.00  0.00     0.011 A 
HETATM   34 BR   UNL     1     -39.949  51.502 -53.526  1.00  0.00    -0.051 Br
HETATM   35  C   UNL     1     -42.178  53.044 -54.408  1.00  0.00     0.021 A 
HETATM   36  C   UNL     1     -42.797  54.131 -55.030  1.00  0.00     0.031 A 
ENDBRANCH   2  30
TORSDOF 7
ENDMDL
MODEL 8
REMARK VINA RESULT:      -7.0      3.897      8.277
REMARK  7 active torsions:
REMARK  status: ('A' for Active; 'I' for Inactive)
REMARK    1  A    between atoms: C_2  and  O_3 
REMARK    2  A    between atoms: O_3  and  C_4 
REMARK    3  A    between atoms: C_7  and  N_8 
REMARK       I    between atoms: N_8  and  C_9 
REMARK    4  A    between atoms: C_9  and  C_10 
REMARK    5  A    between atoms: C_10  and  S_11 
REMARK    6  A    between atoms: S_11  and  C_12 
REMARK    7  A    between atoms: N_13  and  C_14 
ROOT
HETATM    1  C   UNL     1     -43.485  56.234 -53.412  1.00  0.00     0.177 A 
HETATM    2  N   UNL     1     -43.221  56.705 -52.106  1.00  0.00    -0.276 N 
HETATM    3  C   UNL     1     -42.279  55.964 -51.303  1.00  0.00     0.124 A 
HETATM    4  N   UNL     1     -41.917  56.330 -50.087  1.00  0.00    -0.384 N 
HETATM    5  H   UNL     1     -41.236  55.799 -49.566  1.00  0.00     0.157 HD
HETATM    6  H   UNL     1     -42.300  57.169 -49.672  1.00  0.00     0.157 HD
HETATM    7  C   UNL     1     -41.705  54.806 -51.910  1.00  0.00     0.081 A 
HETATM    8  C   UNL     1     -42.033  54.513 -53.230  1.00  0.00     0.187 A 
HETATM    9  N   UNL     1     -41.432  53.419 -53.673  1.00  0.00    -0.153 NA
HETATM   10  N   UNL     1     -40.710  53.008 -52.614  1.00  0.00    -0.280 N 
HETATM   11  H   UNL     1     -40.154  52.164 -52.717  1.00  0.00     0.189 HD
HETATM   12  C   UNL     1     -40.847  53.812 -51.500  1.00  0.00     0.042 A 
HETATM   13  C   UNL     1     -40.156  53.501 -50.231  1.00  0.00     0.071 C 
HETATM   14  N   UNL     1     -42.930  55.224 -54.014  1.00  0.00    -0.202 NA
ENDROOT
BRANCH   1  15
HETATM   15  S   UNL     1     -44.734  57.058 -54.384  1.00  0.00    -0.082 SA
BRANCH  15  16
HETATM   16  C   UNL     1     -43.827  58.557 -54.875  1.00  0.00     0.185 C 
BRANCH  16  17
HETATM   17  C   UNL     1     -42.489  58.177 -55.464  1.00  0.00     0.231 C 
HETATM   18  N   UNL     1     -42.333  57.769 -56.755  1.00  0.00    -0.327 N 
HETATM   19  H   UNL     1     -41.346  57.746 -56.995  1.00  0.00     0.169 HD
HETATM   20  O   UNL     1     -41.461  58.300 -54.784  1.00  0.00    -0.272 OA
BRANCH  18  21
HETATM   21  C   UNL     1     -43.212  57.350 -57.766  1.00  0.00     0.034 A 
HETATM   22  C   UNL     1     -44.226  58.122 -58.323  1.00  0.00     0.032 A 
HETATM   23  C   UNL     1     -45.080  57.577 -59.292  1.00  0.00     0.039 A 
HETATM   24  C   UNL     1     -44.941  56.256 -59.716  1.00  0.00     0.068 A 
HETATM   25  C   UNL     1     -43.931  55.477 -59.163  1.00  0.00     0.039 A 
HETATM   26  C   UNL     1     -43.082  56.020 -58.189  1.00  0.00     0.032 A 
BRANCH  24  27
HETATM   27  O   UNL     1     -45.852  55.854 -60.652  1.00  0.00    -0.352 OA
BRANCH  27  28
HETATM   28  C   UNL     1     -47.208  56.252 -60.452  1.00  0.00     0.171 C 
HETATM   29  C   UNL     1     -47.803  56.582 -61.810  1.00  0.00     0.034 C 
ENDBRANCH  27  28
ENDBRANCH  24  27
ENDBRANCH  18  21
ENDBRANCH  16  17
ENDBRANCH  15  16
ENDBRANCH   1  15
BRANCH   2  30
HETATM   30  C   UNL     1     -43.799  57.911 -51.611  1.00  0.00     0.043 A 
HETATM   31  C   UNL     1     -45.092  57.901 -51.063  1.00  0.00     0.031 A 
HETATM   32  C   UNL     1     -45.640  59.066 -50.522  1.00  0.00     0.021 A 
HETATM   33  C   UNL     1     -44.898  60.245 -50.524  1.00  0.00     0.011 A 
HETATM   34 BR   UNL     1     -45.638  61.820 -49.788  1.00  0.00    -0.051 Br
HETATM   35  C   UNL     1     -43.612  60.271 -51.061  1.00  0.00     0.021 A 
HETATM   36  C   UNL     1     -43.063  59.105 -51.600  1.00  0.00     0.031 A 
ENDBRANCH   2  30
TORSDOF 7
ENDMDL
MODEL 9
REMARK VINA RESULT:      -7.0      3.444      5.697
REMARK  7 active torsions:
REMARK  status: ('A' for Active; 'I' for Inactive)
REMARK    1  A    between atoms: C_2  and  O_3 
REMARK    2  A    between atoms: O_3  and  C_4 
REMARK    3  A    between atoms: C_7  and  N_8 
REMARK       I    between atoms: N_8  and  C_9 
REMARK    4  A    between atoms: C_9  and  C_10 
REMARK    5  A    between atoms: C_10  and  S_11 
REMARK    6  A    between atoms: S_11  and  C_12 
REMARK    7  A    between atoms: N_13  and  C_14 
ROOT
HETATM    1  C   UNL     1     -44.193  59.571 -55.950  1.00  0.00     0.177 A 
HETATM    2  N   UNL     1     -43.266  59.080 -56.898  1.00  0.00    -0.276 N 
HETATM    3  C   UNL     1     -42.927  57.679 -56.841  1.00  0.00     0.124 A 
HETATM    4  N   UNL     1     -42.111  57.095 -57.699  1.00  0.00    -0.384 N 
HETATM    5  H   UNL     1     -41.917  56.107 -57.643  1.00  0.00     0.157 HD
HETATM    6  H   UNL     1     -41.688  57.631 -58.446  1.00  0.00     0.157 HD
HETATM    7  C   UNL     1     -43.562  56.915 -55.815  1.00  0.00     0.081 A 
HETATM    8  C   UNL     1     -44.495  57.545 -54.997  1.00  0.00     0.187 A 
HETATM    9  N   UNL     1     -45.012  56.727 -54.092  1.00  0.00    -0.153 NA
HETATM   10  N   UNL     1     -44.393  55.557 -54.337  1.00  0.00    -0.280 N 
HETATM   11  H   UNL     1     -44.631  54.762 -53.751  1.00  0.00     0.189 HD
HETATM   12  C   UNL     1     -43.484  55.614 -55.375  1.00  0.00     0.042 A 
HETATM   13  C   UNL     1     -42.683  54.436 -55.769  1.00  0.00     0.071 C 
HETATM   14  N   UNL     1     -44.836  58.888 -55.048  1.00  0.00    -0.202 NA
ENDROOT
BRANCH   1  15
HETATM   15  S   UNL     1     -44.539  61.320 -55.917  1.00  0.00    -0.082 SA
BRANCH  15  16
HETATM   16  C   UNL     1     -44.891  61.548 -54.146  1.00  0.00     0.185 C 
BRANCH  16  17
HETATM   17  C   UNL     1     -43.726  62.239 -53.477  1.00  0.00     0.231 C 
HETATM   18  N   UNL     1     -42.592  61.586 -53.099  1.00  0.00    -0.327 N 
HETATM   19  H   UNL     1     -41.873  62.257 -52.847  1.00  0.00     0.169 HD
HETATM   20  O   UNL     1     -43.749  63.467 -53.316  1.00  0.00    -0.272 OA
BRANCH  18  21
HETATM   21  C   UNL     1     -42.238  60.235 -52.950  1.00  0.00     0.034 A 
HETATM   22  C   UNL     1     -41.360  59.536 -53.772  1.00  0.00     0.032 A 
HETATM   23  C   UNL     1     -41.125  58.171 -53.560  1.00  0.00     0.039 A 
HETATM   24  C   UNL     1     -41.763  57.480 -52.530  1.00  0.00     0.068 A 
HETATM   25  C   UNL     1     -42.644  58.171 -51.705  1.00  0.00     0.039 A 
HETATM   26  C   UNL     1     -42.885  59.534 -51.922  1.00  0.00     0.032 A 
BRANCH  24  27
HETATM   27  O   UNL     1     -41.453  56.153 -52.450  1.00  0.00    -0.352 OA
BRANCH  27  28
HETATM   28  C   UNL     1     -42.237  55.354 -51.565  1.00  0.00     0.171 C 
HETATM   29  C   UNL     1     -42.065  53.900 -51.969  1.00  0.00     0.034 C 
ENDBRANCH  27  28
ENDBRANCH  24  27
ENDBRANCH  18  21
ENDBRANCH  16  17
ENDBRANCH  15  16
ENDBRANCH   1  15
BRANCH   2  30
HETATM   30  C   UNL     1     -42.732  59.910 -57.927  1.00  0.00     0.043 A 
HETATM   31  C   UNL     1     -41.552  60.638 -57.705  1.00  0.00     0.031 A 
HETATM   32  C   UNL     1     -40.993  61.407 -58.728  1.00  0.00     0.021 A 
HETATM   33  C   UNL     1     -41.608  61.447 -59.978  1.00  0.00     0.011 A 
HETATM   34 BR   UNL     1     -40.847  62.483 -61.364  1.00  0.00    -0.051 Br
HETATM   35  C   UNL     1     -42.777  60.728 -60.215  1.00  0.00     0.021 A 
HETATM   36  C   UNL     1     -43.336  59.958 -59.193  1.00  0.00     0.031 A 
ENDBRANCH   2  30
TORSDOF 7
ENDMDL
MODEL 10
REMARK VINA RESULT:      -7.0      3.480      5.082
REMARK  7 active torsions:
REMARK  status: ('A' for Active; 'I' for Inactive)
REMARK    1  A    between atoms: C_2  and  O_3 
REMARK    2  A    between atoms: O_3  and  C_4 
REMARK    3  A    between atoms: C_7  and  N_8 
REMARK       I    between atoms: N_8  and  C_9 
REMARK    4  A    between atoms: C_9  and  C_10 
REMARK    5  A    between atoms: C_10  and  S_11 
REMARK    6  A    between atoms: S_11  and  C_12 
REMARK    7  A    between atoms: N_13  and  C_14 
ROOT
HETATM    1  C   UNL     1     -43.086  58.713 -54.189  1.00  0.00     0.177 A 
HETATM    2  N   UNL     1     -44.305  59.354 -54.511  1.00  0.00    -0.276 N 
HETATM    3  C   UNL     1     -44.934  59.008 -55.762  1.00  0.00     0.124 A 
HETATM    4  N   UNL     1     -46.095  59.504 -56.151  1.00  0.00    -0.384 N 
HETATM    5  H   UNL     1     -46.516  59.219 -57.022  1.00  0.00     0.157 HD
HETATM    6  H   UNL     1     -46.593  60.159 -55.562  1.00  0.00     0.157 HD
HETATM    7  C   UNL     1     -44.253  58.048 -56.569  1.00  0.00     0.081 A 
HETATM    8  C   UNL     1     -43.087  57.472 -56.077  1.00  0.00     0.187 A 
HETATM    9  N   UNL     1     -42.557  56.596 -56.918  1.00  0.00    -0.153 NA
HETATM   10  N   UNL     1     -43.401  56.619 -57.966  1.00  0.00    -0.280 N 
HETATM   11  H   UNL     1     -43.193  56.016 -58.757  1.00  0.00     0.189 HD
HETATM   12  C   UNL     1     -44.454  57.499 -57.815  1.00  0.00     0.042 A 
HETATM   13  C   UNL     1     -45.466  57.687 -58.876  1.00  0.00     0.071 C 
HETATM   14  N   UNL     1     -42.477  57.788 -54.872  1.00  0.00    -0.202 NA
ENDROOT
BRANCH   1  15
HETATM   15  S   UNL     1     -42.223  59.208 -52.710  1.00  0.00    -0.082 SA
BRANCH  15  16
HETATM   16  C   UNL     1     -41.608  57.593 -52.137  1.00  0.00     0.185 C 
BRANCH  16  17
HETATM   17  C   UNL     1     -42.737  56.805 -51.517  1.00  0.00     0.231 C 
HETATM   18  N   UNL     1     -42.670  55.464 -51.288  1.00  0.00    -0.327 N 
HETATM   19  H   UNL     1     -43.446  55.172 -50.702  1.00  0.00     0.169 HD
HETATM   20  O   UNL     1     -43.756  57.392 -51.127  1.00  0.00    -0.272 OA
BRANCH  18  21
HETATM   21  C   UNL     1     -41.811  54.436 -51.710  1.00  0.00     0.034 A 
HETATM   22  C   UNL     1     -40.809  53.855 -50.940  1.00  0.00     0.032 A 
HETATM   23  C   UNL     1     -39.974  52.871 -51.487  1.00  0.00     0.039 A 
HETATM   24  C   UNL     1     -40.120  52.456 -52.810  1.00  0.00     0.068 A 
HETATM   25  C   UNL     1     -41.118  53.033 -53.588  1.00  0.00     0.039 A 
HETATM   26  C   UNL     1     -41.947  54.022 -53.043  1.00  0.00     0.032 A 
BRANCH  24  27
HETATM   27  O   UNL     1     -39.228  51.504 -53.215  1.00  0.00    -0.352 OA
BRANCH  27  28
HETATM   28  C   UNL     1     -39.693  50.155 -53.260  1.00  0.00     0.171 C 
HETATM   29  C   UNL     1     -39.782  49.739 -54.718  1.00  0.00     0.034 C 
ENDBRANCH  27  28
ENDBRANCH  24  27
ENDBRANCH  18  21
ENDBRANCH  16  17
ENDBRANCH  15  16
ENDBRANCH   1  15
BRANCH   2  30
HETATM   30  C   UNL     1     -44.940  60.255 -53.608  1.00  0.00     0.043 A 
HETATM   31  C   UNL     1     -44.777  61.641 -53.763  1.00  0.00     0.031 A 
HETATM   32  C   UNL     1     -45.445  62.531 -52.918  1.00  0.00     0.021 A 
HETATM   33  C   UNL     1     -46.281  62.039 -51.918  1.00  0.00     0.011 A 
HETATM   34 BR   UNL     1     -47.188  63.243 -50.778  1.00  0.00    -0.051 Br
HETATM   35  C   UNL     1     -46.457  60.667 -51.753  1.00  0.00     0.021 A 
HETATM   36  C   UNL     1     -45.791  59.777 -52.599  1.00  0.00     0.031 A 
ENDBRANCH   2  30
TORSDOF 7
ENDMDL
