MODEL 1
REMARK VINA RESULT:      -7.9      0.000      0.000
REMARK  5 active torsions:
REMARK  status: ('A' for Active; 'I' for Inactive)
REMARK    1  A    between atoms: C_3  and  N_4 
REMARK       I    between atoms: N_4  and  C_5 
REMARK    2  A    between atoms: C_5  and  C_6 
REMARK    3  A    between atoms: C_6  and  C_7 
REMARK    4  A    between atoms: C_16  and  O_17 
REMARK    5  A    between atoms: O_17  and  C_18 
ROOT
HETATM    1  C   UNL     1     -39.963  52.178 -52.507  1.00  0.00     0.190 A 
HETATM    2  N   UNL     1     -40.229  52.903 -51.390  1.00  0.00    -0.235 NA
HETATM    3  C   UNL     1     -40.337  52.230 -50.223  1.00  0.00     0.119 A 
HETATM    4  C   UNL     1     -40.212  50.856 -50.115  1.00  0.00     0.021 A 
HETATM    5  C   UNL     1     -39.964  50.125 -51.274  1.00  0.00     0.028 A 
HETATM    6  C   UNL     1     -39.839  50.792 -52.496  1.00  0.00     0.097 A 
HETATM    7  C   UNL     1     -39.605  50.053 -53.696  1.00  0.00     0.104 C 
HETATM    8  N   UNL     1     -39.424  49.423 -54.654  1.00  0.00    -0.191 NA
ENDROOT
BRANCH   1   9
HETATM    9  O   UNL     1     -39.849  52.808 -53.742  1.00  0.00    -0.291 OA
BRANCH   9  10
HETATM   10  C   UNL     1     -40.766  53.755 -54.128  1.00  0.00     0.078 A 
HETATM   11  C   UNL     1     -41.893  53.278 -54.787  1.00  0.00     0.039 A 
HETATM   12  C   UNL     1     -42.838  54.172 -55.296  1.00  0.00     0.033 A 
HETATM   13  C   UNL     1     -42.666  55.562 -55.177  1.00  0.00     0.040 A 
HETATM   14  C   UNL     1     -41.555  56.049 -54.464  1.00  0.00    -0.033 A 
HETATM   15  C   UNL     1     -41.332  57.492 -54.103  1.00  0.00     0.050 C 
HETATM   16  C   UNL     1     -40.586  55.131 -53.997  1.00  0.00     0.046 A 
BRANCH  13  17
HETATM   17  N   UNL     1     -43.683  56.346 -55.770  1.00  0.00    -0.326 N 
HETATM   18  C   UNL     1     -43.592  57.100 -56.927  1.00  0.00     0.227 C 
HETATM   19  O   UNL     1     -42.637  57.124 -57.701  1.00  0.00    -0.273 OA
HETATM   20  H   UNL     1     -44.628  56.112 -55.489  1.00  0.00     0.169 HD
BRANCH  18  21
HETATM   21  C   UNL     1     -44.854  57.918 -57.211  1.00  0.00     0.159 C 
BRANCH  21  22
HETATM   22  C   UNL     1     -45.605  57.401 -58.399  1.00  0.00     0.017 A 
HETATM   23  N   UNL     1     -45.180  56.307 -59.121  1.00  0.00    -0.369 N 
HETATM   24  H   UNL     1     -44.359  55.752 -58.892  1.00  0.00     0.165 HD
HETATM   25  C   UNL     1     -46.038  56.077 -60.162  1.00  0.00     0.088 A 
HETATM   26  C   UNL     1     -47.021  57.039 -60.122  1.00  0.00     0.019 A 
HETATM   27  C   UNL     1     -46.750  57.874 -59.012  1.00  0.00     0.027 A 
ENDBRANCH  21  22
ENDBRANCH  18  21
ENDBRANCH  13  17
ENDBRANCH   9  10
ENDBRANCH   1   9
TORSDOF 5
ENDMDL
MODEL 2
REMARK VINA RESULT:      -7.7      1.419      2.515
REMARK  5 active torsions:
REMARK  status: ('A' for Active; 'I' for Inactive)
REMARK    1  A    between atoms: C_3  and  N_4 
REMARK       I    between atoms: N_4  and  C_5 
REMARK    2  A    between atoms: C_5  and  C_6 
REMARK    3  A    between atoms: C_6  and  C_7 
REMARK    4  A    between atoms: C_16  and  O_17 
REMARK    5  A    between atoms: O_17  and  C_18 
ROOT
HETATM    1  C   UNL     1     -39.859  52.221 -51.971  1.00  0.00     0.190 A 
HETATM    2  N   UNL     1     -39.574  51.243 -52.869  1.00  0.00    -0.235 NA
HETATM    3  C   UNL     1     -39.650  49.965 -52.441  1.00  0.00     0.119 A 
HETATM    4  C   UNL     1     -39.979  49.607 -51.145  1.00  0.00     0.021 A 
HETATM    5  C   UNL     1     -40.244  50.622 -50.230  1.00  0.00     0.028 A 
HETATM    6  C   UNL     1     -40.182  51.957 -50.643  1.00  0.00     0.097 A 
HETATM    7  C   UNL     1     -40.433  53.009 -49.710  1.00  0.00     0.104 C 
HETATM    8  N   UNL     1     -40.632  53.841 -48.926  1.00  0.00    -0.191 NA
ENDROOT
BRANCH   1   9
HETATM    9  O   UNL     1     -39.792  53.560 -52.345  1.00  0.00    -0.291 OA
BRANCH   9  10
HETATM   10  C   UNL     1     -40.786  54.120 -53.108  1.00  0.00     0.078 A 
HETATM   11  C   UNL     1     -40.766  53.805 -54.463  1.00  0.00     0.039 A 
HETATM   12  C   UNL     1     -41.682  54.398 -55.334  1.00  0.00     0.033 A 
HETATM   13  C   UNL     1     -42.625  55.334 -54.875  1.00  0.00     0.040 A 
HETATM   14  C   UNL     1     -42.687  55.615 -53.498  1.00  0.00    -0.033 A 
HETATM   15  C   UNL     1     -43.748  56.453 -52.839  1.00  0.00     0.050 C 
HETATM   16  C   UNL     1     -41.720  55.042 -52.639  1.00  0.00     0.046 A 
BRANCH  13  17
HETATM   17  N   UNL     1     -43.466  55.878 -55.874  1.00  0.00    -0.326 N 
HETATM   18  C   UNL     1     -43.195  56.954 -56.702  1.00  0.00     0.227 C 
HETATM   19  O   UNL     1     -42.123  57.551 -56.785  1.00  0.00    -0.273 OA
HETATM   20  H   UNL     1     -44.199  55.262 -56.205  1.00  0.00     0.169 HD
BRANCH  18  21
HETATM   21  C   UNL     1     -44.382  57.345 -57.585  1.00  0.00     0.159 C 
BRANCH  21  22
HETATM   22  C   UNL     1     -44.547  56.417 -58.749  1.00  0.00     0.017 A 
HETATM   23  N   UNL     1     -45.777  56.153 -59.313  1.00  0.00    -0.369 N 
HETATM   24  H   UNL     1     -46.649  56.585 -59.017  1.00  0.00     0.165 HD
HETATM   25  C   UNL     1     -45.634  55.255 -60.335  1.00  0.00     0.088 A 
HETATM   26  C   UNL     1     -44.302  54.921 -60.425  1.00  0.00     0.019 A 
HETATM   27  C   UNL     1     -43.616  55.652 -59.426  1.00  0.00     0.027 A 
ENDBRANCH  21  22
ENDBRANCH  18  21
ENDBRANCH  13  17
ENDBRANCH   9  10
ENDBRANCH   1   9
TORSDOF 5
ENDMDL
MODEL 3
REMARK VINA RESULT:      -7.6      2.154      3.216
REMARK  5 active torsions:
REMARK  status: ('A' for Active; 'I' for Inactive)
REMARK    1  A    between atoms: C_3  and  N_4 
REMARK       I    between atoms: N_4  and  C_5 
REMARK    2  A    between atoms: C_5  and  C_6 
REMARK    3  A    between atoms: C_6  and  C_7 
REMARK    4  A    between atoms: C_16  and  O_17 
REMARK    5  A    between atoms: O_17  and  C_18 
ROOT
HETATM    1  C   UNL     1     -40.005  52.390 -51.619  1.00  0.00     0.190 A 
HETATM    2  N   UNL     1     -39.596  51.436 -52.494  1.00  0.00    -0.235 NA
HETATM    3  C   UNL     1     -39.554  50.162 -52.047  1.00  0.00     0.119 A 
HETATM    4  C   UNL     1     -39.882  49.789 -50.755  1.00  0.00     0.021 A 
HETATM    5  C   UNL     1     -40.274  50.784 -49.864  1.00  0.00     0.028 A 
HETATM    6  C   UNL     1     -40.337  52.112 -50.297  1.00  0.00     0.097 A 
HETATM    7  C   UNL     1     -40.719  53.146 -49.388  1.00  0.00     0.104 C 
HETATM    8  N   UNL     1     -41.025  53.964 -48.623  1.00  0.00    -0.191 NA
ENDROOT
BRANCH   1   9
HETATM    9  O   UNL     1     -40.064  53.725 -52.013  1.00  0.00    -0.291 OA
BRANCH   9  10
HETATM   10  C   UNL     1     -40.767  54.089 -53.134  1.00  0.00     0.078 A 
HETATM   11  C   UNL     1     -40.115  53.905 -54.349  1.00  0.00     0.039 A 
HETATM   12  C   UNL     1     -40.715  54.330 -55.537  1.00  0.00     0.033 A 
HETATM   13  C   UNL     1     -41.968  54.965 -55.536  1.00  0.00     0.040 A 
HETATM   14  C   UNL     1     -42.657  55.104 -54.316  1.00  0.00    -0.033 A 
HETATM   15  C   UNL     1     -44.071  55.597 -54.180  1.00  0.00     0.050 C 
HETATM   16  C   UNL     1     -42.014  54.711 -53.119  1.00  0.00     0.046 A 
BRANCH  13  17
HETATM   17  N   UNL     1     -42.437  55.372 -56.807  1.00  0.00    -0.326 N 
HETATM   18  C   UNL     1     -42.621  56.668 -57.256  1.00  0.00     0.227 C 
HETATM   19  O   UNL     1     -42.298  57.693 -56.659  1.00  0.00    -0.273 OA
HETATM   20  H   UNL     1     -42.360  54.676 -57.539  1.00  0.00     0.169 HD
BRANCH  18  21
HETATM   21  C   UNL     1     -43.257  56.737 -58.647  1.00  0.00     0.159 C 
BRANCH  21  22
HETATM   22  C   UNL     1     -42.875  57.986 -59.379  1.00  0.00     0.017 A 
HETATM   23  N   UNL     1     -43.453  59.207 -59.107  1.00  0.00    -0.369 N 
HETATM   24  H   UNL     1     -44.145  59.364 -58.378  1.00  0.00     0.165 HD
HETATM   25  C   UNL     1     -42.936  60.160 -59.941  1.00  0.00     0.088 A 
HETATM   26  C   UNL     1     -42.025  59.549 -60.772  1.00  0.00     0.019 A 
HETATM   27  C   UNL     1     -41.986  58.179 -60.421  1.00  0.00     0.027 A 
ENDBRANCH  21  22
ENDBRANCH  18  21
ENDBRANCH  13  17
ENDBRANCH   9  10
ENDBRANCH   1   9
TORSDOF 5
ENDMDL
MODEL 4
REMARK VINA RESULT:      -7.4      2.058      8.551
REMARK  5 active torsions:
REMARK  status: ('A' for Active; 'I' for Inactive)
REMARK    1  A    between atoms: C_3  and  N_4 
REMARK       I    between atoms: N_4  and  C_5 
REMARK    2  A    between atoms: C_5  and  C_6 
REMARK    3  A    between atoms: C_6  and  C_7 
REMARK    4  A    between atoms: C_16  and  O_17 
REMARK    5  A    between atoms: O_17  and  C_18 
ROOT
HETATM    1  C   UNL     1     -43.065  57.227 -57.998  1.00  0.00     0.190 A 
HETATM    2  N   UNL     1     -42.395  58.394 -57.826  1.00  0.00    -0.235 NA
HETATM    3  C   UNL     1     -41.862  58.973 -58.924  1.00  0.00     0.119 A 
HETATM    4  C   UNL     1     -41.947  58.431 -60.195  1.00  0.00     0.021 A 
HETATM    5  C   UNL     1     -42.616  57.220 -60.350  1.00  0.00     0.028 A 
HETATM    6  C   UNL     1     -43.186  56.599 -59.234  1.00  0.00     0.097 A 
HETATM    7  C   UNL     1     -43.858  55.347 -59.376  1.00  0.00     0.104 C 
HETATM    8  N   UNL     1     -44.390  54.325 -59.522  1.00  0.00    -0.191 NA
ENDROOT
BRANCH   1   9
HETATM    9  O   UNL     1     -43.631  56.574 -56.906  1.00  0.00    -0.291 OA
BRANCH   9  10
HETATM   10  C   UNL     1     -42.839  56.119 -55.880  1.00  0.00     0.078 A 
HETATM   11  C   UNL     1     -42.538  54.761 -55.900  1.00  0.00     0.039 A 
HETATM   12  C   UNL     1     -41.814  54.190 -54.850  1.00  0.00     0.033 A 
HETATM   13  C   UNL     1     -41.393  54.957 -53.751  1.00  0.00     0.040 A 
HETATM   14  C   UNL     1     -41.647  56.342 -53.753  1.00  0.00    -0.033 A 
HETATM   15  C   UNL     1     -41.108  57.314 -52.741  1.00  0.00     0.050 C 
HETATM   16  C   UNL     1     -42.422  56.893 -54.800  1.00  0.00     0.046 A 
BRANCH  13  17
HETATM   17  N   UNL     1     -40.701  54.240 -52.747  1.00  0.00    -0.326 N 
HETATM   18  C   UNL     1     -41.207  53.786 -51.541  1.00  0.00     0.227 C 
HETATM   19  O   UNL     1     -42.383  53.834 -51.187  1.00  0.00    -0.273 OA
HETATM   20  H   UNL     1     -39.855  53.774 -53.055  1.00  0.00     0.169 HD
BRANCH  18  21
HETATM   21  C   UNL     1     -40.142  53.149 -50.645  1.00  0.00     0.159 C 
BRANCH  21  22
HETATM   22  C   UNL     1     -39.969  51.689 -50.928  1.00  0.00     0.017 A 
HETATM   23  N   UNL     1     -39.527  51.221 -52.147  1.00  0.00    -0.369 N 
HETATM   24  H   UNL     1     -39.255  51.816 -52.925  1.00  0.00     0.165 HD
HETATM   25  C   UNL     1     -39.490  49.853 -52.132  1.00  0.00     0.088 A 
HETATM   26  C   UNL     1     -39.925  49.430 -50.897  1.00  0.00     0.019 A 
HETATM   27  C   UNL     1     -40.228  50.585 -50.137  1.00  0.00     0.027 A 
ENDBRANCH  21  22
ENDBRANCH  18  21
ENDBRANCH  13  17
ENDBRANCH   9  10
ENDBRANCH   1   9
TORSDOF 5
ENDMDL
MODEL 5
REMARK VINA RESULT:      -7.1      2.762      3.474
REMARK  5 active torsions:
REMARK  status: ('A' for Active; 'I' for Inactive)
REMARK    1  A    between atoms: C_3  and  N_4 
REMARK       I    between atoms: N_4  and  C_5 
REMARK    2  A    between atoms: C_5  and  C_6 
REMARK    3  A    between atoms: C_6  and  C_7 
REMARK    4  A    between atoms: C_16  and  O_17 
REMARK    5  A    between atoms: O_17  and  C_18 
ROOT
HETATM    1  C   UNL     1     -41.836  54.045 -51.356  1.00  0.00     0.190 A 
HETATM    2  N   UNL     1     -42.259  54.741 -50.270  1.00  0.00    -0.235 NA
HETATM    3  C   UNL     1     -41.402  54.855 -49.233  1.00  0.00     0.119 A 
HETATM    4  C   UNL     1     -40.139  54.287 -49.213  1.00  0.00     0.021 A 
HETATM    5  C   UNL     1     -39.731  53.555 -50.325  1.00  0.00     0.028 A 
HETATM    6  C   UNL     1     -40.591  53.425 -51.420  1.00  0.00     0.097 A 
HETATM    7  C   UNL     1     -40.193  52.660 -52.558  1.00  0.00     0.104 C 
HETATM    8  N   UNL     1     -39.844  52.025 -53.465  1.00  0.00    -0.191 NA
ENDROOT
BRANCH   1   9
HETATM    9  O   UNL     1     -42.674  53.883 -52.457  1.00  0.00    -0.291 OA
BRANCH   9  10
HETATM   10  C   UNL     1     -42.586  54.736 -53.530  1.00  0.00     0.078 A 
HETATM   11  C   UNL     1     -42.818  54.170 -54.778  1.00  0.00     0.039 A 
HETATM   12  C   UNL     1     -42.663  54.937 -55.935  1.00  0.00     0.033 A 
HETATM   13  C   UNL     1     -42.252  56.280 -55.871  1.00  0.00     0.040 A 
HETATM   14  C   UNL     1     -42.069  56.873 -54.608  1.00  0.00    -0.033 A 
HETATM   15  C   UNL     1     -41.806  58.336 -54.377  1.00  0.00     0.050 C 
HETATM   16  C   UNL     1     -42.185  56.068 -53.451  1.00  0.00     0.046 A 
BRANCH  13  17
HETATM   17  N   UNL     1     -42.103  56.923 -57.122  1.00  0.00    -0.326 N 
HETATM   18  C   UNL     1     -43.088  57.554 -57.862  1.00  0.00     0.227 C 
HETATM   19  O   UNL     1     -44.244  57.762 -57.498  1.00  0.00    -0.273 OA
HETATM   20  H   UNL     1     -41.156  57.193 -57.359  1.00  0.00     0.169 HD
BRANCH  18  21
HETATM   21  C   UNL     1     -42.595  58.039 -59.227  1.00  0.00     0.159 C 
BRANCH  21  22
HETATM   22  C   UNL     1     -42.090  59.448 -59.176  1.00  0.00     0.017 A 
HETATM   23  N   UNL     1     -41.897  60.204 -60.312  1.00  0.00    -0.369 N 
HETATM   24  H   UNL     1     -42.111  59.888 -61.255  1.00  0.00     0.165 HD
HETATM   25  C   UNL     1     -41.405  61.435 -59.971  1.00  0.00     0.088 A 
HETATM   26  C   UNL     1     -41.265  61.471 -58.603  1.00  0.00     0.019 A 
HETATM   27  C   UNL     1     -41.694  60.221 -58.099  1.00  0.00     0.027 A 
ENDBRANCH  21  22
ENDBRANCH  18  21
ENDBRANCH  13  17
ENDBRANCH   9  10
ENDBRANCH   1   9
TORSDOF 5
ENDMDL
MODEL 6
REMARK VINA RESULT:      -6.9      1.741      2.981
REMARK  5 active torsions:
REMARK  status: ('A' for Active; 'I' for Inactive)
REMARK    1  A    between atoms: C_3  and  N_4 
REMARK       I    between atoms: N_4  and  C_5 
REMARK    2  A    between atoms: C_5  and  C_6 
REMARK    3  A    between atoms: C_6  and  C_7 
REMARK    4  A    between atoms: C_16  and  O_17 
REMARK    5  A    between atoms: O_17  and  C_18 
ROOT
HETATM    1  C   UNL     1     -39.869  52.308 -51.664  1.00  0.00     0.190 A 
HETATM    2  N   UNL     1     -39.508  51.460 -52.660  1.00  0.00    -0.235 NA
HETATM    3  C   UNL     1     -39.593  50.135 -52.409  1.00  0.00     0.119 A 
HETATM    4  C   UNL     1     -40.004  49.608 -51.197  1.00  0.00     0.021 A 
HETATM    5  C   UNL     1     -40.347  50.492 -50.178  1.00  0.00     0.028 A 
HETATM    6  C   UNL     1     -40.278  51.870 -50.407  1.00  0.00     0.097 A 
HETATM    7  C   UNL     1     -40.607  52.788 -49.364  1.00  0.00     0.104 C 
HETATM    8  N   UNL     1     -40.873  53.509 -48.494  1.00  0.00    -0.191 NA
ENDROOT
BRANCH   1   9
HETATM    9  O   UNL     1     -39.797  53.686 -51.853  1.00  0.00    -0.291 OA
BRANCH   9  10
HETATM   10  C   UNL     1     -40.792  54.348 -52.530  1.00  0.00     0.078 A 
HETATM   11  C   UNL     1     -41.149  55.592 -52.022  1.00  0.00     0.039 A 
HETATM   12  C   UNL     1     -42.211  56.300 -52.589  1.00  0.00     0.033 A 
HETATM   13  C   UNL     1     -42.952  55.773 -53.660  1.00  0.00     0.040 A 
HETATM   14  C   UNL     1     -42.560  54.539 -54.213  1.00  0.00    -0.033 A 
HETATM   15  C   UNL     1     -43.139  53.936 -55.463  1.00  0.00     0.050 C 
HETATM   16  C   UNL     1     -41.513  53.815 -53.596  1.00  0.00     0.046 A 
BRANCH  13  17
HETATM   17  N   UNL     1     -44.021  56.583 -54.109  1.00  0.00    -0.326 N 
HETATM   18  C   UNL     1     -43.932  57.784 -54.792  1.00  0.00     0.227 C 
HETATM   19  O   UNL     1     -42.901  58.294 -55.226  1.00  0.00    -0.273 OA
HETATM   20  H   UNL     1     -44.915  56.114 -54.191  1.00  0.00     0.169 HD
BRANCH  18  21
HETATM   21  C   UNL     1     -45.292  58.449 -55.016  1.00  0.00     0.159 C 
BRANCH  21  22
HETATM   22  C   UNL     1     -45.741  58.347 -56.441  1.00  0.00     0.017 A 
HETATM   23  N   UNL     1     -46.908  57.708 -56.803  1.00  0.00    -0.369 N 
HETATM   24  H   UNL     1     -47.564  57.295 -56.144  1.00  0.00     0.165 HD
HETATM   25  C   UNL     1     -47.052  57.743 -58.163  1.00  0.00     0.088 A 
HETATM   26  C   UNL     1     -45.962  58.397 -58.689  1.00  0.00     0.019 A 
HETATM   27  C   UNL     1     -45.134  58.777 -57.606  1.00  0.00     0.027 A 
ENDBRANCH  21  22
ENDBRANCH  18  21
ENDBRANCH  13  17
ENDBRANCH   9  10
ENDBRANCH   1   9
TORSDOF 5
ENDMDL
MODEL 7
REMARK VINA RESULT:      -6.8      1.986      2.623
REMARK  5 active torsions:
REMARK  status: ('A' for Active; 'I' for Inactive)
REMARK    1  A    between atoms: C_3  and  N_4 
REMARK       I    between atoms: N_4  and  C_5 
REMARK    2  A    between atoms: C_5  and  C_6 
REMARK    3  A    between atoms: C_6  and  C_7 
REMARK    4  A    between atoms: C_16  and  O_17 
REMARK    5  A    between atoms: O_17  and  C_18 
ROOT
HETATM    1  C   UNL     1     -41.650  53.846 -51.106  1.00  0.00     0.190 A 
HETATM    2  N   UNL     1     -42.154  54.798 -50.280  1.00  0.00    -0.235 NA
HETATM    3  C   UNL     1     -41.359  55.235 -49.279  1.00  0.00     0.119 A 
HETATM    4  C   UNL     1     -40.083  54.752 -49.044  1.00  0.00     0.021 A 
HETATM    5  C   UNL     1     -39.592  53.758 -49.885  1.00  0.00     0.028 A 
HETATM    6  C   UNL     1     -40.385  53.289 -50.936  1.00  0.00     0.097 A 
HETATM    7  C   UNL     1     -39.901  52.255 -51.795  1.00  0.00     0.104 C 
HETATM    8  N   UNL     1     -39.483  51.408 -52.469  1.00  0.00    -0.191 NA
ENDROOT
BRANCH   1   9
HETATM    9  O   UNL     1     -42.419  53.345 -52.153  1.00  0.00    -0.291 OA
BRANCH   9  10
HETATM   10  C   UNL     1     -42.636  54.100 -53.280  1.00  0.00     0.078 A 
HETATM   11  C   UNL     1     -41.802  53.835 -54.360  1.00  0.00     0.039 A 
HETATM   12  C   UNL     1     -41.888  54.613 -55.518  1.00  0.00     0.033 A 
HETATM   13  C   UNL     1     -42.793  55.683 -55.613  1.00  0.00     0.040 A 
HETATM   14  C   UNL     1     -43.677  55.921 -54.544  1.00  0.00    -0.033 A 
HETATM   15  C   UNL     1     -44.811  56.908 -54.572  1.00  0.00     0.050 C 
HETATM   16  C   UNL     1     -43.543  55.154 -53.363  1.00  0.00     0.046 A 
BRANCH  13  17
HETATM   17  N   UNL     1     -42.745  56.404 -56.829  1.00  0.00    -0.326 N 
HETATM   18  C   UNL     1     -42.472  57.751 -56.995  1.00  0.00     0.227 C 
HETATM   19  O   UNL     1     -42.110  58.529 -56.114  1.00  0.00    -0.273 OA
HETATM   20  H   UNL     1     -42.618  55.840 -57.661  1.00  0.00     0.169 HD
BRANCH  18  21
HETATM   21  C   UNL     1     -42.622  58.220 -58.444  1.00  0.00     0.159 C 
BRANCH  21  22
HETATM   22  C   UNL     1     -43.563  57.353 -59.221  1.00  0.00     0.017 A 
HETATM   23  N   UNL     1     -44.932  57.485 -59.132  1.00  0.00    -0.369 N 
HETATM   24  H   UNL     1     -45.406  58.189 -58.572  1.00  0.00     0.165 HD
HETATM   25  C   UNL     1     -45.540  56.550 -59.925  1.00  0.00     0.088 A 
HETATM   26  C   UNL     1     -44.556  55.796 -60.523  1.00  0.00     0.019 A 
HETATM   27  C   UNL     1     -43.310  56.299 -60.080  1.00  0.00     0.027 A 
ENDBRANCH  21  22
ENDBRANCH  18  21
ENDBRANCH  13  17
ENDBRANCH   9  10
ENDBRANCH   1   9
TORSDOF 5
ENDMDL
MODEL 8
REMARK VINA RESULT:      -6.8      2.018      8.599
REMARK  5 active torsions:
REMARK  status: ('A' for Active; 'I' for Inactive)
REMARK    1  A    between atoms: C_3  and  N_4 
REMARK       I    between atoms: N_4  and  C_5 
REMARK    2  A    between atoms: C_5  and  C_6 
REMARK    3  A    between atoms: C_6  and  C_7 
REMARK    4  A    between atoms: C_16  and  O_17 
REMARK    5  A    between atoms: O_17  and  C_18 
ROOT
HETATM    1  C   UNL     1     -44.779  57.649 -58.395  1.00  0.00     0.190 A 
HETATM    2  N   UNL     1     -46.056  57.944 -58.041  1.00  0.00    -0.235 NA
HETATM    3  C   UNL     1     -47.042  57.532 -58.867  1.00  0.00     0.119 A 
HETATM    4  C   UNL     1     -46.817  56.852 -60.052  1.00  0.00     0.021 A 
HETATM    5  C   UNL     1     -45.500  56.580 -60.414  1.00  0.00     0.028 A 
HETATM    6  C   UNL     1     -44.457  56.986 -59.576  1.00  0.00     0.097 A 
HETATM    7  C   UNL     1     -43.100  56.731 -59.944  1.00  0.00     0.104 C 
HETATM    8  N   UNL     1     -42.009  56.517 -60.276  1.00  0.00    -0.191 NA
ENDROOT
BRANCH   1   9
HETATM    9  O   UNL     1     -43.716  58.052 -57.592  1.00  0.00    -0.291 OA
BRANCH   9  10
HETATM   10  C   UNL     1     -43.500  57.455 -56.374  1.00  0.00     0.078 A 
HETATM   11  C   UNL     1     -42.814  56.246 -56.402  1.00  0.00     0.039 A 
HETATM   12  C   UNL     1     -42.625  55.521 -55.222  1.00  0.00     0.033 A 
HETATM   13  C   UNL     1     -43.135  55.978 -53.995  1.00  0.00     0.040 A 
HETATM   14  C   UNL     1     -43.781  57.228 -53.952  1.00  0.00    -0.033 A 
HETATM   15  C   UNL     1     -44.218  57.925 -52.694  1.00  0.00     0.050 C 
HETATM   16  C   UNL     1     -44.004  57.924 -55.163  1.00  0.00     0.046 A 
BRANCH  13  17
HETATM   17  N   UNL     1     -42.899  55.125 -52.892  1.00  0.00    -0.326 N 
HETATM   18  C   UNL     1     -41.923  55.263 -51.920  1.00  0.00     0.227 C 
HETATM   19  O   UNL     1     -41.163  56.221 -51.789  1.00  0.00    -0.273 OA
HETATM   20  H   UNL     1     -43.677  54.532 -52.630  1.00  0.00     0.169 HD
BRANCH  18  21
HETATM   21  C   UNL     1     -41.882  54.088 -50.940  1.00  0.00     0.159 C 
BRANCH  21  22
HETATM   22  C   UNL     1     -40.938  53.015 -51.387  1.00  0.00     0.017 A 
HETATM   23  N   UNL     1     -40.408  52.088 -50.515  1.00  0.00    -0.369 N 
HETATM   24  H   UNL     1     -40.636  52.036 -49.525  1.00  0.00     0.165 HD
HETATM   25  C   UNL     1     -39.562  51.250 -51.188  1.00  0.00     0.088 A 
HETATM   26  C   UNL     1     -39.532  51.645 -52.506  1.00  0.00     0.019 A 
HETATM   27  C   UNL     1     -40.397  52.757 -52.633  1.00  0.00     0.027 A 
ENDBRANCH  21  22
ENDBRANCH  18  21
ENDBRANCH  13  17
ENDBRANCH   9  10
ENDBRANCH   1   9
TORSDOF 5
ENDMDL
MODEL 9
REMARK VINA RESULT:      -6.7      2.686      8.647
REMARK  5 active torsions:
REMARK  status: ('A' for Active; 'I' for Inactive)
REMARK    1  A    between atoms: C_3  and  N_4 
REMARK       I    between atoms: N_4  and  C_5 
REMARK    2  A    between atoms: C_5  and  C_6 
REMARK    3  A    between atoms: C_6  and  C_7 
REMARK    4  A    between atoms: C_16  and  O_17 
REMARK    5  A    between atoms: O_17  and  C_18 
ROOT
HETATM    1  C   UNL     1     -43.585  58.944 -58.576  1.00  0.00     0.190 A 
HETATM    2  N   UNL     1     -43.219  60.136 -58.040  1.00  0.00    -0.235 NA
HETATM    3  C   UNL     1     -42.347  60.892 -58.742  1.00  0.00     0.119 A 
HETATM    4  C   UNL     1     -41.799  60.507 -59.954  1.00  0.00     0.021 A 
HETATM    5  C   UNL     1     -42.166  59.270 -60.478  1.00  0.00     0.028 A 
HETATM    6  C   UNL     1     -43.073  58.467 -59.780  1.00  0.00     0.097 A 
HETATM    7  C   UNL     1     -43.443  57.187 -60.295  1.00  0.00     0.104 C 
HETATM    8  N   UNL     1     -43.716  56.149 -60.736  1.00  0.00    -0.191 NA
ENDROOT
BRANCH   1   9
HETATM    9  O   UNL     1     -44.473  58.112 -57.900  1.00  0.00    -0.291 OA
BRANCH   9  10
HETATM   10  C   UNL     1     -44.118  57.543 -56.702  1.00  0.00     0.078 A 
HETATM   11  C   UNL     1     -43.326  56.402 -56.781  1.00  0.00     0.039 A 
HETATM   12  C   UNL     1     -42.990  55.702 -55.620  1.00  0.00     0.033 A 
HETATM   13  C   UNL     1     -43.453  56.113 -54.359  1.00  0.00     0.040 A 
HETATM   14  C   UNL     1     -44.209  57.296 -54.267  1.00  0.00    -0.033 A 
HETATM   15  C   UNL     1     -44.622  57.953 -52.979  1.00  0.00     0.050 C 
HETATM   16  C   UNL     1     -44.580  57.965 -55.457  1.00  0.00     0.046 A 
BRANCH  13  17
HETATM   17  N   UNL     1     -43.063  55.289 -53.278  1.00  0.00    -0.326 N 
HETATM   18  C   UNL     1     -41.927  55.413 -52.497  1.00  0.00     0.227 C 
HETATM   19  O   UNL     1     -41.117  56.337 -52.541  1.00  0.00    -0.273 OA
HETATM   20  H   UNL     1     -43.807  54.743 -52.859  1.00  0.00     0.169 HD
BRANCH  18  21
HETATM   21  C   UNL     1     -41.763  54.273 -51.489  1.00  0.00     0.159 C 
BRANCH  21  22
HETATM   22  C   UNL     1     -40.833  53.210 -51.988  1.00  0.00     0.017 A 
HETATM   23  N   UNL     1     -40.757  52.862 -53.319  1.00  0.00    -0.369 N 
HETATM   24  H   UNL     1     -41.287  53.312 -54.061  1.00  0.00     0.165 HD
HETATM   25  C   UNL     1     -39.850  51.850 -53.482  1.00  0.00     0.088 A 
HETATM   26  C   UNL     1     -39.345  51.530 -52.243  1.00  0.00     0.019 A 
HETATM   27  C   UNL     1     -39.963  52.384 -51.300  1.00  0.00     0.027 A 
ENDBRANCH  21  22
ENDBRANCH  18  21
ENDBRANCH  13  17
ENDBRANCH   9  10
ENDBRANCH   1   9
TORSDOF 5
ENDMDL
MODEL 10
REMARK VINA RESULT:      -6.6      2.815      3.214
REMARK  5 active torsions:
REMARK  status: ('A' for Active; 'I' for Inactive)
REMARK    1  A    between atoms: C_3  and  N_4 
REMARK       I    between atoms: N_4  and  C_5 
REMARK    2  A    between atoms: C_5  and  C_6 
REMARK    3  A    between atoms: C_6  and  C_7 
REMARK    4  A    between atoms: C_16  and  O_17 
REMARK    5  A    between atoms: O_17  and  C_18 
ROOT
HETATM    1  C   UNL     1     -41.928  54.025 -51.103  1.00  0.00     0.190 A 
HETATM    2  N   UNL     1     -42.210  54.622 -49.917  1.00  0.00    -0.235 NA
HETATM    3  C   UNL     1     -41.206  54.726 -49.020  1.00  0.00     0.119 A 
HETATM    4  C   UNL     1     -39.927  54.242 -49.238  1.00  0.00     0.021 A 
HETATM    5  C   UNL     1     -39.662  53.610 -50.450  1.00  0.00     0.028 A 
HETATM    6  C   UNL     1     -40.677  53.493 -51.404  1.00  0.00     0.097 A 
HETATM    7  C   UNL     1     -40.425  52.829 -52.643  1.00  0.00     0.104 C 
HETATM    8  N   UNL     1     -40.191  52.276 -53.637  1.00  0.00    -0.191 NA
ENDROOT
BRANCH   1   9
HETATM    9  O   UNL     1     -42.920  53.878 -52.069  1.00  0.00    -0.291 OA
BRANCH   9  10
HETATM   10  C   UNL     1     -43.217  54.910 -52.924  1.00  0.00     0.078 A 
HETATM   11  C   UNL     1     -43.019  54.656 -54.277  1.00  0.00     0.039 A 
HETATM   12  C   UNL     1     -43.208  55.673 -55.215  1.00  0.00     0.033 A 
HETATM   13  C   UNL     1     -43.577  56.971 -54.822  1.00  0.00     0.040 A 
HETATM   14  C   UNL     1     -43.831  57.220 -53.460  1.00  0.00    -0.033 A 
HETATM   15  C   UNL     1     -44.400  58.500 -52.913  1.00  0.00     0.050 C 
HETATM   16  C   UNL     1     -43.589  56.191 -52.520  1.00  0.00     0.046 A 
BRANCH  13  17
HETATM   17  N   UNL     1     -43.697  57.907 -55.875  1.00  0.00    -0.326 N 
HETATM   18  C   UNL     1     -42.823  58.934 -56.187  1.00  0.00     0.227 C 
HETATM   19  O   UNL     1     -41.728  59.135 -55.665  1.00  0.00    -0.273 OA
HETATM   20  H   UNL     1     -44.315  57.632 -56.629  1.00  0.00     0.169 HD
BRANCH  18  21
HETATM   21  C   UNL     1     -43.329  59.829 -57.321  1.00  0.00     0.159 C 
BRANCH  21  22
HETATM   22  C   UNL     1     -42.849  59.364 -58.662  1.00  0.00     0.017 A 
HETATM   23  N   UNL     1     -42.054  58.249 -58.815  1.00  0.00    -0.369 N 
HETATM   24  H   UNL     1     -41.764  57.642 -58.052  1.00  0.00     0.165 HD
HETATM   25  C   UNL     1     -41.746  58.077 -60.137  1.00  0.00     0.088 A 
HETATM   26  C   UNL     1     -42.334  59.099 -60.846  1.00  0.00     0.019 A 
HETATM   27  C   UNL     1     -43.029  59.912 -59.919  1.00  0.00     0.027 A 
ENDBRANCH  21  22
ENDBRANCH  18  21
ENDBRANCH  13  17
ENDBRANCH   9  10
ENDBRANCH   1   9
TORSDOF 5
ENDMDL
