MODEL 1
REMARK VINA RESULT:      -7.9      0.000      0.000
REMARK  3 active torsions:
REMARK  status: ('A' for Active; 'I' for Inactive)
REMARK    1  A    between atoms: C_4  and  N_5 
REMARK       I    between atoms: N_5  and  C_6 
REMARK    2  A    between atoms: C_6  and  C_7 
REMARK    3  A    between atoms: C_7  and  C_8 
ROOT
HETATM    1  C   UNL     1     -43.564  55.764 -53.265  1.00  0.00     0.286 C 
HETATM    2  N   UNL     1     -42.733  57.036 -53.383  1.00  0.00    -0.056 N 
HETATM    3  H   UNL     1     -41.742  56.719 -53.426  1.00  0.00     0.278 HD
HETATM    4  H   UNL     1     -42.922  57.512 -54.272  1.00  0.00     0.278 HD
HETATM    5  C   UNL     1     -42.942  57.959 -52.208  1.00  0.00     0.209 C 
HETATM    6  C   UNL     1     -42.549  57.216 -50.905  1.00  0.00     0.115 C 
HETATM    7  N   UNL     1     -43.171  55.893 -50.813  1.00  0.00    -0.353 N 
HETATM    8  C   UNL     1     -43.416  55.075 -51.891  1.00  0.00     0.249 C 
HETATM    9  O   UNL     1     -43.612  53.877 -51.726  1.00  0.00    -0.271 OA
HETATM   10  C   UNL     1     -42.149  59.246 -52.429  1.00  0.00     0.035 C 
HETATM   11  C   UNL     1     -40.644  59.064 -52.256  1.00  0.00     0.002 C 
HETATM   12  C   UNL     1     -40.315  58.422 -50.914  1.00  0.00     0.002 C 
HETATM   13  C   UNL     1     -41.028  57.087 -50.740  1.00  0.00     0.027 C 
HETATM   14  H   UNL     1     -43.096  55.388 -49.932  1.00  0.00     0.163 HD
ENDROOT
BRANCH   1  15
HETATM   15  C   UNL     1     -43.274  54.802 -54.422  1.00  0.00     0.146 C 
BRANCH  15  16
HETATM   16  C   UNL     1     -41.995  55.183 -55.124  1.00  0.00     0.224 C 
HETATM   17  N   UNL     1     -40.806  54.598 -54.829  1.00  0.00    -0.327 N 
HETATM   18  H   UNL     1     -40.024  55.077 -55.266  1.00  0.00     0.169 HD
HETATM   19  O   UNL     1     -42.047  56.048 -56.009  1.00  0.00    -0.273 OA
BRANCH  17  20
HETATM   20  C   UNL     1     -40.450  53.492 -54.029  1.00  0.00     0.035 A 
HETATM   21  C   UNL     1     -40.189  52.206 -54.507  1.00  0.00     0.036 A 
HETATM   22  C   UNL     1     -39.831  51.166 -53.631  1.00  0.00    -0.060 A 
HETATM   23  C   UNL     1     -39.515  49.795 -54.156  1.00  0.00     0.048 C 
HETATM   24  C   UNL     1     -39.700  51.434 -52.266  1.00  0.00     0.007 A 
HETATM   25  C   UNL     1     -39.933  52.717 -51.781  1.00  0.00     0.003 A 
HETATM   26  C   UNL     1     -40.298  53.739 -52.658  1.00  0.00     0.029 A 
ENDBRANCH  17  20
ENDBRANCH  15  16
ENDBRANCH   1  15
TORSDOF 3
ENDMDL
MODEL 2
REMARK VINA RESULT:      -7.8     14.344     16.764
REMARK  3 active torsions:
REMARK  status: ('A' for Active; 'I' for Inactive)
REMARK    1  A    between atoms: C_4  and  N_5 
REMARK       I    between atoms: N_5  and  C_6 
REMARK    2  A    between atoms: C_6  and  C_7 
REMARK    3  A    between atoms: C_7  and  C_8 
ROOT
HETATM    1  C   UNL     1     -34.161  40.538 -54.421  1.00  0.00     0.286 C 
HETATM    2  N   UNL     1     -34.532  40.440 -52.946  1.00  0.00    -0.056 N 
HETATM    3  H   UNL     1     -34.091  41.268 -52.491  1.00  0.00     0.278 HD
HETATM    4  H   UNL     1     -35.544  40.547 -52.818  1.00  0.00     0.278 HD
HETATM    5  C   UNL     1     -34.029  39.163 -52.320  1.00  0.00     0.209 C 
HETATM    6  C   UNL     1     -32.485  39.105 -52.460  1.00  0.00     0.115 C 
HETATM    7  N   UNL     1     -32.043  39.379 -53.829  1.00  0.00    -0.353 N 
HETATM    8  C   UNL     1     -32.666  40.256 -54.685  1.00  0.00     0.249 C 
HETATM    9  O   UNL     1     -32.072  40.692 -55.663  1.00  0.00    -0.271 OA
HETATM   10  C   UNL     1     -34.505  39.089 -50.870  1.00  0.00     0.035 C 
HETATM   11  C   UNL     1     -33.768  40.052 -49.944  1.00  0.00     0.002 C 
HETATM   12  C   UNL     1     -32.258  39.877 -50.051  1.00  0.00     0.002 C 
HETATM   13  C   UNL     1     -31.773  40.054 -51.486  1.00  0.00     0.027 C 
HETATM   14  H   UNL     1     -31.063  39.219 -54.057  1.00  0.00     0.163 HD
ENDROOT
BRANCH   1  15
HETATM   15  C   UNL     1     -34.605  41.879 -55.017  1.00  0.00     0.146 C 
BRANCH  15  16
HETATM   16  C   UNL     1     -35.953  42.282 -54.476  1.00  0.00     0.224 C 
HETATM   17  N   UNL     1     -37.086  42.194 -55.220  1.00  0.00    -0.327 N 
HETATM   18  H   UNL     1     -37.874  42.655 -54.774  1.00  0.00     0.169 HD
HETATM   19  O   UNL     1     -36.020  42.691 -53.309  1.00  0.00    -0.273 OA
BRANCH  17  20
HETATM   20  C   UNL     1     -37.371  41.620 -56.476  1.00  0.00     0.035 A 
HETATM   21  C   UNL     1     -37.224  42.266 -57.706  1.00  0.00     0.036 A 
HETATM   22  C   UNL     1     -37.526  41.606 -58.911  1.00  0.00    -0.060 A 
HETATM   23  C   UNL     1     -37.330  42.294 -60.232  1.00  0.00     0.048 C 
HETATM   24  C   UNL     1     -37.945  40.274 -58.878  1.00  0.00     0.007 A 
HETATM   25  C   UNL     1     -38.070  39.612 -57.661  1.00  0.00     0.003 A 
HETATM   26  C   UNL     1     -37.778  40.280 -56.470  1.00  0.00     0.029 A 
ENDBRANCH  17  20
ENDBRANCH  15  16
ENDBRANCH   1  15
TORSDOF 3
ENDMDL
MODEL 3
REMARK VINA RESULT:      -7.6      1.655      2.601
REMARK  3 active torsions:
REMARK  status: ('A' for Active; 'I' for Inactive)
REMARK    1  A    between atoms: C_4  and  N_5 
REMARK       I    between atoms: N_5  and  C_6 
REMARK    2  A    between atoms: C_6  and  C_7 
REMARK    3  A    between atoms: C_7  and  C_8 
ROOT
HETATM    1  C   UNL     1     -43.606  54.659 -54.197  1.00  0.00     0.286 C 
HETATM    2  N   UNL     1     -43.797  55.951 -54.984  1.00  0.00    -0.056 N 
HETATM    3  H   UNL     1     -42.855  56.394 -55.027  1.00  0.00     0.278 HD
HETATM    4  H   UNL     1     -44.065  55.749 -55.953  1.00  0.00     0.278 HD
HETATM    5  C   UNL     1     -44.787  56.875 -54.319  1.00  0.00     0.209 C 
HETATM    6  C   UNL     1     -44.279  57.219 -52.895  1.00  0.00     0.115 C 
HETATM    7  N   UNL     1     -43.896  56.024 -52.140  1.00  0.00    -0.353 N 
HETATM    8  C   UNL     1     -43.328  54.904 -52.698  1.00  0.00     0.249 C 
HETATM    9  O   UNL     1     -42.728  54.099 -51.995  1.00  0.00    -0.271 OA
HETATM   10  C   UNL     1     -44.995  58.108 -55.198  1.00  0.00     0.035 C 
HETATM   11  C   UNL     1     -43.808  59.066 -55.184  1.00  0.00     0.002 C 
HETATM   12  C   UNL     1     -43.421  59.447 -53.760  1.00  0.00     0.002 C 
HETATM   13  C   UNL     1     -43.113  58.217 -52.913  1.00  0.00     0.027 C 
HETATM   14  H   UNL     1     -43.691  56.129 -51.148  1.00  0.00     0.163 HD
ENDROOT
BRANCH   1  15
HETATM   15  C   UNL     1     -42.535  53.771 -54.841  1.00  0.00     0.146 C 
BRANCH  15  16
HETATM   16  C   UNL     1     -41.165  54.377 -54.668  1.00  0.00     0.224 C 
HETATM   17  N   UNL     1     -40.146  53.702 -54.076  1.00  0.00    -0.327 N 
HETATM   18  H   UNL     1     -39.347  54.302 -53.889  1.00  0.00     0.169 HD
HETATM   19  O   UNL     1     -40.971  55.522 -55.098  1.00  0.00    -0.273 OA
BRANCH  17  20
HETATM   20  C   UNL     1     -39.992  52.365 -53.657  1.00  0.00     0.035 A 
HETATM   21  C   UNL     1     -39.911  51.944 -52.328  1.00  0.00     0.036 A 
HETATM   22  C   UNL     1     -39.766  50.582 -52.007  1.00  0.00    -0.060 A 
HETATM   23  C   UNL     1     -39.718  50.133 -50.574  1.00  0.00     0.048 C 
HETATM   24  C   UNL     1     -39.739  49.634 -53.033  1.00  0.00     0.007 A 
HETATM   25  C   UNL     1     -39.845  50.039 -54.359  1.00  0.00     0.003 A 
HETATM   26  C   UNL     1     -39.977  51.394 -54.667  1.00  0.00     0.029 A 
ENDBRANCH  17  20
ENDBRANCH  15  16
ENDBRANCH   1  15
TORSDOF 3
ENDMDL
MODEL 4
REMARK VINA RESULT:      -7.2      2.088      3.388
REMARK  3 active torsions:
REMARK  status: ('A' for Active; 'I' for Inactive)
REMARK    1  A    between atoms: C_4  and  N_5 
REMARK       I    between atoms: N_5  and  C_6 
REMARK    2  A    between atoms: C_6  and  C_7 
REMARK    3  A    between atoms: C_7  and  C_8 
ROOT
HETATM    1  C   UNL     1     -42.141  55.242 -53.552  1.00  0.00     0.286 C 
HETATM    2  N   UNL     1     -42.457  56.655 -53.077  1.00  0.00    -0.056 N 
HETATM    3  H   UNL     1     -43.401  56.598 -52.639  1.00  0.00     0.278 HD
HETATM    4  H   UNL     1     -41.812  56.941 -52.333  1.00  0.00     0.278 HD
HETATM    5  C   UNL     1     -42.462  57.645 -54.215  1.00  0.00     0.209 C 
HETATM    6  C   UNL     1     -43.524  57.211 -55.259  1.00  0.00     0.115 C 
HETATM    7  N   UNL     1     -43.395  55.799 -55.624  1.00  0.00    -0.353 N 
HETATM    8  C   UNL     1     -42.999  54.807 -54.759  1.00  0.00     0.249 C 
HETATM    9  O   UNL     1     -43.236  53.632 -55.015  1.00  0.00    -0.271 OA
HETATM   10  C   UNL     1     -42.701  59.050 -53.661  1.00  0.00     0.035 C 
HETATM   11  C   UNL     1     -44.139  59.282 -53.208  1.00  0.00     0.002 C 
HETATM   12  C   UNL     1     -45.131  58.934 -54.311  1.00  0.00     0.002 C 
HETATM   13  C   UNL     1     -44.957  57.497 -54.790  1.00  0.00     0.027 C 
HETATM   14  H   UNL     1     -43.946  55.455 -56.409  1.00  0.00     0.163 HD
ENDROOT
BRANCH   1  15
HETATM   15  C   UNL     1     -42.225  54.237 -52.397  1.00  0.00     0.146 C 
BRANCH  15  16
HETATM   16  C   UNL     1     -41.100  54.455 -51.417  1.00  0.00     0.224 C 
HETATM   17  N   UNL     1     -40.263  53.454 -51.043  1.00  0.00    -0.327 N 
HETATM   18  H   UNL     1     -39.672  53.721 -50.260  1.00  0.00     0.169 HD
HETATM   19  O   UNL     1     -40.935  55.593 -50.957  1.00  0.00    -0.273 OA
BRANCH  17  20
HETATM   20  C   UNL     1     -40.074  52.135 -51.502  1.00  0.00     0.035 A 
HETATM   21  C   UNL     1     -39.865  51.769 -52.834  1.00  0.00     0.036 A 
HETATM   22  C   UNL     1     -39.677  50.424 -53.195  1.00  0.00    -0.060 A 
HETATM   23  C   UNL     1     -39.414  50.043 -54.624  1.00  0.00     0.048 C 
HETATM   24  C   UNL     1     -39.665  49.441 -52.202  1.00  0.00     0.007 A 
HETATM   25  C   UNL     1     -39.847  49.795 -50.869  1.00  0.00     0.003 A 
HETATM   26  C   UNL     1     -40.044  51.133 -50.523  1.00  0.00     0.029 A 
ENDBRANCH  17  20
ENDBRANCH  15  16
ENDBRANCH   1  15
TORSDOF 3
ENDMDL
MODEL 5
REMARK VINA RESULT:      -7.1     14.617     16.951
REMARK  3 active torsions:
REMARK  status: ('A' for Active; 'I' for Inactive)
REMARK    1  A    between atoms: C_4  and  N_5 
REMARK       I    between atoms: N_5  and  C_6 
REMARK    2  A    between atoms: C_6  and  C_7 
REMARK    3  A    between atoms: C_7  and  C_8 
ROOT
HETATM    1  C   UNL     1     -35.129  40.572 -54.143  1.00  0.00     0.286 C 
HETATM    2  N   UNL     1     -34.310  40.027 -55.306  1.00  0.00    -0.056 N 
HETATM    3  H   UNL     1     -34.258  38.997 -55.153  1.00  0.00     0.278 HD
HETATM    4  H   UNL     1     -34.807  40.160 -56.194  1.00  0.00     0.278 HD
HETATM    5  C   UNL     1     -32.927  40.625 -55.353  1.00  0.00     0.209 C 
HETATM    6  C   UNL     1     -32.193  40.307 -54.024  1.00  0.00     0.115 C 
HETATM    7  N   UNL     1     -33.006  40.636 -52.851  1.00  0.00    -0.353 N 
HETATM    8  C   UNL     1     -34.375  40.514 -52.797  1.00  0.00     0.249 C 
HETATM    9  O   UNL     1     -34.949  40.472 -51.716  1.00  0.00    -0.271 OA
HETATM   10  C   UNL     1     -32.191  40.102 -56.586  1.00  0.00     0.035 C 
HETATM   11  C   UNL     1     -31.758  38.645 -56.456  1.00  0.00     0.002 C 
HETATM   12  C   UNL     1     -30.955  38.417 -55.181  1.00  0.00     0.002 C 
HETATM   13  C   UNL     1     -31.734  38.845 -53.943  1.00  0.00     0.027 C 
HETATM   14  H   UNL     1     -32.562  40.605 -51.935  1.00  0.00     0.163 HD
ENDROOT
BRANCH   1  15
HETATM   15  C   UNL     1     -36.500  39.890 -54.061  1.00  0.00     0.146 C 
BRANCH  15  16
HETATM   16  C   UNL     1     -37.604  40.916 -54.014  1.00  0.00     0.224 C 
HETATM   17  N   UNL     1     -38.079  41.518 -55.135  1.00  0.00    -0.327 N 
HETATM   18  H   UNL     1     -38.697  42.295 -54.920  1.00  0.00     0.169 HD
HETATM   19  O   UNL     1     -38.097  41.198 -52.914  1.00  0.00    -0.273 OA
BRANCH  17  20
HETATM   20  C   UNL     1     -37.866  41.295 -56.511  1.00  0.00     0.035 A 
HETATM   21  C   UNL     1     -38.388  40.226 -57.242  1.00  0.00     0.036 A 
HETATM   22  C   UNL     1     -38.128  40.093 -58.618  1.00  0.00    -0.060 A 
HETATM   23  C   UNL     1     -38.724  38.961 -59.405  1.00  0.00     0.048 C 
HETATM   24  C   UNL     1     -37.364  41.065 -59.269  1.00  0.00     0.007 A 
HETATM   25  C   UNL     1     -36.860  42.148 -58.557  1.00  0.00     0.003 A 
HETATM   26  C   UNL     1     -37.116  42.264 -57.189  1.00  0.00     0.029 A 
ENDBRANCH  17  20
ENDBRANCH  15  16
ENDBRANCH   1  15
TORSDOF 3
ENDMDL
MODEL 6
REMARK VINA RESULT:      -7.1      3.463      5.437
REMARK  3 active torsions:
REMARK  status: ('A' for Active; 'I' for Inactive)
REMARK    1  A    between atoms: C_4  and  N_5 
REMARK       I    between atoms: N_5  and  C_6 
REMARK    2  A    between atoms: C_6  and  C_7 
REMARK    3  A    between atoms: C_7  and  C_8 
ROOT
HETATM    1  C   UNL     1     -43.272  58.091 -55.638  1.00  0.00     0.286 C 
HETATM    2  N   UNL     1     -43.647  57.266 -56.863  1.00  0.00    -0.056 N 
HETATM    3  H   UNL     1     -42.815  56.673 -57.066  1.00  0.00     0.278 HD
HETATM    4  H   UNL     1     -44.414  56.620 -56.645  1.00  0.00     0.278 HD
HETATM    5  C   UNL     1     -43.980  58.136 -58.049  1.00  0.00     0.209 C 
HETATM    6  C   UNL     1     -42.751  59.018 -58.390  1.00  0.00     0.115 C 
HETATM    7  N   UNL     1     -42.217  59.702 -57.210  1.00  0.00    -0.353 N 
HETATM    8  C   UNL     1     -42.210  59.170 -55.942  1.00  0.00     0.249 C 
HETATM    9  O   UNL     1     -41.463  59.625 -55.085  1.00  0.00    -0.271 OA
HETATM   10  C   UNL     1     -44.427  57.253 -59.214  1.00  0.00     0.035 C 
HETATM   11  C   UNL     1     -43.280  56.484 -59.863  1.00  0.00     0.002 C 
HETATM   12  C   UNL     1     -42.146  57.419 -60.267  1.00  0.00     0.002 C 
HETATM   13  C   UNL     1     -41.632  58.225 -59.080  1.00  0.00     0.027 C 
HETATM   14  H   UNL     1     -41.506  60.418 -57.351  1.00  0.00     0.163 HD
ENDROOT
BRANCH   1  15
HETATM   15  C   UNL     1     -42.855  57.191 -54.469  1.00  0.00     0.146 C 
BRANCH  15  16
HETATM   16  C   UNL     1     -43.968  56.242 -54.104  1.00  0.00     0.224 C 
HETATM   17  N   UNL     1     -43.731  54.955 -53.742  1.00  0.00    -0.327 N 
HETATM   18  H   UNL     1     -44.586  54.408 -53.689  1.00  0.00     0.169 HD
HETATM   19  O   UNL     1     -45.131  56.666 -54.122  1.00  0.00    -0.273 OA
BRANCH  17  20
HETATM   20  C   UNL     1     -42.551  54.237 -53.455  1.00  0.00     0.035 A 
HETATM   21  C   UNL     1     -41.969  54.119 -52.191  1.00  0.00     0.036 A 
HETATM   22  C   UNL     1     -40.793  53.372 -52.002  1.00  0.00    -0.060 A 
HETATM   23  C   UNL     1     -40.194  53.218 -50.633  1.00  0.00     0.048 C 
HETATM   24  C   UNL     1     -40.219  52.709 -53.089  1.00  0.00     0.007 A 
HETATM   25  C   UNL     1     -40.803  52.798 -54.348  1.00  0.00     0.003 A 
HETATM   26  C   UNL     1     -41.964  53.551 -54.527  1.00  0.00     0.029 A 
ENDBRANCH  17  20
ENDBRANCH  15  16
ENDBRANCH   1  15
TORSDOF 3
ENDMDL
MODEL 7
REMARK VINA RESULT:      -6.9      1.718      2.952
REMARK  3 active torsions:
REMARK  status: ('A' for Active; 'I' for Inactive)
REMARK    1  A    between atoms: C_4  and  N_5 
REMARK       I    between atoms: N_5  and  C_6 
REMARK    2  A    between atoms: C_6  and  C_7 
REMARK    3  A    between atoms: C_7  and  C_8 
ROOT
HETATM    1  C   UNL     1     -41.462  57.163 -54.787  1.00  0.00     0.286 C 
HETATM    2  N   UNL     1     -41.154  57.413 -53.315  1.00  0.00    -0.056 N 
HETATM    3  H   UNL     1     -42.064  57.317 -52.818  1.00  0.00     0.278 HD
HETATM    4  H   UNL     1     -40.545  56.676 -52.942  1.00  0.00     0.278 HD
HETATM    5  C   UNL     1     -40.567  58.783 -53.085  1.00  0.00     0.209 C 
HETATM    6  C   UNL     1     -41.573  59.854 -53.580  1.00  0.00     0.115 C 
HETATM    7  N   UNL     1     -42.060  59.572 -54.932  1.00  0.00    -0.353 N 
HETATM    8  C   UNL     1     -42.271  58.309 -55.434  1.00  0.00     0.249 C 
HETATM    9  O   UNL     1     -42.985  58.145 -56.416  1.00  0.00    -0.271 OA
HETATM   10  C   UNL     1     -40.203  58.936 -51.609  1.00  0.00     0.035 C 
HETATM   11  C   UNL     1     -41.420  59.100 -50.703  1.00  0.00     0.002 C 
HETATM   12  C   UNL     1     -42.318  60.234 -51.183  1.00  0.00     0.002 C 
HETATM   13  C   UNL     1     -42.763  60.025 -52.626  1.00  0.00     0.027 C 
HETATM   14  H   UNL     1     -42.608  60.290 -55.404  1.00  0.00     0.163 HD
ENDROOT
BRANCH   1  15
HETATM   15  C   UNL     1     -42.136  55.802 -54.989  1.00  0.00     0.146 C 
BRANCH  15  16
HETATM   16  C   UNL     1     -43.060  55.488 -53.840  1.00  0.00     0.224 C 
HETATM   17  N   UNL     1     -42.831  54.453 -52.991  1.00  0.00    -0.327 N 
HETATM   18  H   UNL     1     -43.624  54.276 -52.380  1.00  0.00     0.169 HD
HETATM   19  O   UNL     1     -44.047  56.214 -53.665  1.00  0.00    -0.273 OA
BRANCH  17  20
HETATM   20  C   UNL     1     -41.741  53.578 -52.811  1.00  0.00     0.035 A 
HETATM   21  C   UNL     1     -41.339  52.597 -53.721  1.00  0.00     0.036 A 
HETATM   22  C   UNL     1     -40.229  51.775 -53.457  1.00  0.00    -0.060 A 
HETATM   23  C   UNL     1     -39.780  50.748 -54.457  1.00  0.00     0.048 C 
HETATM   24  C   UNL     1     -39.497  51.967 -52.283  1.00  0.00     0.007 A 
HETATM   25  C   UNL     1     -39.871  52.957 -51.381  1.00  0.00     0.003 A 
HETATM   26  C   UNL     1     -40.981  53.760 -51.648  1.00  0.00     0.029 A 
ENDBRANCH  17  20
ENDBRANCH  15  16
ENDBRANCH   1  15
TORSDOF 3
ENDMDL
MODEL 8
REMARK VINA RESULT:      -6.9      1.717      2.677
REMARK  3 active torsions:
REMARK  status: ('A' for Active; 'I' for Inactive)
REMARK    1  A    between atoms: C_4  and  N_5 
REMARK       I    between atoms: N_5  and  C_6 
REMARK    2  A    between atoms: C_6  and  C_7 
REMARK    3  A    between atoms: C_7  and  C_8 
ROOT
HETATM    1  C   UNL     1     -42.382  57.013 -54.044  1.00  0.00     0.286 C 
HETATM    2  N   UNL     1     -41.299  57.338 -53.021  1.00  0.00    -0.056 N 
HETATM    3  H   UNL     1     -41.715  57.115 -52.093  1.00  0.00     0.278 HD
HETATM    4  H   UNL     1     -40.495  56.712 -53.134  1.00  0.00     0.278 HD
HETATM    5  C   UNL     1     -40.884  58.787 -53.081  1.00  0.00     0.209 C 
HETATM    6  C   UNL     1     -42.122  59.680 -52.808  1.00  0.00     0.115 C 
HETATM    7  N   UNL     1     -43.271  59.298 -53.631  1.00  0.00    -0.353 N 
HETATM    8  C   UNL     1     -43.563  58.007 -54.005  1.00  0.00     0.249 C 
HETATM    9  O   UNL     1     -44.690  57.714 -54.387  1.00  0.00    -0.271 OA
HETATM   10  C   UNL     1     -39.741  59.025 -52.094  1.00  0.00     0.035 C 
HETATM   11  C   UNL     1     -40.193  59.021 -50.637  1.00  0.00     0.002 C 
HETATM   12  C   UNL     1     -41.345  59.993 -50.411  1.00  0.00     0.002 C 
HETATM   13  C   UNL     1     -42.525  59.688 -51.327  1.00  0.00     0.027 C 
HETATM   14  H   UNL     1     -44.083  59.913 -53.636  1.00  0.00     0.163 HD
ENDROOT
BRANCH   1  15
HETATM   15  C   UNL     1     -42.853  55.560 -53.911  1.00  0.00     0.146 C 
BRANCH  15  16
HETATM   16  C   UNL     1     -42.421  54.749 -55.106  1.00  0.00     0.224 C 
HETATM   17  N   UNL     1     -41.475  53.778 -55.018  1.00  0.00    -0.327 N 
HETATM   18  H   UNL     1     -41.183  53.444 -55.932  1.00  0.00     0.169 HD
HETATM   19  O   UNL     1     -42.967  54.973 -56.195  1.00  0.00    -0.273 OA
BRANCH  17  20
HETATM   20  C   UNL     1     -40.815  53.174 -53.929  1.00  0.00     0.035 A 
HETATM   21  C   UNL     1     -40.688  53.733 -52.655  1.00  0.00     0.036 A 
HETATM   22  C   UNL     1     -40.017  53.047 -51.627  1.00  0.00    -0.060 A 
HETATM   23  C   UNL     1     -39.917  53.638 -50.250  1.00  0.00     0.048 C 
HETATM   24  C   UNL     1     -39.501  51.773 -51.874  1.00  0.00     0.007 A 
HETATM   25  C   UNL     1     -39.644  51.194 -53.131  1.00  0.00     0.003 A 
HETATM   26  C   UNL     1     -40.302  51.888 -54.148  1.00  0.00     0.029 A 
ENDBRANCH  17  20
ENDBRANCH  15  16
ENDBRANCH   1  15
TORSDOF 3
ENDMDL
MODEL 9
REMARK VINA RESULT:      -6.8      2.704      4.387
REMARK  3 active torsions:
REMARK  status: ('A' for Active; 'I' for Inactive)
REMARK    1  A    between atoms: C_4  and  N_5 
REMARK       I    between atoms: N_5  and  C_6 
REMARK    2  A    between atoms: C_6  and  C_7 
REMARK    3  A    between atoms: C_7  and  C_8 
ROOT
HETATM    1  C   UNL     1     -42.489  58.469 -53.006  1.00  0.00     0.286 C 
HETATM    2  N   UNL     1     -43.591  58.084 -53.987  1.00  0.00    -0.056 N 
HETATM    3  H   UNL     1     -43.160  57.388 -54.632  1.00  0.00     0.278 HD
HETATM    4  H   UNL     1     -44.353  57.596 -53.504  1.00  0.00     0.278 HD
HETATM    5  C   UNL     1     -44.100  59.275 -54.759  1.00  0.00     0.209 C 
HETATM    6  C   UNL     1     -42.923  59.911 -55.543  1.00  0.00     0.115 C 
HETATM    7  N   UNL     1     -41.751  60.138 -54.695  1.00  0.00    -0.353 N 
HETATM    8  C   UNL     1     -41.375  59.318 -53.656  1.00  0.00     0.249 C 
HETATM    9  O   UNL     1     -40.233  59.362 -53.217  1.00  0.00    -0.271 OA
HETATM   10  C   UNL     1     -45.255  58.837 -55.660  1.00  0.00     0.035 C 
HETATM   11  C   UNL     1     -44.803  58.016 -56.863  1.00  0.00     0.002 C 
HETATM   12  C   UNL     1     -43.717  58.738 -57.651  1.00  0.00     0.002 C 
HETATM   13  C   UNL     1     -42.521  59.082 -56.772  1.00  0.00     0.027 C 
HETATM   14  H   UNL     1     -40.981  60.685 -55.076  1.00  0.00     0.163 HD
ENDROOT
BRANCH   1  15
HETATM   15  C   UNL     1     -41.925  57.234 -52.294  1.00  0.00     0.146 C 
BRANCH  15  16
HETATM   16  C   UNL     1     -43.038  56.315 -51.858  1.00  0.00     0.224 C 
HETATM   17  N   UNL     1     -43.031  54.987 -52.140  1.00  0.00    -0.327 N 
HETATM   18  H   UNL     1     -43.920  54.544 -51.925  1.00  0.00     0.169 HD
HETATM   19  O   UNL     1     -43.976  56.796 -51.208  1.00  0.00    -0.273 OA
BRANCH  17  20
HETATM   20  C   UNL     1     -42.058  54.124 -52.685  1.00  0.00     0.035 A 
HETATM   21  C   UNL     1     -41.158  53.356 -51.942  1.00  0.00     0.036 A 
HETATM   22  C   UNL     1     -40.227  52.515 -52.577  1.00  0.00    -0.060 A 
HETATM   23  C   UNL     1     -39.288  51.664 -51.771  1.00  0.00     0.048 C 
HETATM   24  C   UNL     1     -40.227  52.420 -53.971  1.00  0.00     0.007 A 
HETATM   25  C   UNL     1     -41.135  53.159 -54.720  1.00  0.00     0.003 A 
HETATM   26  C   UNL     1     -42.048  54.000 -54.081  1.00  0.00     0.029 A 
ENDBRANCH  17  20
ENDBRANCH  15  16
ENDBRANCH   1  15
TORSDOF 3
ENDMDL
MODEL 10
REMARK VINA RESULT:      -6.8      2.551      3.906
REMARK  3 active torsions:
REMARK  status: ('A' for Active; 'I' for Inactive)
REMARK    1  A    between atoms: C_4  and  N_5 
REMARK       I    between atoms: N_5  and  C_6 
REMARK    2  A    between atoms: C_6  and  C_7 
REMARK    3  A    between atoms: C_7  and  C_8 
ROOT
HETATM    1  C   UNL     1     -42.892  58.294 -53.142  1.00  0.00     0.286 C 
HETATM    2  N   UNL     1     -44.249  58.627 -52.533  1.00  0.00    -0.056 N 
HETATM    3  H   UNL     1     -44.713  59.264 -53.214  1.00  0.00     0.278 HD
HETATM    4  H   UNL     1     -44.838  57.788 -52.478  1.00  0.00     0.278 HD
HETATM    5  C   UNL     1     -44.116  59.296 -51.188  1.00  0.00     0.209 C 
HETATM    6  C   UNL     1     -43.301  60.605 -51.354  1.00  0.00     0.115 C 
HETATM    7  N   UNL     1     -42.060  60.393 -52.101  1.00  0.00    -0.353 N 
HETATM    8  C   UNL     1     -41.919  59.493 -53.131  1.00  0.00     0.249 C 
HETATM    9  O   UNL     1     -40.991  59.600 -53.924  1.00  0.00    -0.271 OA
HETATM   10  C   UNL     1     -45.508  59.525 -50.598  1.00  0.00     0.035 C 
HETATM   11  C   UNL     1     -46.278  60.646 -51.288  1.00  0.00     0.002 C 
HETATM   12  C   UNL     1     -45.465  61.934 -51.329  1.00  0.00     0.002 C 
HETATM   13  C   UNL     1     -44.118  61.726 -52.012  1.00  0.00     0.027 C 
HETATM   14  H   UNL     1     -41.384  61.155 -52.136  1.00  0.00     0.163 HD
ENDROOT
BRANCH   1  15
HETATM   15  C   UNL     1     -43.045  57.693 -54.544  1.00  0.00     0.146 C 
BRANCH  15  16
HETATM   16  C   UNL     1     -44.254  56.794 -54.610  1.00  0.00     0.224 C 
HETATM   17  N   UNL     1     -44.197  55.481 -54.271  1.00  0.00    -0.327 N 
HETATM   18  H   UNL     1     -45.046  54.983 -54.526  1.00  0.00     0.169 HD
HETATM   19  O   UNL     1     -45.331  57.286 -54.971  1.00  0.00    -0.273 OA
BRANCH  17  20
HETATM   20  C   UNL     1     -43.203  54.684 -53.668  1.00  0.00     0.035 A 
HETATM   21  C   UNL     1     -42.224  53.962 -54.357  1.00  0.00     0.036 A 
HETATM   22  C   UNL     1     -41.265  53.201 -53.666  1.00  0.00    -0.060 A 
HETATM   23  C   UNL     1     -40.194  52.458 -54.412  1.00  0.00     0.048 C 
HETATM   24  C   UNL     1     -41.270  53.194 -52.269  1.00  0.00     0.007 A 
HETATM   25  C   UNL     1     -42.223  53.929 -51.572  1.00  0.00     0.003 A 
HETATM   26  C   UNL     1     -43.178  54.673 -52.267  1.00  0.00     0.029 A 
ENDBRANCH  17  20
ENDBRANCH  15  16
ENDBRANCH   1  15
TORSDOF 3
ENDMDL
