MODEL 1
REMARK VINA RESULT:      -8.5      0.000      0.000
REMARK  11 active torsions:
REMARK  status: ('A' for Active; 'I' for Inactive)
REMARK    1  A    between atoms: O_2  and  C_3 
REMARK    2  A    between atoms: C_6  and  C_7 
REMARK    3  A    between atoms: C_7  and  N_8 
REMARK    4  A    between atoms: N_8  and  C_9 
REMARK    5  A    between atoms: N_8  and  C_22 
REMARK    6  A    between atoms: C_9  and  N_10 
REMARK    7  A    between atoms: N_10  and  C_11 
REMARK    8  A    between atoms: C_11  and  C_12 
REMARK    9  A    between atoms: C_12  and  C_13 
REMARK   10  A    between atoms: C_13  and  N_14 
REMARK   11  A    between atoms: C_22  and  C_23 
ROOT
HETATM    1  N   UNL     1     -42.395  56.922 -51.734  1.00  0.00    -0.350 N 
ENDROOT
BRANCH   1   2
HETATM    2  C   UNL     1     -43.649  56.622 -52.462  1.00  0.00     0.164 C 
BRANCH   2   3
HETATM    3  C   UNL     1     -43.527  56.358 -53.943  1.00  0.00    -0.040 A 
HETATM    4  C   UNL     1     -43.537  57.392 -54.887  1.00  0.00     0.011 A 
HETATM    5  C   UNL     1     -43.334  57.110 -56.244  1.00  0.00     0.037 A 
HETATM    6  C   UNL     1     -43.110  55.796 -56.658  1.00  0.00     0.068 A 
HETATM    7  C   UNL     1     -43.123  54.759 -55.732  1.00  0.00     0.037 A 
HETATM    8  C   UNL     1     -43.311  55.040 -54.381  1.00  0.00     0.011 A 
BRANCH   6   9
HETATM    9  O   UNL     1     -42.919  55.435 -57.963  1.00  0.00    -0.356 OA
HETATM   10  C   UNL     1     -43.783  56.117 -58.870  1.00  0.00     0.210 C 
ENDBRANCH   6   9
ENDBRANCH   2   3
ENDBRANCH   1   2
BRANCH   1  11
HETATM   11  C   UNL     1     -41.858  58.227 -51.729  1.00  0.00     0.170 C 
HETATM   12  S   UNL     1     -40.639  58.789 -52.741  1.00  0.00    -0.041 SA
BRANCH  11  13
HETATM   13  N   UNL     1     -42.427  59.016 -50.740  1.00  0.00    -0.367 N 
HETATM   14  H   UNL     1     -43.393  58.803 -50.524  1.00  0.00     0.161 HD
BRANCH  13  15
HETATM   15  C   UNL     1     -41.963  60.325 -50.299  1.00  0.00     0.123 C 
BRANCH  15  16
HETATM   16  C   UNL     1     -42.963  61.434 -50.610  1.00  0.00     0.047 C 
BRANCH  16  17
HETATM   17  C   UNL     1     -44.437  61.055 -50.498  1.00  0.00     0.236 C 
BRANCH  17  18
HETATM   18  N   UNL     1     -45.164  61.723 -49.361  1.00  0.00    -0.067 N 
HETATM   19  H   UNL     1     -44.506  62.395 -48.925  1.00  0.00     0.280 HD
HETATM   20  C   UNL     1     -46.418  62.483 -49.766  1.00  0.00     0.261 C 
HETATM   21  C   UNL     1     -47.095  63.079 -48.526  1.00  0.00     0.195 C 
HETATM   22  O   UNL     1     -47.409  62.058 -47.573  1.00  0.00    -0.388 OA
HETATM   23  C   UNL     1     -46.225  61.403 -47.105  1.00  0.00     0.195 C 
HETATM   24  C   UNL     1     -45.493  60.712 -48.259  1.00  0.00     0.261 C 
ENDBRANCH  17  18
ENDBRANCH  16  17
ENDBRANCH  15  16
ENDBRANCH  13  15
ENDBRANCH  11  13
ENDBRANCH   1  11
BRANCH   1  25
HETATM   25  C   UNL     1     -42.252  56.150 -50.465  1.00  0.00     0.169 C 
BRANCH  25  26
HETATM   26  C   UNL     1     -41.348  54.967 -50.700  1.00  0.00     0.029 C 
HETATM   27  C   UNL     1     -40.959  54.155 -49.506  1.00  0.00     0.253 C 
HETATM   28  O   UNL     1     -41.159  54.556 -48.362  1.00  0.00    -0.268 OA
HETATM   29  N   UNL     1     -40.410  52.925 -49.745  1.00  0.00    -0.322 N 
HETATM   30  C   UNL     1     -40.179  52.414 -51.028  1.00  0.00     0.048 A 
HETATM   31  H   UNL     1     -40.204  52.361 -48.930  1.00  0.00     0.169 HD
HETATM   32  C   UNL     1     -40.416  53.242 -52.146  1.00  0.00    -0.006 A 
HETATM   33  C   UNL     1     -39.775  51.087 -51.184  1.00  0.00     0.070 A 
HETATM   34  C   UNL     1     -40.258  52.738 -53.442  1.00  0.00     0.053 A 
HETATM   35  C   UNL     1     -40.965  54.580 -51.931  1.00  0.00     0.028 C 
HETATM   36  C   UNL     1     -39.901  51.413 -53.568  1.00  0.00     0.106 A 
HETATM   37  C   UNL     1     -39.670  50.612 -52.473  1.00  0.00     0.107 A 
HETATM   38  O   UNL     1     -39.783  50.737 -54.741  1.00  0.00    -0.323 OA
HETATM   39  O   UNL     1     -39.375  49.332 -52.825  1.00  0.00    -0.323 OA
HETATM   40  C   UNL     1     -39.512  49.403 -54.261  1.00  0.00     0.352 A 
ENDBRANCH  25  26
ENDBRANCH   1  25
TORSDOF 11
ENDMDL
MODEL 2
REMARK VINA RESULT:      -8.3      1.983      6.296
REMARK  11 active torsions:
REMARK  status: ('A' for Active; 'I' for Inactive)
REMARK    1  A    between atoms: O_2  and  C_3 
REMARK    2  A    between atoms: C_6  and  C_7 
REMARK    3  A    between atoms: C_7  and  N_8 
REMARK    4  A    between atoms: N_8  and  C_9 
REMARK    5  A    between atoms: N_8  and  C_22 
REMARK    6  A    between atoms: C_9  and  N_10 
REMARK    7  A    between atoms: N_10  and  C_11 
REMARK    8  A    between atoms: C_11  and  C_12 
REMARK    9  A    between atoms: C_12  and  C_13 
REMARK   10  A    between atoms: C_13  and  N_14 
REMARK   11  A    between atoms: C_22  and  C_23 
ROOT
HETATM    1  N   UNL     1     -42.499  57.080 -51.977  1.00  0.00    -0.350 N 
ENDROOT
BRANCH   1   2
HETATM    2  C   UNL     1     -43.921  56.998 -52.382  1.00  0.00     0.164 C 
BRANCH   2   3
HETATM    3  C   UNL     1     -44.762  58.232 -52.159  1.00  0.00    -0.040 A 
HETATM    4  C   UNL     1     -45.210  58.608 -50.886  1.00  0.00     0.011 A 
HETATM    5  C   UNL     1     -45.913  59.806 -50.713  1.00  0.00     0.037 A 
HETATM    6  C   UNL     1     -46.162  60.636 -51.807  1.00  0.00     0.068 A 
HETATM    7  C   UNL     1     -45.743  60.260 -53.078  1.00  0.00     0.037 A 
HETATM    8  C   UNL     1     -45.031  59.075 -53.251  1.00  0.00     0.011 A 
BRANCH   6   9
HETATM    9  O   UNL     1     -46.853  61.812 -51.724  1.00  0.00    -0.356 OA
HETATM   10  C   UNL     1     -46.642  62.506 -50.496  1.00  0.00     0.210 C 
ENDBRANCH   6   9
ENDBRANCH   2   3
ENDBRANCH   1   2
BRANCH   1  11
HETATM   11  C   UNL     1     -41.718  58.205 -52.312  1.00  0.00     0.170 C 
HETATM   12  S   UNL     1     -41.153  59.363 -51.231  1.00  0.00    -0.041 SA
BRANCH  11  13
HETATM   13  N   UNL     1     -41.490  58.289 -53.678  1.00  0.00    -0.367 N 
HETATM   14  H   UNL     1     -40.846  57.601 -54.048  1.00  0.00     0.161 HD
BRANCH  13  15
HETATM   15  C   UNL     1     -41.717  59.450 -54.527  1.00  0.00     0.123 C 
BRANCH  15  16
HETATM   16  C   UNL     1     -42.126  59.067 -55.945  1.00  0.00     0.047 C 
BRANCH  16  17
HETATM   17  C   UNL     1     -42.478  57.597 -56.164  1.00  0.00     0.236 C 
BRANCH  17  18
HETATM   18  N   UNL     1     -42.224  57.102 -57.564  1.00  0.00    -0.067 N 
HETATM   19  H   UNL     1     -41.311  56.610 -57.558  1.00  0.00     0.280 HD
HETATM   20  C   UNL     1     -43.276  56.143 -58.100  1.00  0.00     0.261 C 
HETATM   21  C   UNL     1     -42.938  55.744 -59.541  1.00  0.00     0.195 C 
HETATM   22  O   UNL     1     -42.834  56.899 -60.381  1.00  0.00    -0.388 OA
HETATM   23  C   UNL     1     -41.776  57.761 -59.947  1.00  0.00     0.195 C 
HETATM   24  C   UNL     1     -42.040  58.277 -58.529  1.00  0.00     0.261 C 
ENDBRANCH  17  18
ENDBRANCH  16  17
ENDBRANCH  15  16
ENDBRANCH  13  15
ENDBRANCH  11  13
ENDBRANCH   1  11
BRANCH   1  25
HETATM   25  C   UNL     1     -42.234  56.471 -50.640  1.00  0.00     0.169 C 
BRANCH  25  26
HETATM   26  C   UNL     1     -41.336  55.271 -50.809  1.00  0.00     0.029 C 
HETATM   27  C   UNL     1     -40.936  54.538 -49.569  1.00  0.00     0.253 C 
HETATM   28  O   UNL     1     -41.121  55.013 -48.450  1.00  0.00    -0.268 OA
HETATM   29  N   UNL     1     -40.395  53.291 -49.733  1.00  0.00    -0.322 N 
HETATM   30  C   UNL     1     -40.180  52.697 -50.983  1.00  0.00     0.048 A 
HETATM   31  H   UNL     1     -40.181  52.781 -48.886  1.00  0.00     0.169 HD
HETATM   32  C   UNL     1     -40.428  53.452 -52.150  1.00  0.00    -0.006 A 
HETATM   33  C   UNL     1     -39.784  51.362 -51.056  1.00  0.00     0.070 A 
HETATM   34  C   UNL     1     -40.287  52.863 -53.412  1.00  0.00     0.053 A 
HETATM   35  C   UNL     1     -40.970  54.804 -52.016  1.00  0.00     0.028 C 
HETATM   36  C   UNL     1     -39.936  51.532 -53.456  1.00  0.00     0.106 A 
HETATM   37  C   UNL     1     -39.695  50.803 -52.314  1.00  0.00     0.107 A 
HETATM   38  O   UNL     1     -39.835  50.780 -54.583  1.00  0.00    -0.323 OA
HETATM   39  O   UNL     1     -39.410  49.502 -52.584  1.00  0.00    -0.323 OA
HETATM   40  C   UNL     1     -39.563  49.479 -54.021  1.00  0.00     0.352 A 
ENDBRANCH  25  26
ENDBRANCH   1  25
TORSDOF 11
ENDMDL
MODEL 3
REMARK VINA RESULT:      -8.0      2.988      7.466
REMARK  11 active torsions:
REMARK  status: ('A' for Active; 'I' for Inactive)
REMARK    1  A    between atoms: O_2  and  C_3 
REMARK    2  A    between atoms: C_6  and  C_7 
REMARK    3  A    between atoms: C_7  and  N_8 
REMARK    4  A    between atoms: N_8  and  C_9 
REMARK    5  A    between atoms: N_8  and  C_22 
REMARK    6  A    between atoms: C_9  and  N_10 
REMARK    7  A    between atoms: N_10  and  C_11 
REMARK    8  A    between atoms: C_11  and  C_12 
REMARK    9  A    between atoms: C_12  and  C_13 
REMARK   10  A    between atoms: C_13  and  N_14 
REMARK   11  A    between atoms: C_22  and  C_23 
ROOT
HETATM    1  N   UNL     1     -43.027  55.626 -53.182  1.00  0.00    -0.350 N 
ENDROOT
BRANCH   1   2
HETATM    2  C   UNL     1     -41.594  55.543 -53.549  1.00  0.00     0.164 C 
BRANCH   2   3
HETATM    3  C   UNL     1     -40.934  54.193 -53.402  1.00  0.00    -0.040 A 
HETATM    4  C   UNL     1     -40.549  53.684 -52.155  1.00  0.00     0.011 A 
HETATM    5  C   UNL     1     -40.019  52.392 -52.055  1.00  0.00     0.037 A 
HETATM    6  C   UNL     1     -39.883  51.602 -53.198  1.00  0.00     0.068 A 
HETATM    7  C   UNL     1     -40.240  52.107 -54.443  1.00  0.00     0.037 A 
HETATM    8  C   UNL     1     -40.779  53.387 -54.543  1.00  0.00     0.011 A 
BRANCH   6   9
HETATM    9  O   UNL     1     -39.362  50.338 -53.187  1.00  0.00    -0.356 OA
HETATM   10  C   UNL     1     -39.528  49.648 -54.425  1.00  0.00     0.210 C 
ENDBRANCH   6   9
ENDBRANCH   2   3
ENDBRANCH   1   2
BRANCH   1  11
HETATM   11  C   UNL     1     -43.428  56.228 -51.971  1.00  0.00     0.170 C 
HETATM   12  S   UNL     1     -42.632  56.087 -50.496  1.00  0.00    -0.041 SA
BRANCH  11  13
HETATM   13  N   UNL     1     -44.611  56.938 -52.113  1.00  0.00    -0.367 N 
HETATM   14  H   UNL     1     -45.416  56.381 -52.372  1.00  0.00     0.161 HD
BRANCH  13  15
HETATM   15  C   UNL     1     -44.744  58.370 -52.344  1.00  0.00     0.123 C 
BRANCH  15  16
HETATM   16  C   UNL     1     -44.519  59.190 -51.078  1.00  0.00     0.047 C 
BRANCH  16  17
HETATM   17  C   UNL     1     -43.310  60.123 -51.092  1.00  0.00     0.236 C 
BRANCH  17  18
HETATM   18  N   UNL     1     -41.999  59.433 -51.360  1.00  0.00    -0.067 N 
HETATM   19  H   UNL     1     -42.141  58.420 -51.192  1.00  0.00     0.280 HD
HETATM   20  C   UNL     1     -41.465  59.609 -52.773  1.00  0.00     0.261 C 
HETATM   21  C   UNL     1     -40.110  58.906 -52.915  1.00  0.00     0.195 C 
HETATM   22  O   UNL     1     -39.172  59.404 -51.955  1.00  0.00    -0.388 OA
HETATM   23  C   UNL     1     -39.614  59.151 -50.617  1.00  0.00     0.195 C 
HETATM   24  C   UNL     1     -40.942  59.864 -50.339  1.00  0.00     0.261 C 
ENDBRANCH  17  18
ENDBRANCH  16  17
ENDBRANCH  15  16
ENDBRANCH  13  15
ENDBRANCH  11  13
ENDBRANCH   1  11
BRANCH   1  25
HETATM   25  C   UNL     1     -43.922  55.853 -54.355  1.00  0.00     0.169 C 
BRANCH  25  26
HETATM   26  C   UNL     1     -43.149  56.558 -55.441  1.00  0.00     0.029 C 
HETATM   27  C   UNL     1     -42.920  55.806 -56.714  1.00  0.00     0.253 C 
HETATM   28  O   UNL     1     -43.131  54.599 -56.797  1.00  0.00    -0.268 OA
HETATM   29  N   UNL     1     -42.505  56.534 -57.797  1.00  0.00    -0.322 N 
HETATM   30  C   UNL     1     -42.267  57.913 -57.760  1.00  0.00     0.048 A 
HETATM   31  H   UNL     1     -42.408  56.026 -58.666  1.00  0.00     0.169 HD
HETATM   32  C   UNL     1     -42.348  58.588 -56.522  1.00  0.00    -0.006 A 
HETATM   33  C   UNL     1     -42.012  58.604 -58.945  1.00  0.00     0.070 A 
HETATM   34  C   UNL     1     -42.182  59.976 -56.466  1.00  0.00     0.053 A 
HETATM   35  C   UNL     1     -42.749  57.838 -55.333  1.00  0.00     0.028 C 
HETATM   36  C   UNL     1     -41.974  60.640 -57.655  1.00  0.00     0.106 A 
HETATM   37  C   UNL     1     -41.894  59.975 -58.857  1.00  0.00     0.107 A 
HETATM   38  O   UNL     1     -41.873  61.987 -57.799  1.00  0.00    -0.323 OA
HETATM   39  O   UNL     1     -41.732  60.825 -59.906  1.00  0.00    -0.323 OA
HETATM   40  C   UNL     1     -41.784  62.103 -59.234  1.00  0.00     0.352 A 
ENDBRANCH  25  26
ENDBRANCH   1  25
TORSDOF 11
ENDMDL
MODEL 4
REMARK VINA RESULT:      -8.0      2.283      3.397
REMARK  11 active torsions:
REMARK  status: ('A' for Active; 'I' for Inactive)
REMARK    1  A    between atoms: O_2  and  C_3 
REMARK    2  A    between atoms: C_6  and  C_7 
REMARK    3  A    between atoms: C_7  and  N_8 
REMARK    4  A    between atoms: N_8  and  C_9 
REMARK    5  A    between atoms: N_8  and  C_22 
REMARK    6  A    between atoms: C_9  and  N_10 
REMARK    7  A    between atoms: N_10  and  C_11 
REMARK    8  A    between atoms: C_11  and  C_12 
REMARK    9  A    between atoms: C_12  and  C_13 
REMARK   10  A    between atoms: C_13  and  N_14 
REMARK   11  A    between atoms: C_22  and  C_23 
ROOT
HETATM    1  N   UNL     1     -42.769  57.155 -55.522  1.00  0.00    -0.350 N 
ENDROOT
BRANCH   1   2
HETATM    2  C   UNL     1     -42.353  57.029 -56.938  1.00  0.00     0.164 C 
BRANCH   2   3
HETATM    3  C   UNL     1     -43.432  56.678 -57.934  1.00  0.00    -0.040 A 
HETATM    4  C   UNL     1     -44.469  57.564 -58.251  1.00  0.00     0.011 A 
HETATM    5  C   UNL     1     -45.399  57.232 -59.244  1.00  0.00     0.037 A 
HETATM    6  C   UNL     1     -45.290  56.021 -59.929  1.00  0.00     0.068 A 
HETATM    7  C   UNL     1     -44.277  55.125 -59.605  1.00  0.00     0.037 A 
HETATM    8  C   UNL     1     -43.344  55.458 -58.627  1.00  0.00     0.011 A 
BRANCH   6   9
HETATM    9  O   UNL     1     -46.164  55.618 -60.899  1.00  0.00    -0.356 OA
HETATM   10  C   UNL     1     -47.345  56.415 -60.963  1.00  0.00     0.210 C 
ENDBRANCH   6   9
ENDBRANCH   2   3
ENDBRANCH   1   2
BRANCH   1  11
HETATM   11  C   UNL     1     -43.325  58.358 -55.039  1.00  0.00     0.170 C 
HETATM   12  S   UNL     1     -44.946  58.609 -54.668  1.00  0.00    -0.041 SA
BRANCH  11  13
HETATM   13  N   UNL     1     -42.375  59.363 -54.938  1.00  0.00    -0.367 N 
HETATM   14  H   UNL     1     -41.535  59.216 -55.485  1.00  0.00     0.161 HD
BRANCH  13  15
HETATM   15  C   UNL     1     -42.257  60.344 -53.868  1.00  0.00     0.123 C 
BRANCH  15  16
HETATM   16  C   UNL     1     -41.640  59.758 -52.603  1.00  0.00     0.047 C 
BRANCH  16  17
HETATM   17  C   UNL     1     -42.138  60.343 -51.284  1.00  0.00     0.236 C 
BRANCH  17  18
HETATM   18  N   UNL     1     -43.638  60.368 -51.145  1.00  0.00    -0.067 N 
HETATM   19  H   UNL     1     -44.019  60.839 -51.985  1.00  0.00     0.280 HD
HETATM   20  C   UNL     1     -44.289  58.998 -51.033  1.00  0.00     0.261 C 
HETATM   21  C   UNL     1     -45.803  59.149 -50.851  1.00  0.00     0.195 C 
HETATM   22  O   UNL     1     -46.104  59.945 -49.700  1.00  0.00    -0.388 OA
HETATM   23  C   UNL     1     -45.584  61.272 -49.838  1.00  0.00     0.195 C 
HETATM   24  C   UNL     1     -44.058  61.249 -49.965  1.00  0.00     0.261 C 
ENDBRANCH  17  18
ENDBRANCH  16  17
ENDBRANCH  15  16
ENDBRANCH  13  15
ENDBRANCH  11  13
ENDBRANCH   1  11
BRANCH   1  25
HETATM   25  C   UNL     1     -43.345  55.896 -54.965  1.00  0.00     0.169 C 
BRANCH  25  26
HETATM   26  C   UNL     1     -42.257  55.115 -54.272  1.00  0.00     0.029 C 
HETATM   27  C   UNL     1     -41.890  55.538 -52.885  1.00  0.00     0.253 C 
HETATM   28  O   UNL     1     -42.273  56.606 -52.414  1.00  0.00    -0.268 OA
HETATM   29  N   UNL     1     -41.145  54.660 -52.146  1.00  0.00    -0.322 N 
HETATM   30  C   UNL     1     -40.699  53.423 -52.628  1.00  0.00     0.048 A 
HETATM   31  H   UNL     1     -40.951  54.930 -51.191  1.00  0.00     0.169 HD
HETATM   32  C   UNL     1     -40.927  53.095 -53.982  1.00  0.00    -0.006 A 
HETATM   33  C   UNL     1     -40.091  52.518 -51.758  1.00  0.00     0.070 A 
HETATM   34  C   UNL     1     -40.553  51.840 -54.475  1.00  0.00     0.053 A 
HETATM   35  C   UNL     1     -41.686  54.025 -54.817  1.00  0.00     0.028 C 
HETATM   36  C   UNL     1     -39.995  50.949 -53.585  1.00  0.00     0.106 A 
HETATM   37  C   UNL     1     -39.774  51.277 -52.267  1.00  0.00     0.107 A 
HETATM   38  O   UNL     1     -39.649  49.665 -53.866  1.00  0.00    -0.323 OA
HETATM   39  O   UNL     1     -39.258  50.237 -51.557  1.00  0.00    -0.323 OA
HETATM   40  C   UNL     1     -39.242  49.200 -52.562  1.00  0.00     0.352 A 
ENDBRANCH  25  26
ENDBRANCH   1  25
TORSDOF 11
ENDMDL
MODEL 5
REMARK VINA RESULT:      -8.0      3.802      7.262
REMARK  11 active torsions:
REMARK  status: ('A' for Active; 'I' for Inactive)
REMARK    1  A    between atoms: O_2  and  C_3 
REMARK    2  A    between atoms: C_6  and  C_7 
REMARK    3  A    between atoms: C_7  and  N_8 
REMARK    4  A    between atoms: N_8  and  C_9 
REMARK    5  A    between atoms: N_8  and  C_22 
REMARK    6  A    between atoms: C_9  and  N_10 
REMARK    7  A    between atoms: N_10  and  C_11 
REMARK    8  A    between atoms: C_11  and  C_12 
REMARK    9  A    between atoms: C_12  and  C_13 
REMARK   10  A    between atoms: C_13  and  N_14 
REMARK   11  A    between atoms: C_22  and  C_23 
ROOT
HETATM    1  N   UNL     1     -42.506  57.256 -56.516  1.00  0.00    -0.350 N 
ENDROOT
BRANCH   1   2
HETATM    2  C   UNL     1     -43.097  55.940 -56.181  1.00  0.00     0.164 C 
BRANCH   2   3
HETATM    3  C   UNL     1     -42.212  54.969 -55.438  1.00  0.00    -0.040 A 
HETATM    4  C   UNL     1     -40.819  54.975 -55.576  1.00  0.00     0.011 A 
HETATM    5  C   UNL     1     -40.030  54.114 -54.802  1.00  0.00     0.037 A 
HETATM    6  C   UNL     1     -40.631  53.254 -53.881  1.00  0.00     0.068 A 
HETATM    7  C   UNL     1     -42.015  53.224 -53.754  1.00  0.00     0.037 A 
HETATM    8  C   UNL     1     -42.800  54.088 -54.513  1.00  0.00     0.011 A 
BRANCH   6   9
HETATM    9  O   UNL     1     -39.935  52.375 -53.100  1.00  0.00    -0.356 OA
HETATM   10  C   UNL     1     -39.738  51.103 -53.717  1.00  0.00     0.210 C 
ENDBRANCH   6   9
ENDBRANCH   2   3
ENDBRANCH   1   2
BRANCH   1  11
HETATM   11  C   UNL     1     -42.225  57.600 -57.855  1.00  0.00     0.170 C 
HETATM   12  S   UNL     1     -42.032  59.164 -58.445  1.00  0.00    -0.041 SA
BRANCH  11  13
HETATM   13  N   UNL     1     -42.166  56.483 -58.675  1.00  0.00    -0.367 N 
HETATM   14  H   UNL     1     -41.324  55.929 -58.584  1.00  0.00     0.161 HD
BRANCH  13  15
HETATM   15  C   UNL     1     -42.932  56.259 -59.894  1.00  0.00     0.123 C 
BRANCH  15  16
HETATM   16  C   UNL     1     -44.349  55.772 -59.613  1.00  0.00     0.047 C 
BRANCH  16  17
HETATM   17  C   UNL     1     -45.464  56.493 -60.367  1.00  0.00     0.236 C 
BRANCH  17  18
HETATM   18  N   UNL     1     -45.950  57.752 -59.699  1.00  0.00    -0.067 N 
HETATM   19  H   UNL     1     -46.961  57.845 -59.909  1.00  0.00     0.280 HD
HETATM   20  C   UNL     1     -45.776  57.778 -58.188  1.00  0.00     0.261 C 
HETATM   21  C   UNL     1     -46.260  59.119 -57.626  1.00  0.00     0.195 C 
HETATM   22  O   UNL     1     -45.561  60.211 -58.233  1.00  0.00    -0.388 OA
HETATM   23  C   UNL     1     -45.801  60.260 -59.644  1.00  0.00     0.195 C 
HETATM   24  C   UNL     1     -45.295  58.986 -60.326  1.00  0.00     0.261 C 
ENDBRANCH  17  18
ENDBRANCH  16  17
ENDBRANCH  15  16
ENDBRANCH  13  15
ENDBRANCH  11  13
ENDBRANCH   1  11
BRANCH   1  25
HETATM   25  C   UNL     1     -43.000  58.362 -55.645  1.00  0.00     0.169 C 
BRANCH  25  26
HETATM   26  C   UNL     1     -43.066  57.880 -54.218  1.00  0.00     0.029 C 
HETATM   27  C   UNL     1     -44.411  57.499 -53.686  1.00  0.00     0.253 C 
HETATM   28  O   UNL     1     -45.446  57.786 -54.285  1.00  0.00    -0.268 OA
HETATM   29  N   UNL     1     -44.437  56.778 -52.524  1.00  0.00    -0.322 N 
HETATM   30  C   UNL     1     -43.288  56.411 -51.813  1.00  0.00     0.048 A 
HETATM   31  H   UNL     1     -45.348  56.477 -52.204  1.00  0.00     0.169 HD
HETATM   32  C   UNL     1     -42.034  56.895 -52.244  1.00  0.00    -0.006 A 
HETATM   33  C   UNL     1     -43.392  55.533 -50.733  1.00  0.00     0.070 A 
HETATM   34  C   UNL     1     -40.862  56.490 -51.594  1.00  0.00     0.053 A 
HETATM   35  C   UNL     1     -41.968  57.703 -53.460  1.00  0.00     0.028 C 
HETATM   36  C   UNL     1     -40.989  55.590 -50.558  1.00  0.00     0.106 A 
HETATM   37  C   UNL     1     -42.215  55.124 -50.143  1.00  0.00     0.107 A 
HETATM   38  O   UNL     1     -39.959  55.029 -49.872  1.00  0.00    -0.323 OA
HETATM   39  O   UNL     1     -42.106  54.212 -49.140  1.00  0.00    -0.323 OA
HETATM   40  C   UNL     1     -40.671  54.109 -49.017  1.00  0.00     0.352 A 
ENDBRANCH  25  26
ENDBRANCH   1  25
TORSDOF 11
ENDMDL
MODEL 6
REMARK VINA RESULT:      -8.0      2.495      4.397
REMARK  11 active torsions:
REMARK  status: ('A' for Active; 'I' for Inactive)
REMARK    1  A    between atoms: O_2  and  C_3 
REMARK    2  A    between atoms: C_6  and  C_7 
REMARK    3  A    between atoms: C_7  and  N_8 
REMARK    4  A    between atoms: N_8  and  C_9 
REMARK    5  A    between atoms: N_8  and  C_22 
REMARK    6  A    between atoms: C_9  and  N_10 
REMARK    7  A    between atoms: N_10  and  C_11 
REMARK    8  A    between atoms: C_11  and  C_12 
REMARK    9  A    between atoms: C_12  and  C_13 
REMARK   10  A    between atoms: C_13  and  N_14 
REMARK   11  A    between atoms: C_22  and  C_23 
ROOT
HETATM    1  N   UNL     1     -42.992  57.605 -55.328  1.00  0.00    -0.350 N 
ENDROOT
BRANCH   1   2
HETATM    2  C   UNL     1     -42.309  57.390 -56.625  1.00  0.00     0.164 C 
BRANCH   2   3
HETATM    3  C   UNL     1     -43.178  56.981 -57.789  1.00  0.00    -0.040 A 
HETATM    4  C   UNL     1     -43.044  55.736 -58.417  1.00  0.00     0.011 A 
HETATM    5  C   UNL     1     -43.928  55.363 -59.437  1.00  0.00     0.037 A 
HETATM    6  C   UNL     1     -44.954  56.226 -59.824  1.00  0.00     0.068 A 
HETATM    7  C   UNL     1     -45.081  57.474 -59.223  1.00  0.00     0.037 A 
HETATM    8  C   UNL     1     -44.210  57.841 -58.200  1.00  0.00     0.011 A 
BRANCH   6   9
HETATM    9  O   UNL     1     -45.847  55.943 -60.818  1.00  0.00    -0.356 OA
HETATM   10  C   UNL     1     -47.189  56.301 -60.491  1.00  0.00     0.210 C 
ENDBRANCH   6   9
ENDBRANCH   2   3
ENDBRANCH   1   2
BRANCH   1  11
HETATM   11  C   UNL     1     -43.230  58.910 -54.847  1.00  0.00     0.170 C 
HETATM   12  S   UNL     1     -44.710  59.708 -54.870  1.00  0.00    -0.041 SA
BRANCH  11  13
HETATM   13  N   UNL     1     -42.070  59.508 -54.376  1.00  0.00    -0.367 N 
HETATM   14  H   UNL     1     -41.724  60.275 -54.939  1.00  0.00     0.161 HD
BRANCH  13  15
HETATM   15  C   UNL     1     -41.103  58.923 -53.458  1.00  0.00     0.123 C 
BRANCH  15  16
HETATM   16  C   UNL     1     -41.607  58.891 -52.019  1.00  0.00     0.047 C 
BRANCH  16  17
HETATM   17  C   UNL     1     -42.087  60.225 -51.450  1.00  0.00     0.236 C 
BRANCH  17  18
HETATM   18  N   UNL     1     -43.571  60.296 -51.206  1.00  0.00    -0.067 N 
HETATM   19  H   UNL     1     -43.986  60.847 -51.980  1.00  0.00     0.280 HD
HETATM   20  C   UNL     1     -44.272  58.947 -51.156  1.00  0.00     0.261 C 
HETATM   21  C   UNL     1     -45.764  59.141 -50.859  1.00  0.00     0.195 C 
HETATM   22  O   UNL     1     -45.953  59.853 -49.632  1.00  0.00    -0.388 OA
HETATM   23  C   UNL     1     -45.387  61.166 -49.703  1.00  0.00     0.195 C 
HETATM   24  C   UNL     1     -43.874  61.095 -49.936  1.00  0.00     0.261 C 
ENDBRANCH  17  18
ENDBRANCH  16  17
ENDBRANCH  15  16
ENDBRANCH  13  15
ENDBRANCH  11  13
ENDBRANCH   1  11
BRANCH   1  25
HETATM   25  C   UNL     1     -44.059  56.599 -55.052  1.00  0.00     0.169 C 
BRANCH  25  26
HETATM   26  C   UNL     1     -43.560  55.614 -54.025  1.00  0.00     0.029 C 
HETATM   27  C   UNL     1     -42.951  54.347 -54.533  1.00  0.00     0.253 C 
HETATM   28  O   UNL     1     -43.061  54.005 -55.708  1.00  0.00    -0.268 OA
HETATM   29  N   UNL     1     -42.226  53.606 -53.640  1.00  0.00    -0.322 N 
HETATM   30  C   UNL     1     -42.055  53.960 -52.296  1.00  0.00     0.048 A 
HETATM   31  H   UNL     1     -41.771  52.781 -54.008  1.00  0.00     0.169 HD
HETATM   32  C   UNL     1     -42.750  55.080 -51.791  1.00  0.00    -0.006 A 
HETATM   33  C   UNL     1     -41.164  53.242 -51.498  1.00  0.00     0.070 A 
HETATM   34  C   UNL     1     -42.547  55.498 -50.471  1.00  0.00     0.053 A 
HETATM   35  C   UNL     1     -43.568  55.877 -52.705  1.00  0.00     0.028 C 
HETATM   36  C   UNL     1     -41.630  54.799 -49.717  1.00  0.00     0.106 A 
HETATM   37  C   UNL     1     -40.958  53.706 -50.216  1.00  0.00     0.107 A 
HETATM   38  O   UNL     1     -41.247  55.111 -48.452  1.00  0.00    -0.323 OA
HETATM   39  O   UNL     1     -40.069  53.196 -49.322  1.00  0.00    -0.323 OA
HETATM   40  C   UNL     1     -40.212  54.130 -48.229  1.00  0.00     0.352 A 
ENDBRANCH  25  26
ENDBRANCH   1  25
TORSDOF 11
ENDMDL
MODEL 7
REMARK VINA RESULT:      -7.9      2.357      6.502
REMARK  11 active torsions:
REMARK  status: ('A' for Active; 'I' for Inactive)
REMARK    1  A    between atoms: O_2  and  C_3 
REMARK    2  A    between atoms: C_6  and  C_7 
REMARK    3  A    between atoms: C_7  and  N_8 
REMARK    4  A    between atoms: N_8  and  C_9 
REMARK    5  A    between atoms: N_8  and  C_22 
REMARK    6  A    between atoms: C_9  and  N_10 
REMARK    7  A    between atoms: N_10  and  C_11 
REMARK    8  A    between atoms: C_11  and  C_12 
REMARK    9  A    between atoms: C_12  and  C_13 
REMARK   10  A    between atoms: C_13  and  N_14 
REMARK   11  A    between atoms: C_22  and  C_23 
ROOT
HETATM    1  N   UNL     1     -41.608  55.462 -52.773  1.00  0.00    -0.350 N 
ENDROOT
BRANCH   1   2
HETATM    2  C   UNL     1     -40.739  54.795 -53.771  1.00  0.00     0.164 C 
BRANCH   2   3
HETATM    3  C   UNL     1     -40.342  53.368 -53.478  1.00  0.00    -0.040 A 
HETATM    4  C   UNL     1     -39.997  52.941 -52.189  1.00  0.00     0.011 A 
HETATM    5  C   UNL     1     -39.719  51.590 -51.946  1.00  0.00     0.037 A 
HETATM    6  C   UNL     1     -39.795  50.662 -52.986  1.00  0.00     0.068 A 
HETATM    7  C   UNL     1     -40.113  51.081 -54.274  1.00  0.00     0.037 A 
HETATM    8  C   UNL     1     -40.402  52.422 -54.515  1.00  0.00     0.011 A 
BRANCH   6   9
HETATM    9  O   UNL     1     -39.525  49.331 -52.835  1.00  0.00    -0.356 OA
HETATM   10  C   UNL     1     -39.606  48.888 -51.482  1.00  0.00     0.210 C 
ENDBRANCH   6   9
ENDBRANCH   2   3
ENDBRANCH   1   2
BRANCH   1  11
HETATM   11  C   UNL     1     -41.308  56.760 -52.309  1.00  0.00     0.170 C 
HETATM   12  S   UNL     1     -41.584  57.332 -50.752  1.00  0.00    -0.041 SA
BRANCH  11  13
HETATM   13  N   UNL     1     -40.787  57.561 -53.315  1.00  0.00    -0.367 N 
HETATM   14  H   UNL     1     -40.177  57.086 -53.968  1.00  0.00     0.161 HD
BRANCH  13  15
HETATM   15  C   UNL     1     -40.671  59.013 -53.297  1.00  0.00     0.123 C 
BRANCH  15  16
HETATM   16  C   UNL     1     -41.950  59.707 -53.754  1.00  0.00     0.047 C 
BRANCH  16  17
HETATM   17  C   UNL     1     -42.580  60.671 -52.752  1.00  0.00     0.236 C 
BRANCH  17  18
HETATM   18  N   UNL     1     -43.911  60.219 -52.210  1.00  0.00    -0.067 N 
HETATM   19  H   UNL     1     -44.054  59.240 -52.518  1.00  0.00     0.280 HD
HETATM   20  C   UNL     1     -44.027  60.262 -50.694  1.00  0.00     0.261 C 
HETATM   21  C   UNL     1     -45.432  59.826 -50.262  1.00  0.00     0.195 C 
HETATM   22  O   UNL     1     -46.433  60.650 -50.868  1.00  0.00    -0.388 OA
HETATM   23  C   UNL     1     -46.402  60.539 -52.295  1.00  0.00     0.195 C 
HETATM   24  C   UNL     1     -45.054  61.012 -52.849  1.00  0.00     0.261 C 
ENDBRANCH  17  18
ENDBRANCH  16  17
ENDBRANCH  15  16
ENDBRANCH  13  15
ENDBRANCH  11  13
ENDBRANCH   1  11
BRANCH   1  25
HETATM   25  C   UNL     1     -43.056  55.147 -52.951  1.00  0.00     0.169 C 
BRANCH  25  26
HETATM   26  C   UNL     1     -43.558  55.808 -54.209  1.00  0.00     0.029 C 
HETATM   27  C   UNL     1     -44.346  57.069 -54.050  1.00  0.00     0.253 C 
HETATM   28  O   UNL     1     -44.774  57.428 -52.956  1.00  0.00    -0.268 OA
HETATM   29  N   UNL     1     -44.532  57.830 -55.173  1.00  0.00    -0.322 N 
HETATM   30  C   UNL     1     -44.050  57.475 -56.439  1.00  0.00     0.048 A 
HETATM   31  H   UNL     1     -45.016  58.708 -55.044  1.00  0.00     0.169 HD
HETATM   32  C   UNL     1     -43.432  56.216 -56.607  1.00  0.00    -0.006 A 
HETATM   33  C   UNL     1     -44.135  58.385 -57.493  1.00  0.00     0.070 A 
HETATM   34  C   UNL     1     -42.881  55.863 -57.844  1.00  0.00     0.053 A 
HETATM   35  C   UNL     1     -43.250  55.356 -55.439  1.00  0.00     0.028 C 
HETATM   36  C   UNL     1     -42.940  56.795 -58.856  1.00  0.00     0.106 A 
HETATM   37  C   UNL     1     -43.546  58.019 -58.685  1.00  0.00     0.107 A 
HETATM   38  O   UNL     1     -42.388  56.657 -60.089  1.00  0.00    -0.323 OA
HETATM   39  O   UNL     1     -43.449  58.801 -59.794  1.00  0.00    -0.323 OA
HETATM   40  C   UNL     1     -42.659  57.955 -60.658  1.00  0.00     0.352 A 
ENDBRANCH  25  26
ENDBRANCH   1  25
TORSDOF 11
ENDMDL
MODEL 8
REMARK VINA RESULT:      -7.9      1.694      2.044
REMARK  11 active torsions:
REMARK  status: ('A' for Active; 'I' for Inactive)
REMARK    1  A    between atoms: O_2  and  C_3 
REMARK    2  A    between atoms: C_6  and  C_7 
REMARK    3  A    between atoms: C_7  and  N_8 
REMARK    4  A    between atoms: N_8  and  C_9 
REMARK    5  A    between atoms: N_8  and  C_22 
REMARK    6  A    between atoms: C_9  and  N_10 
REMARK    7  A    between atoms: N_10  and  C_11 
REMARK    8  A    between atoms: C_11  and  C_12 
REMARK    9  A    between atoms: C_12  and  C_13 
REMARK   10  A    between atoms: C_13  and  N_14 
REMARK   11  A    between atoms: C_22  and  C_23 
ROOT
HETATM    1  N   UNL     1     -42.588  57.632 -53.087  1.00  0.00    -0.350 N 
ENDROOT
BRANCH   1   2
HETATM    2  C   UNL     1     -43.812  57.646 -53.921  1.00  0.00     0.164 C 
BRANCH   2   3
HETATM    3  C   UNL     1     -43.671  57.148 -55.339  1.00  0.00    -0.040 A 
HETATM    4  C   UNL     1     -44.017  57.937 -56.444  1.00  0.00     0.011 A 
HETATM    5  C   UNL     1     -43.788  57.469 -57.743  1.00  0.00     0.037 A 
HETATM    6  C   UNL     1     -43.204  56.218 -57.943  1.00  0.00     0.068 A 
HETATM    7  C   UNL     1     -42.878  55.417 -56.854  1.00  0.00     0.037 A 
HETATM    8  C   UNL     1     -43.093  55.886 -55.561  1.00  0.00     0.011 A 
BRANCH   6   9
HETATM    9  O   UNL     1     -42.962  55.683 -59.178  1.00  0.00    -0.356 OA
HETATM   10  C   UNL     1     -44.066  54.947 -59.701  1.00  0.00     0.210 C 
ENDBRANCH   6   9
ENDBRANCH   2   3
ENDBRANCH   1   2
BRANCH   1  11
HETATM   11  C   UNL     1     -41.754  58.767 -53.012  1.00  0.00     0.170 C 
HETATM   12  S   UNL     1     -40.528  59.010 -51.887  1.00  0.00    -0.041 SA
BRANCH  11  13
HETATM   13  N   UNL     1     -42.087  59.718 -53.966  1.00  0.00    -0.367 N 
HETATM   14  H   UNL     1     -41.700  59.554 -54.887  1.00  0.00     0.161 HD
BRANCH  13  15
HETATM   15  C   UNL     1     -42.545  61.077 -53.715  1.00  0.00     0.123 C 
BRANCH  15  16
HETATM   16  C   UNL     1     -43.870  61.384 -54.405  1.00  0.00     0.047 C 
BRANCH  16  17
HETATM   17  C   UNL     1     -45.088  61.502 -53.491  1.00  0.00     0.236 C 
BRANCH  17  18
HETATM   18  N   UNL     1     -44.889  60.919 -52.117  1.00  0.00    -0.067 N 
HETATM   19  H   UNL     1     -43.943  60.496 -52.093  1.00  0.00     0.280 HD
HETATM   20  C   UNL     1     -44.988  61.924 -50.979  1.00  0.00     0.261 C 
HETATM   21  C   UNL     1     -44.816  61.212 -49.633  1.00  0.00     0.195 C 
HETATM   22  O   UNL     1     -45.788  60.173 -49.474  1.00  0.00    -0.388 OA
HETATM   23  C   UNL     1     -45.639  59.165 -50.480  1.00  0.00     0.195 C 
HETATM   24  C   UNL     1     -45.855  59.755 -51.878  1.00  0.00     0.261 C 
ENDBRANCH  17  18
ENDBRANCH  16  17
ENDBRANCH  15  16
ENDBRANCH  13  15
ENDBRANCH  11  13
ENDBRANCH   1  11
BRANCH   1  25
HETATM   25  C   UNL     1     -42.746  56.851 -51.825  1.00  0.00     0.169 C 
BRANCH  25  26
HETATM   26  C   UNL     1     -41.742  55.726 -51.808  1.00  0.00     0.029 C 
HETATM   27  C   UNL     1     -41.225  55.292 -50.473  1.00  0.00     0.253 C 
HETATM   28  O   UNL     1     -41.414  55.962 -49.460  1.00  0.00    -0.268 OA
HETATM   29  N   UNL     1     -40.570  54.091 -50.422  1.00  0.00    -0.322 N 
HETATM   30  C   UNL     1     -40.346  53.282 -51.543  1.00  0.00     0.048 A 
HETATM   31  H   UNL     1     -40.276  53.781 -49.506  1.00  0.00     0.169 HD
HETATM   32  C   UNL     1     -40.710  53.765 -52.818  1.00  0.00    -0.006 A 
HETATM   33  C   UNL     1     -39.822  52.000 -51.378  1.00  0.00     0.070 A 
HETATM   34  C   UNL     1     -40.559  52.952 -53.948  1.00  0.00     0.053 A 
HETATM   35  C   UNL     1     -41.377  55.062 -52.920  1.00  0.00     0.028 C 
HETATM   36  C   UNL     1     -40.081  51.675 -53.752  1.00  0.00     0.106 A 
HETATM   37  C   UNL     1     -39.726  51.213 -52.505  1.00  0.00     0.107 A 
HETATM   38  O   UNL     1     -39.949  50.727 -54.716  1.00  0.00    -0.323 OA
HETATM   39  O   UNL     1     -39.325  49.914 -52.534  1.00  0.00    -0.323 OA
HETATM   40  C   UNL     1     -39.529  49.593 -53.927  1.00  0.00     0.352 A 
ENDBRANCH  25  26
ENDBRANCH   1  25
TORSDOF 11
ENDMDL
MODEL 9
REMARK VINA RESULT:      -7.9      3.069      4.790
REMARK  11 active torsions:
REMARK  status: ('A' for Active; 'I' for Inactive)
REMARK    1  A    between atoms: O_2  and  C_3 
REMARK    2  A    between atoms: C_6  and  C_7 
REMARK    3  A    between atoms: C_7  and  N_8 
REMARK    4  A    between atoms: N_8  and  C_9 
REMARK    5  A    between atoms: N_8  and  C_22 
REMARK    6  A    between atoms: C_9  and  N_10 
REMARK    7  A    between atoms: N_10  and  C_11 
REMARK    8  A    between atoms: C_11  and  C_12 
REMARK    9  A    between atoms: C_12  and  C_13 
REMARK   10  A    between atoms: C_13  and  N_14 
REMARK   11  A    between atoms: C_22  and  C_23 
ROOT
HETATM    1  N   UNL     1     -43.036  57.194 -56.717  1.00  0.00    -0.350 N 
ENDROOT
BRANCH   1   2
HETATM    2  C   UNL     1     -43.051  56.808 -58.147  1.00  0.00     0.164 C 
BRANCH   2   3
HETATM    3  C   UNL     1     -44.406  56.650 -58.793  1.00  0.00    -0.040 A 
HETATM    4  C   UNL     1     -45.449  57.557 -58.566  1.00  0.00     0.011 A 
HETATM    5  C   UNL     1     -46.662  57.422 -59.254  1.00  0.00     0.037 A 
HETATM    6  C   UNL     1     -46.831  56.388 -60.176  1.00  0.00     0.068 A 
HETATM    7  C   UNL     1     -45.810  55.469 -60.391  1.00  0.00     0.037 A 
HETATM    8  C   UNL     1     -44.599  55.610 -59.718  1.00  0.00     0.011 A 
BRANCH   6   9
HETATM    9  O   UNL     1     -47.986  56.179 -60.876  1.00  0.00    -0.356 OA
HETATM   10  C   UNL     1     -47.987  56.795 -62.163  1.00  0.00     0.210 C 
ENDBRANCH   6   9
ENDBRANCH   2   3
ENDBRANCH   1   2
BRANCH   1  11
HETATM   11  C   UNL     1     -43.165  58.546 -56.334  1.00  0.00     0.170 C 
HETATM   12  S   UNL     1     -42.169  59.805 -56.835  1.00  0.00    -0.041 SA
BRANCH  11  13
HETATM   13  N   UNL     1     -44.205  58.732 -55.435  1.00  0.00    -0.367 N 
HETATM   14  H   UNL     1     -44.819  57.936 -55.319  1.00  0.00     0.161 HD
BRANCH  13  15
HETATM   15  C   UNL     1     -44.746  60.007 -54.985  1.00  0.00     0.123 C 
BRANCH  15  16
HETATM   16  C   UNL     1     -44.782  60.124 -53.465  1.00  0.00     0.047 C 
BRANCH  16  17
HETATM   17  C   UNL     1     -43.602  60.850 -52.823  1.00  0.00     0.236 C 
BRANCH  17  18
HETATM   18  N   UNL     1     -42.512  59.939 -52.323  1.00  0.00    -0.067 N 
HETATM   19  H   UNL     1     -42.942  59.015 -52.136  1.00  0.00     0.280 HD
HETATM   20  C   UNL     1     -41.358  59.737 -53.293  1.00  0.00     0.261 C 
HETATM   21  C   UNL     1     -40.293  58.834 -52.662  1.00  0.00     0.195 C 
HETATM   22  O   UNL     1     -39.823  59.383 -51.426  1.00  0.00    -0.388 OA
HETATM   23  C   UNL     1     -40.881  59.481 -50.467  1.00  0.00     0.195 C 
HETATM   24  C   UNL     1     -41.984  60.419 -50.968  1.00  0.00     0.261 C 
ENDBRANCH  17  18
ENDBRANCH  16  17
ENDBRANCH  15  16
ENDBRANCH  13  15
ENDBRANCH  11  13
ENDBRANCH   1  11
BRANCH   1  25
HETATM   25  C   UNL     1     -43.705  56.195 -55.832  1.00  0.00     0.169 C 
BRANCH  25  26
HETATM   26  C   UNL     1     -42.689  55.615 -54.881  1.00  0.00     0.029 C 
HETATM   27  C   UNL     1     -42.712  56.112 -53.470  1.00  0.00     0.253 C 
HETATM   28  O   UNL     1     -43.354  57.108 -53.148  1.00  0.00    -0.268 OA
HETATM   29  N   UNL     1     -42.020  55.379 -52.544  1.00  0.00    -0.322 N 
HETATM   30  C   UNL     1     -41.288  54.227 -52.855  1.00  0.00     0.048 A 
HETATM   31  H   UNL     1     -42.089  55.691 -51.584  1.00  0.00     0.169 HD
HETATM   32  C   UNL     1     -41.154  53.847 -54.209  1.00  0.00    -0.006 A 
HETATM   33  C   UNL     1     -40.754  53.446 -51.830  1.00  0.00     0.070 A 
HETATM   34  C   UNL     1     -40.486  52.664 -54.545  1.00  0.00     0.053 A 
HETATM   35  C   UNL     1     -41.846  54.627 -55.234  1.00  0.00     0.028 C 
HETATM   36  C   UNL     1     -40.006  51.890 -53.511  1.00  0.00     0.106 A 
HETATM   37  C   UNL     1     -40.139  52.268 -52.195  1.00  0.00     0.107 A 
HETATM   38  O   UNL     1     -39.408  50.677 -53.646  1.00  0.00    -0.323 OA
HETATM   39  O   UNL     1     -39.636  51.338 -51.339  1.00  0.00    -0.323 OA
HETATM   40  C   UNL     1     -39.233  50.304 -52.263  1.00  0.00     0.352 A 
ENDBRANCH  25  26
ENDBRANCH   1  25
TORSDOF 11
ENDMDL
MODEL 10
REMARK VINA RESULT:      -7.8      2.536      8.760
REMARK  11 active torsions:
REMARK  status: ('A' for Active; 'I' for Inactive)
REMARK    1  A    between atoms: O_2  and  C_3 
REMARK    2  A    between atoms: C_6  and  C_7 
REMARK    3  A    between atoms: C_7  and  N_8 
REMARK    4  A    between atoms: N_8  and  C_9 
REMARK    5  A    between atoms: N_8  and  C_22 
REMARK    6  A    between atoms: C_9  and  N_10 
REMARK    7  A    between atoms: N_10  and  C_11 
REMARK    8  A    between atoms: C_11  and  C_12 
REMARK    9  A    between atoms: C_12  and  C_13 
REMARK   10  A    between atoms: C_13  and  N_14 
REMARK   11  A    between atoms: C_22  and  C_23 
ROOT
HETATM    1  N   UNL     1     -42.622  56.003 -53.580  1.00  0.00    -0.350 N 
ENDROOT
BRANCH   1   2
HETATM    2  C   UNL     1     -41.169  55.782 -53.760  1.00  0.00     0.164 C 
BRANCH   2   3
HETATM    3  C   UNL     1     -40.655  54.391 -53.478  1.00  0.00    -0.040 A 
HETATM    4  C   UNL     1     -40.538  53.889 -52.175  1.00  0.00     0.011 A 
HETATM    5  C   UNL     1     -40.139  52.564 -51.964  1.00  0.00     0.037 A 
HETATM    6  C   UNL     1     -39.867  51.733 -53.052  1.00  0.00     0.068 A 
HETATM    7  C   UNL     1     -39.957  52.228 -54.349  1.00  0.00     0.037 A 
HETATM    8  C   UNL     1     -40.366  53.542 -54.561  1.00  0.00     0.011 A 
BRANCH   6   9
HETATM    9  O   UNL     1     -39.459  50.434 -52.931  1.00  0.00    -0.356 OA
HETATM   10  C   UNL     1     -39.576  49.689 -54.142  1.00  0.00     0.210 C 
ENDBRANCH   6   9
ENDBRANCH   2   3
ENDBRANCH   1   2
BRANCH   1  11
HETATM   11  C   UNL     1     -43.543  55.579 -54.562  1.00  0.00     0.170 C 
HETATM   12  S   UNL     1     -43.191  54.578 -55.867  1.00  0.00    -0.041 SA
BRANCH  11  13
HETATM   13  N   UNL     1     -44.801  56.127 -54.362  1.00  0.00    -0.367 N 
HETATM   14  H   UNL     1     -45.514  55.468 -54.073  1.00  0.00     0.161 HD
BRANCH  13  15
HETATM   15  C   UNL     1     -45.297  57.385 -54.903  1.00  0.00     0.123 C 
BRANCH  15  16
HETATM   16  C   UNL     1     -44.329  58.017 -55.897  1.00  0.00     0.047 C 
BRANCH  16  17
HETATM   17  C   UNL     1     -44.861  58.212 -57.315  1.00  0.00     0.236 C 
BRANCH  17  18
HETATM   18  N   UNL     1     -44.619  57.043 -58.233  1.00  0.00    -0.067 N 
HETATM   19  H   UNL     1     -44.694  56.180 -57.663  1.00  0.00     0.280 HD
HETATM   20  C   UNL     1     -45.597  56.932 -59.393  1.00  0.00     0.261 C 
HETATM   21  C   UNL     1     -45.227  55.739 -60.281  1.00  0.00     0.195 C 
HETATM   22  O   UNL     1     -43.885  55.856 -60.763  1.00  0.00    -0.388 OA
HETATM   23  C   UNL     1     -42.944  55.857 -59.684  1.00  0.00     0.195 C 
HETATM   24  C   UNL     1     -43.180  57.053 -58.757  1.00  0.00     0.261 C 
ENDBRANCH  17  18
ENDBRANCH  16  17
ENDBRANCH  15  16
ENDBRANCH  13  15
ENDBRANCH  11  13
ENDBRANCH   1  11
BRANCH   1  25
HETATM   25  C   UNL     1     -43.067  55.866 -52.162  1.00  0.00     0.169 C 
BRANCH  25  26
HETATM   26  C   UNL     1     -43.067  57.224 -51.507  1.00  0.00     0.029 C 
HETATM   27  C   UNL     1     -41.844  57.610 -50.737  1.00  0.00     0.253 C 
HETATM   28  O   UNL     1     -40.980  56.788 -50.443  1.00  0.00    -0.268 OA
HETATM   29  N   UNL     1     -41.709  58.933 -50.413  1.00  0.00    -0.322 N 
HETATM   30  C   UNL     1     -42.655  59.913 -50.739  1.00  0.00     0.048 A 
HETATM   31  H   UNL     1     -40.852  59.193 -49.943  1.00  0.00     0.169 HD
HETATM   32  C   UNL     1     -43.870  59.517 -51.339  1.00  0.00    -0.006 A 
HETATM   33  C   UNL     1     -42.361  61.259 -50.522  1.00  0.00     0.070 A 
HETATM   34  C   UNL     1     -44.804  60.480 -51.738  1.00  0.00     0.053 A 
HETATM   35  C   UNL     1     -44.071  58.106 -51.666  1.00  0.00     0.028 C 
HETATM   36  C   UNL     1     -44.472  61.803 -51.551  1.00  0.00     0.106 A 
HETATM   37  C   UNL     1     -43.286  62.181 -50.964  1.00  0.00     0.107 A 
HETATM   38  O   UNL     1     -45.216  62.867 -51.950  1.00  0.00    -0.323 OA
HETATM   39  O   UNL     1     -43.141  63.533 -50.921  1.00  0.00    -0.323 OA
HETATM   40  C   UNL     1     -44.339  63.960 -51.605  1.00  0.00     0.352 A 
ENDBRANCH  25  26
ENDBRANCH   1  25
TORSDOF 11
ENDMDL
