MODEL 1
REMARK VINA RESULT:      -7.2      0.000      0.000
REMARK  6 active torsions:
REMARK  status: ('A' for Active; 'I' for Inactive)
REMARK    1  A    between atoms: C_2  and  N_3 
REMARK    2  A    between atoms: C_2  and  C_16 
REMARK    3  A    between atoms: N_3  and  C_6 
REMARK    4  A    between atoms: C_16  and  C_17 
REMARK       I    between atoms: C_17  and  N_18 
REMARK    5  A    between atoms: N_18  and  C_19 
REMARK    6  A    between atoms: C_22  and  O_23 
ROOT
HETATM    1  C   UNL     1     -42.274  59.315 -51.393  1.00  0.00     0.040 C 
HETATM    2  C   UNL     1     -42.536  58.441 -52.617  1.00  0.00     0.191 C 
ENDROOT
BRANCH   2   3
HETATM    3  N   UNL     1     -42.673  56.977 -52.211  1.00  0.00    -0.063 N 
HETATM    4  H   UNL     1     -43.386  56.907 -51.477  1.00  0.00     0.278 HD
HETATM    5  H   UNL     1     -43.062  56.471 -53.018  1.00  0.00     0.278 HD
BRANCH   3   6
HETATM    6  C   UNL     1     -41.457  56.168 -51.758  1.00  0.00     0.221 C 
HETATM    7  C   UNL     1     -41.017  55.097 -52.736  1.00  0.00    -0.011 A 
HETATM    8  C   UNL     1     -40.670  53.799 -52.320  1.00  0.00     0.009 A 
HETATM    9  C   UNL     1     -40.894  55.410 -54.109  1.00  0.00     0.011 A 
HETATM   10  C   UNL     1     -40.318  52.829 -53.269  1.00  0.00     0.019 A 
HETATM   11  S   UNL     1     -40.634  53.284 -50.614  1.00  0.00    -0.129 SA
HETATM   12  C   UNL     1     -40.259  53.143 -54.625  1.00  0.00     0.001 A 
HETATM   13  C   UNL     1     -40.531  54.438 -55.043  1.00  0.00     0.001 A 
HETATM   14  C   UNL     1     -40.517  54.892 -49.795  1.00  0.00     0.082 C 
HETATM   15  C   UNL     1     -41.657  55.760 -50.293  1.00  0.00     0.048 C 
ENDBRANCH   3   6
ENDBRANCH   2   3
BRANCH   2  16
HETATM   16  C   UNL     1     -43.844  58.848 -53.320  1.00  0.00     0.135 C 
BRANCH  16  17
HETATM   17  C   UNL     1     -44.188  57.849 -54.408  1.00  0.00     0.224 C 
HETATM   18  N   UNL     1     -43.796  58.270 -55.663  1.00  0.00    -0.327 N 
HETATM   19  H   UNL     1     -43.468  59.222 -55.769  1.00  0.00     0.169 HD
HETATM   20  O   UNL     1     -44.772  56.811 -54.121  1.00  0.00    -0.273 OA
BRANCH  18  21
HETATM   21  C   UNL     1     -43.816  57.510 -56.853  1.00  0.00     0.034 A 
HETATM   22  C   UNL     1     -42.895  56.508 -57.153  1.00  0.00     0.032 A 
HETATM   23  C   UNL     1     -42.965  55.830 -58.375  1.00  0.00     0.039 A 
HETATM   24  C   UNL     1     -43.956  56.132 -59.309  1.00  0.00     0.068 A 
HETATM   25  C   UNL     1     -44.878  57.133 -59.015  1.00  0.00     0.039 A 
HETATM   26  C   UNL     1     -44.806  57.819 -57.795  1.00  0.00     0.032 A 
BRANCH  24  27
HETATM   27  O   UNL     1     -43.906  55.394 -60.458  1.00  0.00    -0.356 OA
HETATM   28  C   UNL     1     -45.130  55.200 -61.156  1.00  0.00     0.210 C 
ENDBRANCH  24  27
ENDBRANCH  18  21
ENDBRANCH  16  17
ENDBRANCH   2  16
TORSDOF 6
ENDMDL
MODEL 2
REMARK VINA RESULT:      -7.1      1.571      2.353
REMARK  6 active torsions:
REMARK  status: ('A' for Active; 'I' for Inactive)
REMARK    1  A    between atoms: C_2  and  N_3 
REMARK    2  A    between atoms: C_2  and  C_16 
REMARK    3  A    between atoms: N_3  and  C_6 
REMARK    4  A    between atoms: C_16  and  C_17 
REMARK       I    between atoms: C_17  and  N_18 
REMARK    5  A    between atoms: N_18  and  C_19 
REMARK    6  A    between atoms: C_22  and  O_23 
ROOT
HETATM    1  C   UNL     1     -43.656  57.360 -53.829  1.00  0.00     0.040 C 
HETATM    2  C   UNL     1     -42.253  56.765 -53.755  1.00  0.00     0.191 C 
ENDROOT
BRANCH   2   3
HETATM    3  N   UNL     1     -42.280  55.415 -53.044  1.00  0.00    -0.063 N 
HETATM    4  H   UNL     1     -43.116  55.376 -52.451  1.00  0.00     0.278 HD
HETATM    5  H   UNL     1     -42.422  54.693 -53.763  1.00  0.00     0.278 HD
BRANCH   3   6
HETATM    6  C   UNL     1     -41.091  54.942 -52.207  1.00  0.00     0.221 C 
HETATM    7  C   UNL     1     -40.571  53.568 -52.577  1.00  0.00    -0.011 A 
HETATM    8  C   UNL     1     -40.241  52.604 -51.607  1.00  0.00     0.009 A 
HETATM    9  C   UNL     1     -40.352  53.244 -53.936  1.00  0.00     0.011 A 
HETATM   10  C   UNL     1     -39.812  51.329 -52.003  1.00  0.00     0.019 A 
HETATM   11  S   UNL     1     -40.322  52.901 -49.852  1.00  0.00    -0.129 SA
HETATM   12  C   UNL     1     -39.658  51.012 -53.350  1.00  0.00     0.001 A 
HETATM   13  C   UNL     1     -39.913  51.975 -54.316  1.00  0.00     0.001 A 
HETATM   14  C   UNL     1     -40.282  54.708 -49.828  1.00  0.00     0.082 C 
HETATM   15  C   UNL     1     -41.392  55.218 -50.728  1.00  0.00     0.048 C 
ENDBRANCH   3   6
ENDBRANCH   2   3
BRANCH   2  16
HETATM   16  C   UNL     1     -41.673  56.532 -55.162  1.00  0.00     0.135 C 
BRANCH  16  17
HETATM   17  C   UNL     1     -42.745  55.993 -56.089  1.00  0.00     0.224 C 
HETATM   18  N   UNL     1     -43.092  56.887 -57.081  1.00  0.00    -0.327 N 
HETATM   19  H   UNL     1     -42.733  57.832 -57.023  1.00  0.00     0.169 HD
HETATM   20  O   UNL     1     -43.218  54.879 -55.894  1.00  0.00    -0.273 OA
BRANCH  18  21
HETATM   21  C   UNL     1     -43.926  56.634 -58.192  1.00  0.00     0.034 A 
HETATM   22  C   UNL     1     -45.080  57.360 -58.482  1.00  0.00     0.032 A 
HETATM   23  C   UNL     1     -45.871  57.016 -59.584  1.00  0.00     0.039 A 
HETATM   24  C   UNL     1     -45.521  55.953 -60.416  1.00  0.00     0.068 A 
HETATM   25  C   UNL     1     -44.370  55.222 -60.130  1.00  0.00     0.039 A 
HETATM   26  C   UNL     1     -43.580  55.560 -59.024  1.00  0.00     0.032 A 
BRANCH  24  27
HETATM   27  O   UNL     1     -46.382  55.728 -61.452  1.00  0.00    -0.356 OA
HETATM   28  C   UNL     1     -47.602  56.459 -61.450  1.00  0.00     0.210 C 
ENDBRANCH  24  27
ENDBRANCH  18  21
ENDBRANCH  16  17
ENDBRANCH   2  16
TORSDOF 6
ENDMDL
MODEL 3
REMARK VINA RESULT:      -7.1      1.171      1.238
REMARK  6 active torsions:
REMARK  status: ('A' for Active; 'I' for Inactive)
REMARK    1  A    between atoms: C_2  and  N_3 
REMARK    2  A    between atoms: C_2  and  C_16 
REMARK    3  A    between atoms: N_3  and  C_6 
REMARK    4  A    between atoms: C_16  and  C_17 
REMARK       I    between atoms: C_17  and  N_18 
REMARK    5  A    between atoms: N_18  and  C_19 
REMARK    6  A    between atoms: C_22  and  O_23 
ROOT
HETATM    1  C   UNL     1     -44.672  57.379 -51.301  1.00  0.00     0.040 C 
HETATM    2  C   UNL     1     -43.221  57.570 -51.736  1.00  0.00     0.191 C 
ENDROOT
BRANCH   2   3
HETATM    3  N   UNL     1     -42.676  56.291 -52.363  1.00  0.00    -0.063 N 
HETATM    4  H   UNL     1     -43.424  55.589 -52.375  1.00  0.00     0.278 HD
HETATM    5  H   UNL     1     -42.478  56.495 -53.351  1.00  0.00     0.278 HD
BRANCH   3   6
HETATM    6  C   UNL     1     -41.416  55.620 -51.814  1.00  0.00     0.221 C 
HETATM    7  C   UNL     1     -40.895  54.476 -52.661  1.00  0.00    -0.011 A 
HETATM    8  C   UNL     1     -40.470  53.259 -52.097  1.00  0.00     0.009 A 
HETATM    9  C   UNL     1     -40.774  54.639 -54.059  1.00  0.00     0.011 A 
HETATM   10  C   UNL     1     -40.044  52.214 -52.928  1.00  0.00     0.019 A 
HETATM   11  S   UNL     1     -40.423  52.945 -50.344  1.00  0.00    -0.129 SA
HETATM   12  C   UNL     1     -39.988  52.375 -54.310  1.00  0.00     0.001 A 
HETATM   13  C   UNL     1     -40.337  53.593 -54.875  1.00  0.00     0.001 A 
HETATM   14  C   UNL     1     -40.421  54.639 -49.713  1.00  0.00     0.082 C 
HETATM   15  C   UNL     1     -41.608  55.369 -50.313  1.00  0.00     0.048 C 
ENDBRANCH   3   6
ENDBRANCH   2   3
BRANCH   2  16
HETATM   16  C   UNL     1     -43.100  58.687 -52.789  1.00  0.00     0.135 C 
BRANCH  16  17
HETATM   17  C   UNL     1     -42.658  58.107 -54.119  1.00  0.00     0.224 C 
HETATM   18  N   UNL     1     -43.699  57.546 -54.830  1.00  0.00    -0.327 N 
HETATM   19  H   UNL     1     -44.593  57.438 -54.367  1.00  0.00     0.169 HD
HETATM   20  O   UNL     1     -41.477  58.153 -54.444  1.00  0.00    -0.273 OA
BRANCH  18  21
HETATM   21  C   UNL     1     -43.658  57.078 -56.161  1.00  0.00     0.034 A 
HETATM   22  C   UNL     1     -43.064  55.877 -56.547  1.00  0.00     0.032 A 
HETATM   23  C   UNL     1     -43.034  55.507 -57.896  1.00  0.00     0.039 A 
HETATM   24  C   UNL     1     -43.600  56.321 -58.877  1.00  0.00     0.068 A 
HETATM   25  C   UNL     1     -44.193  57.523 -58.498  1.00  0.00     0.039 A 
HETATM   26  C   UNL     1     -44.218  57.898 -57.149  1.00  0.00     0.032 A 
BRANCH  24  27
HETATM   27  O   UNL     1     -43.498  55.839 -60.151  1.00  0.00    -0.356 OA
HETATM   28  C   UNL     1     -44.691  55.356 -60.757  1.00  0.00     0.210 C 
ENDBRANCH  24  27
ENDBRANCH  18  21
ENDBRANCH  16  17
ENDBRANCH   2  16
TORSDOF 6
ENDMDL
MODEL 4
REMARK VINA RESULT:      -7.0      2.192      2.641
REMARK  6 active torsions:
REMARK  status: ('A' for Active; 'I' for Inactive)
REMARK    1  A    between atoms: C_2  and  N_3 
REMARK    2  A    between atoms: C_2  and  C_16 
REMARK    3  A    between atoms: N_3  and  C_6 
REMARK    4  A    between atoms: C_16  and  C_17 
REMARK       I    between atoms: C_17  and  N_18 
REMARK    5  A    between atoms: N_18  and  C_19 
REMARK    6  A    between atoms: C_22  and  O_23 
ROOT
HETATM    1  C   UNL     1     -44.548  57.443 -52.485  1.00  0.00     0.040 C 
HETATM    2  C   UNL     1     -43.514  56.545 -53.159  1.00  0.00     0.191 C 
ENDROOT
BRANCH   2   3
HETATM    3  N   UNL     1     -43.245  55.307 -52.310  1.00  0.00    -0.063 N 
HETATM    4  H   UNL     1     -43.946  55.264 -51.563  1.00  0.00     0.278 HD
HETATM    5  H   UNL     1     -43.427  54.485 -52.901  1.00  0.00     0.278 HD
BRANCH   3   6
HETATM    6  C   UNL     1     -41.873  55.070 -51.676  1.00  0.00     0.221 C 
HETATM    7  C   UNL     1     -41.102  53.908 -52.269  1.00  0.00    -0.011 A 
HETATM    8  C   UNL     1     -40.422  52.971 -51.468  1.00  0.00     0.009 A 
HETATM    9  C   UNL     1     -41.004  53.775 -53.673  1.00  0.00     0.011 A 
HETATM   10  C   UNL     1     -39.765  51.886 -52.063  1.00  0.00     0.019 A 
HETATM   11  S   UNL     1     -40.326  53.077 -49.692  1.00  0.00    -0.129 SA
HETATM   12  C   UNL     1     -39.730  51.741 -53.448  1.00  0.00     0.001 A 
HETATM   13  C   UNL     1     -40.336  52.695 -54.254  1.00  0.00     0.001 A 
HETATM   14  C   UNL     1     -40.708  54.827 -49.451  1.00  0.00     0.082 C 
HETATM   15  C   UNL     1     -42.021  55.125 -50.150  1.00  0.00     0.048 C 
ENDBRANCH   3   6
ENDBRANCH   2   3
BRANCH   2  16
HETATM   16  C   UNL     1     -44.010  56.061 -54.534  1.00  0.00     0.135 C 
BRANCH  16  17
HETATM   17  C   UNL     1     -43.085  56.555 -55.629  1.00  0.00     0.224 C 
HETATM   18  N   UNL     1     -43.756  56.874 -56.792  1.00  0.00    -0.327 N 
HETATM   19  H   UNL     1     -44.734  56.623 -56.866  1.00  0.00     0.169 HD
HETATM   20  O   UNL     1     -41.877  56.614 -55.429  1.00  0.00    -0.273 OA
BRANCH  18  21
HETATM   21  C   UNL     1     -43.217  57.514 -57.930  1.00  0.00     0.034 A 
HETATM   22  C   UNL     1     -43.169  58.897 -58.098  1.00  0.00     0.032 A 
HETATM   23  C   UNL     1     -42.652  59.446 -59.276  1.00  0.00     0.039 A 
HETATM   24  C   UNL     1     -42.169  58.630 -60.298  1.00  0.00     0.068 A 
HETATM   25  C   UNL     1     -42.217  57.247 -60.138  1.00  0.00     0.039 A 
HETATM   26  C   UNL     1     -42.740  56.694 -58.962  1.00  0.00     0.032 A 
BRANCH  24  27
HETATM   27  O   UNL     1     -41.696  59.298 -61.391  1.00  0.00    -0.356 OA
HETATM   28  C   UNL     1     -41.795  60.717 -61.375  1.00  0.00     0.210 C 
ENDBRANCH  24  27
ENDBRANCH  18  21
ENDBRANCH  16  17
ENDBRANCH   2  16
TORSDOF 6
ENDMDL
MODEL 5
REMARK VINA RESULT:      -6.9      2.996      6.751
REMARK  6 active torsions:
REMARK  status: ('A' for Active; 'I' for Inactive)
REMARK    1  A    between atoms: C_2  and  N_3 
REMARK    2  A    between atoms: C_2  and  C_16 
REMARK    3  A    between atoms: N_3  and  C_6 
REMARK    4  A    between atoms: C_16  and  C_17 
REMARK       I    between atoms: C_17  and  N_18 
REMARK    5  A    between atoms: N_18  and  C_19 
REMARK    6  A    between atoms: C_22  and  O_23 
ROOT
HETATM    1  C   UNL     1     -45.002  57.813 -54.874  1.00  0.00     0.040 C 
HETATM    2  C   UNL     1     -43.597  57.437 -54.411  1.00  0.00     0.191 C 
ENDROOT
BRANCH   2   3
HETATM    3  N   UNL     1     -43.653  56.686 -53.084  1.00  0.00    -0.063 N 
HETATM    4  H   UNL     1     -44.624  56.409 -52.907  1.00  0.00     0.278 HD
HETATM    5  H   UNL     1     -43.136  55.805 -53.209  1.00  0.00     0.278 HD
BRANCH   3   6
HETATM    6  C   UNL     1     -43.104  57.314 -51.802  1.00  0.00     0.221 C 
HETATM    7  C   UNL     1     -43.849  58.550 -51.341  1.00  0.00    -0.011 A 
HETATM    8  C   UNL     1     -43.181  59.707 -50.897  1.00  0.00     0.009 A 
HETATM    9  C   UNL     1     -45.262  58.542 -51.297  1.00  0.00     0.011 A 
HETATM   10  C   UNL     1     -43.916  60.842 -50.529  1.00  0.00     0.019 A 
HETATM   11  S   UNL     1     -41.409  59.831 -50.755  1.00  0.00    -0.129 SA
HETATM   12  C   UNL     1     -45.308  60.832 -50.548  1.00  0.00     0.001 A 
HETATM   13  C   UNL     1     -45.982  59.676 -50.917  1.00  0.00     0.001 A 
HETATM   14  C   UNL     1     -40.966  58.079 -50.701  1.00  0.00     0.082 C 
HETATM   15  C   UNL     1     -41.576  57.399 -51.913  1.00  0.00     0.048 C 
ENDBRANCH   3   6
ENDBRANCH   2   3
BRANCH   2  16
HETATM   16  C   UNL     1     -42.904  56.516 -55.432  1.00  0.00     0.135 C 
BRANCH  16  17
HETATM   17  C   UNL     1     -42.685  55.140 -54.833  1.00  0.00     0.224 C 
HETATM   18  N   UNL     1     -41.364  54.901 -54.513  1.00  0.00    -0.327 N 
HETATM   19  H   UNL     1     -40.666  55.565 -54.825  1.00  0.00     0.169 HD
HETATM   20  O   UNL     1     -43.631  54.373 -54.701  1.00  0.00    -0.273 OA
BRANCH  18  21
HETATM   21  C   UNL     1     -40.855  53.798 -53.793  1.00  0.00     0.034 A 
HETATM   22  C   UNL     1     -40.775  53.744 -52.403  1.00  0.00     0.032 A 
HETATM   23  C   UNL     1     -40.220  52.626 -51.771  1.00  0.00     0.039 A 
HETATM   24  C   UNL     1     -39.747  51.543 -52.513  1.00  0.00     0.068 A 
HETATM   25  C   UNL     1     -39.823  51.592 -53.902  1.00  0.00     0.039 A 
HETATM   26  C   UNL     1     -40.372  52.713 -54.537  1.00  0.00     0.032 A 
BRANCH  24  27
HETATM   27  O   UNL     1     -39.231  50.520 -51.769  1.00  0.00    -0.356 OA
HETATM   28  C   UNL     1     -39.886  50.217 -50.543  1.00  0.00     0.210 C 
ENDBRANCH  24  27
ENDBRANCH  18  21
ENDBRANCH  16  17
ENDBRANCH   2  16
TORSDOF 6
ENDMDL
MODEL 6
REMARK VINA RESULT:      -6.9      3.231      6.690
REMARK  6 active torsions:
REMARK  status: ('A' for Active; 'I' for Inactive)
REMARK    1  A    between atoms: C_2  and  N_3 
REMARK    2  A    between atoms: C_2  and  C_16 
REMARK    3  A    between atoms: N_3  and  C_6 
REMARK    4  A    between atoms: C_16  and  C_17 
REMARK       I    between atoms: C_17  and  N_18 
REMARK    5  A    between atoms: N_18  and  C_19 
REMARK    6  A    between atoms: C_22  and  O_23 
ROOT
HETATM    1  C   UNL     1     -40.900  58.993 -53.011  1.00  0.00     0.040 C 
HETATM    2  C   UNL     1     -42.249  58.568 -53.582  1.00  0.00     0.191 C 
ENDROOT
BRANCH   2   3
HETATM    3  N   UNL     1     -42.076  57.958 -54.970  1.00  0.00    -0.063 N 
HETATM    4  H   UNL     1     -41.073  57.849 -55.155  1.00  0.00     0.278 HD
HETATM    5  H   UNL     1     -42.452  57.002 -54.934  1.00  0.00     0.278 HD
BRANCH   3   6
HETATM    6  C   UNL     1     -42.710  58.610 -56.200  1.00  0.00     0.221 C 
HETATM    7  C   UNL     1     -42.721  57.733 -57.437  1.00  0.00    -0.011 A 
HETATM    8  C   UNL     1     -42.370  58.225 -58.708  1.00  0.00     0.009 A 
HETATM    9  C   UNL     1     -43.149  56.390 -57.340  1.00  0.00     0.011 A 
HETATM   10  C   UNL     1     -42.349  57.361 -59.812  1.00  0.00     0.019 A 
HETATM   11  S   UNL     1     -41.948  59.926 -59.027  1.00  0.00    -0.129 SA
HETATM   12  C   UNL     1     -42.718  56.025 -59.683  1.00  0.00     0.001 A 
HETATM   13  C   UNL     1     -43.134  55.543 -58.449  1.00  0.00     0.001 A 
HETATM   14  C   UNL     1     -42.692  60.720 -57.584  1.00  0.00     0.082 C 
HETATM   15  C   UNL     1     -42.159  60.035 -56.339  1.00  0.00     0.048 C 
ENDBRANCH   3   6
ENDBRANCH   2   3
BRANCH   2  16
HETATM   16  C   UNL     1     -42.918  57.503 -52.693  1.00  0.00     0.135 C 
BRANCH  16  17
HETATM   17  C   UNL     1     -42.599  56.113 -53.209  1.00  0.00     0.224 C 
HETATM   18  N   UNL     1     -41.363  55.660 -52.793  1.00  0.00    -0.327 N 
HETATM   19  H   UNL     1     -40.742  56.314 -52.332  1.00  0.00     0.169 HD
HETATM   20  O   UNL     1     -43.399  55.531 -53.931  1.00  0.00    -0.273 OA
BRANCH  18  21
HETATM   21  C   UNL     1     -40.842  54.358 -52.956  1.00  0.00     0.034 A 
HETATM   22  C   UNL     1     -40.632  53.752 -54.194  1.00  0.00     0.032 A 
HETATM   23  C   UNL     1     -40.147  52.441 -54.263  1.00  0.00     0.039 A 
HETATM   24  C   UNL     1     -39.858  51.720 -53.105  1.00  0.00     0.068 A 
HETATM   25  C   UNL     1     -40.069  52.319 -51.866  1.00  0.00     0.039 A 
HETATM   26  C   UNL     1     -40.560  53.629 -51.794  1.00  0.00     0.032 A 
BRANCH  24  27
HETATM   27  O   UNL     1     -39.394  50.453 -53.319  1.00  0.00    -0.356 OA
HETATM   28  C   UNL     1     -39.737  49.838 -54.555  1.00  0.00     0.210 C 
ENDBRANCH  24  27
ENDBRANCH  18  21
ENDBRANCH  16  17
ENDBRANCH   2  16
TORSDOF 6
ENDMDL
MODEL 7
REMARK VINA RESULT:      -6.8     15.905     17.306
REMARK  6 active torsions:
REMARK  status: ('A' for Active; 'I' for Inactive)
REMARK    1  A    between atoms: C_2  and  N_3 
REMARK    2  A    between atoms: C_2  and  C_16 
REMARK    3  A    between atoms: N_3  and  C_6 
REMARK    4  A    between atoms: C_16  and  C_17 
REMARK       I    between atoms: C_17  and  N_18 
REMARK    5  A    between atoms: N_18  and  C_19 
REMARK    6  A    between atoms: C_22  and  O_23 
ROOT
HETATM    1  C   UNL     1     -33.486  40.714 -55.348  1.00  0.00     0.040 C 
HETATM    2  C   UNL     1     -34.861  41.377 -55.326  1.00  0.00     0.191 C 
ENDROOT
BRANCH   2   3
HETATM    3  N   UNL     1     -34.986  42.311 -54.126  1.00  0.00    -0.063 N 
HETATM    4  H   UNL     1     -34.050  42.477 -53.743  1.00  0.00     0.278 HD
HETATM    5  H   UNL     1     -35.301  43.224 -54.481  1.00  0.00     0.278 HD
BRANCH   3   6
HETATM    6  C   UNL     1     -35.916  41.974 -52.960  1.00  0.00     0.221 C 
HETATM    7  C   UNL     1     -35.273  41.142 -51.868  1.00  0.00    -0.011 A 
HETATM    8  C   UNL     1     -35.926  40.041 -51.282  1.00  0.00     0.009 A 
HETATM    9  C   UNL     1     -34.001  41.501 -51.370  1.00  0.00     0.011 A 
HETATM   10  C   UNL     1     -35.269  39.273 -50.311  1.00  0.00     0.019 A 
HETATM   11  S   UNL     1     -37.587  39.543 -51.693  1.00  0.00    -0.129 SA
HETATM   12  C   UNL     1     -33.990  39.610 -49.876  1.00  0.00     0.001 A 
HETATM   13  C   UNL     1     -33.362  40.735 -50.394  1.00  0.00     0.001 A 
HETATM   14  C   UNL     1     -38.211  41.075 -52.422  1.00  0.00     0.082 C 
HETATM   15  C   UNL     1     -37.259  41.496 -53.526  1.00  0.00     0.048 C 
ENDBRANCH   3   6
ENDBRANCH   2   3
BRANCH   2  16
HETATM   16  C   UNL     1     -35.091  42.221 -56.593  1.00  0.00     0.135 C 
BRANCH  16  17
HETATM   17  C   UNL     1     -36.322  41.732 -57.332  1.00  0.00     0.224 C 
HETATM   18  N   UNL     1     -36.041  40.717 -58.224  1.00  0.00    -0.327 N 
HETATM   19  H   UNL     1     -35.071  40.497 -58.412  1.00  0.00     0.169 HD
HETATM   20  O   UNL     1     -37.410  42.253 -57.118  1.00  0.00    -0.273 OA
BRANCH  18  21
HETATM   21  C   UNL     1     -36.977  39.936 -58.937  1.00  0.00     0.034 A 
HETATM   22  C   UNL     1     -37.833  39.010 -58.344  1.00  0.00     0.032 A 
HETATM   23  C   UNL     1     -38.704  38.250 -59.132  1.00  0.00     0.039 A 
HETATM   24  C   UNL     1     -38.742  38.407 -60.518  1.00  0.00     0.068 A 
HETATM   25  C   UNL     1     -37.887  39.329 -61.116  1.00  0.00     0.039 A 
HETATM   26  C   UNL     1     -37.009  40.087 -60.330  1.00  0.00     0.032 A 
BRANCH  24  27
HETATM   27  O   UNL     1     -39.637  37.601 -61.162  1.00  0.00    -0.356 OA
HETATM   28  C   UNL     1     -39.755  37.762 -62.570  1.00  0.00     0.210 C 
ENDBRANCH  24  27
ENDBRANCH  18  21
ENDBRANCH  16  17
ENDBRANCH   2  16
TORSDOF 6
ENDMDL
MODEL 8
REMARK VINA RESULT:      -6.7      3.003      7.244
REMARK  6 active torsions:
REMARK  status: ('A' for Active; 'I' for Inactive)
REMARK    1  A    between atoms: C_2  and  N_3 
REMARK    2  A    between atoms: C_2  and  C_16 
REMARK    3  A    between atoms: N_3  and  C_6 
REMARK    4  A    between atoms: C_16  and  C_17 
REMARK       I    between atoms: C_17  and  N_18 
REMARK    5  A    between atoms: N_18  and  C_19 
REMARK    6  A    between atoms: C_22  and  O_23 
ROOT
HETATM    1  C   UNL     1     -42.544  59.123 -56.125  1.00  0.00     0.040 C 
HETATM    2  C   UNL     1     -43.758  58.489 -55.451  1.00  0.00     0.191 C 
ENDROOT
BRANCH   2   3
HETATM    3  N   UNL     1     -44.235  57.273 -56.239  1.00  0.00    -0.063 N 
HETATM    4  H   UNL     1     -43.900  56.426 -55.767  1.00  0.00     0.278 HD
HETATM    5  H   UNL     1     -45.260  57.241 -56.162  1.00  0.00     0.278 HD
BRANCH   3   6
HETATM    6  C   UNL     1     -43.924  57.131 -57.730  1.00  0.00     0.221 C 
HETATM    7  C   UNL     1     -45.099  57.414 -58.644  1.00  0.00    -0.011 A 
HETATM    8  C   UNL     1     -45.409  56.593 -59.745  1.00  0.00     0.009 A 
HETATM    9  C   UNL     1     -45.889  58.567 -58.434  1.00  0.00     0.011 A 
HETATM   10  C   UNL     1     -46.536  56.871 -60.531  1.00  0.00     0.019 A 
HETATM   11  S   UNL     1     -44.431  55.186 -60.233  1.00  0.00    -0.129 SA
HETATM   12  C   UNL     1     -47.335  57.980 -60.270  1.00  0.00     0.001 A 
HETATM   13  C   UNL     1     -47.002  58.838 -59.230  1.00  0.00     0.001 A 
HETATM   14  C   UNL     1     -42.867  55.581 -59.418  1.00  0.00     0.082 C 
HETATM   15  C   UNL     1     -43.149  55.825 -57.947  1.00  0.00     0.048 C 
ENDBRANCH   3   6
ENDBRANCH   2   3
BRANCH   2  16
HETATM   16  C   UNL     1     -43.415  58.009 -54.028  1.00  0.00     0.135 C 
BRANCH  16  17
HETATM   17  C   UNL     1     -43.131  56.520 -54.031  1.00  0.00     0.224 C 
HETATM   18  N   UNL     1     -41.783  56.233 -54.094  1.00  0.00    -0.327 N 
HETATM   19  H   UNL     1     -41.138  56.992 -54.276  1.00  0.00     0.169 HD
HETATM   20  O   UNL     1     -44.060  55.720 -54.001  1.00  0.00    -0.273 OA
BRANCH  18  21
HETATM   21  C   UNL     1     -41.181  54.964 -53.946  1.00  0.00     0.034 A 
HETATM   22  C   UNL     1     -40.714  54.194 -55.010  1.00  0.00     0.032 A 
HETATM   23  C   UNL     1     -40.165  52.928 -54.776  1.00  0.00     0.039 A 
HETATM   24  C   UNL     1     -40.066  52.416 -53.483  1.00  0.00     0.068 A 
HETATM   25  C   UNL     1     -40.534  53.180 -52.416  1.00  0.00     0.039 A 
HETATM   26  C   UNL     1     -41.089  54.444 -52.648  1.00  0.00     0.032 A 
BRANCH  24  27
HETATM   27  O   UNL     1     -39.512  51.170 -53.400  1.00  0.00    -0.356 OA
HETATM   28  C   UNL     1     -39.986  50.189 -54.315  1.00  0.00     0.210 C 
ENDBRANCH  24  27
ENDBRANCH  18  21
ENDBRANCH  16  17
ENDBRANCH   2  16
TORSDOF 6
ENDMDL
MODEL 9
REMARK VINA RESULT:      -6.7     15.918     18.683
REMARK  6 active torsions:
REMARK  status: ('A' for Active; 'I' for Inactive)
REMARK    1  A    between atoms: C_2  and  N_3 
REMARK    2  A    between atoms: C_2  and  C_16 
REMARK    3  A    between atoms: N_3  and  C_6 
REMARK    4  A    between atoms: C_16  and  C_17 
REMARK       I    between atoms: C_17  and  N_18 
REMARK    5  A    between atoms: N_18  and  C_19 
REMARK    6  A    between atoms: C_22  and  O_23 
ROOT
HETATM    1  C   UNL     1     -38.792  41.157 -55.675  1.00  0.00     0.040 C 
HETATM    2  C   UNL     1     -37.513  41.025 -54.852  1.00  0.00     0.191 C 
ENDROOT
BRANCH   2   3
HETATM    3  N   UNL     1     -36.387  41.844 -55.477  1.00  0.00    -0.063 N 
HETATM    4  H   UNL     1     -36.794  42.677 -55.915  1.00  0.00     0.278 HD
HETATM    5  H   UNL     1     -35.803  42.198 -54.707  1.00  0.00     0.278 HD
BRANCH   3   6
HETATM    6  C   UNL     1     -35.419  41.214 -56.479  1.00  0.00     0.221 C 
HETATM    7  C   UNL     1     -36.026  40.920 -57.836  1.00  0.00    -0.011 A 
HETATM    8  C   UNL     1     -35.799  39.707 -58.512  1.00  0.00     0.009 A 
HETATM    9  C   UNL     1     -36.803  41.907 -58.485  1.00  0.00     0.011 A 
HETATM   10  C   UNL     1     -36.425  39.464 -59.743  1.00  0.00     0.019 A 
HETATM   11  S   UNL     1     -34.730  38.420 -57.901  1.00  0.00    -0.129 SA
HETATM   12  C   UNL     1     -37.235  40.427 -60.338  1.00  0.00     0.001 A 
HETATM   13  C   UNL     1     -37.411  41.656 -59.716  1.00  0.00     0.001 A 
HETATM   14  C   UNL     1     -33.721  39.365 -56.735  1.00  0.00     0.082 C 
HETATM   15  C   UNL     1     -34.653  40.085 -55.779  1.00  0.00     0.048 C 
ENDBRANCH   3   6
ENDBRANCH   2   3
BRANCH   2  16
HETATM   16  C   UNL     1     -37.719  41.545 -53.418  1.00  0.00     0.135 C 
BRANCH  16  17
HETATM   17  C   UNL     1     -36.384  41.676 -52.710  1.00  0.00     0.224 C 
HETATM   18  N   UNL     1     -36.072  40.568 -51.948  1.00  0.00    -0.327 N 
HETATM   19  H   UNL     1     -36.787  39.863 -51.810  1.00  0.00     0.169 HD
HETATM   20  O   UNL     1     -35.723  42.700 -52.837  1.00  0.00    -0.273 OA
BRANCH  18  21
HETATM   21  C   UNL     1     -34.843  40.302 -51.307  1.00  0.00     0.034 A 
HETATM   22  C   UNL     1     -34.731  39.752 -50.031  1.00  0.00     0.032 A 
HETATM   23  C   UNL     1     -33.471  39.557 -49.455  1.00  0.00     0.039 A 
HETATM   24  C   UNL     1     -32.307  39.900 -50.142  1.00  0.00     0.068 A 
HETATM   25  C   UNL     1     -32.411  40.452 -51.416  1.00  0.00     0.039 A 
HETATM   26  C   UNL     1     -33.672  40.654 -51.993  1.00  0.00     0.032 A 
BRANCH  24  27
HETATM   27  O   UNL     1     -31.147  39.658 -49.461  1.00  0.00    -0.356 OA
HETATM   28  C   UNL     1     -31.219  39.656 -48.041  1.00  0.00     0.210 C 
ENDBRANCH  24  27
ENDBRANCH  18  21
ENDBRANCH  16  17
ENDBRANCH   2  16
TORSDOF 6
ENDMDL
MODEL 10
REMARK VINA RESULT:      -6.7      2.700      6.413
REMARK  6 active torsions:
REMARK  status: ('A' for Active; 'I' for Inactive)
REMARK    1  A    between atoms: C_2  and  N_3 
REMARK    2  A    between atoms: C_2  and  C_16 
REMARK    3  A    between atoms: N_3  and  C_6 
REMARK    4  A    between atoms: C_16  and  C_17 
REMARK       I    between atoms: C_17  and  N_18 
REMARK    5  A    between atoms: N_18  and  C_19 
REMARK    6  A    between atoms: C_22  and  O_23 
ROOT
HETATM    1  C   UNL     1     -44.497  57.965 -56.774  1.00  0.00     0.040 C 
HETATM    2  C   UNL     1     -43.062  57.714 -56.317  1.00  0.00     0.191 C 
ENDROOT
BRANCH   2   3
HETATM    3  N   UNL     1     -42.993  57.623 -54.795  1.00  0.00    -0.063 N 
HETATM    4  H   UNL     1     -43.709  56.962 -54.475  1.00  0.00     0.278 HD
HETATM    5  H   UNL     1     -42.093  57.186 -54.555  1.00  0.00     0.278 HD
BRANCH   3   6
HETATM    6  C   UNL     1     -43.093  58.878 -53.926  1.00  0.00     0.221 C 
HETATM    7  C   UNL     1     -41.985  59.020 -52.902  1.00  0.00    -0.011 A 
HETATM    8  C   UNL     1     -42.239  59.402 -51.571  1.00  0.00     0.009 A 
HETATM    9  C   UNL     1     -40.641  58.819 -53.290  1.00  0.00     0.011 A 
HETATM   10  C   UNL     1     -41.185  59.471 -50.649  1.00  0.00     0.019 A 
HETATM   11  S   UNL     1     -43.856  59.830 -50.957  1.00  0.00    -0.129 SA
HETATM   12  C   UNL     1     -39.874  59.212 -51.039  1.00  0.00     0.001 A 
HETATM   13  C   UNL     1     -39.600  58.901 -52.365  1.00  0.00     0.001 A 
HETATM   14  C   UNL     1     -44.700  60.211 -52.510  1.00  0.00     0.082 C 
HETATM   15  C   UNL     1     -44.540  59.023 -53.439  1.00  0.00     0.048 C 
ENDBRANCH   3   6
ENDBRANCH   2   3
BRANCH   2  16
HETATM   16  C   UNL     1     -42.523  56.387 -56.882  1.00  0.00     0.135 C 
BRANCH  16  17
HETATM   17  C   UNL     1     -42.479  55.333 -55.793  1.00  0.00     0.224 C 
HETATM   18  N   UNL     1     -41.192  54.961 -55.462  1.00  0.00    -0.327 N 
HETATM   19  H   UNL     1     -40.432  55.291 -56.044  1.00  0.00     0.169 HD
HETATM   20  O   UNL     1     -43.522  54.894 -55.325  1.00  0.00    -0.273 OA
BRANCH  18  21
HETATM   21  C   UNL     1     -40.802  54.136 -54.384  1.00  0.00     0.034 A 
HETATM   22  C   UNL     1     -40.339  52.829 -54.530  1.00  0.00     0.032 A 
HETATM   23  C   UNL     1     -40.010  52.068 -53.403  1.00  0.00     0.039 A 
HETATM   24  C   UNL     1     -40.128  52.599 -52.119  1.00  0.00     0.068 A 
HETATM   25  C   UNL     1     -40.592  53.903 -51.966  1.00  0.00     0.039 A 
HETATM   26  C   UNL     1     -40.928  54.665 -53.093  1.00  0.00     0.032 A 
BRANCH  24  27
HETATM   27  O   UNL     1     -39.774  51.746 -51.111  1.00  0.00    -0.356 OA
HETATM   28  C   UNL     1     -39.503  50.397 -51.471  1.00  0.00     0.210 C 
ENDBRANCH  24  27
ENDBRANCH  18  21
ENDBRANCH  16  17
ENDBRANCH   2  16
TORSDOF 6
ENDMDL
