MODEL 1
REMARK VINA RESULT:      -8.4      0.000      0.000
REMARK  7 active torsions:
REMARK  status: ('A' for Active; 'I' for Inactive)
REMARK    1  A    between atoms: O_2  and  C_3 
REMARK    2  A    between atoms: C_3  and  C_4 
REMARK    3  A    between atoms: C_5  and  N_6 
REMARK       I    between atoms: N_6  and  C_7 
REMARK    4  A    between atoms: C_7  and  C_8 
REMARK    5  A    between atoms: C_8  and  N_9 
REMARK    6  A    between atoms: C_11  and  C_12 
REMARK    7  A    between atoms: C_20  and  O_21 
ROOT
HETATM    1  N   UNL     1     -44.525  57.519 -55.954  1.00  0.00    -0.054 N 
HETATM    2  H   UNL     1     -44.988  56.771 -56.476  1.00  0.00     0.281 HD
HETATM    3  C   UNL     1     -43.018  57.307 -56.098  1.00  0.00     0.228 C 
HETATM    4  C   UNL     1     -42.599  57.346 -57.606  1.00  0.00     0.055 C 
HETATM    5  C   UNL     1     -43.111  58.633 -58.300  1.00  0.00     0.065 C 
HETATM    6  C   UNL     1     -44.602  58.867 -58.031  1.00  0.00     0.066 C 
HETATM    7  C   UNL     1     -44.935  58.840 -56.554  1.00  0.00     0.239 C 
HETATM    8  C   UNL     1     -42.981  56.119 -58.451  1.00  0.00     0.010 C 
HETATM    9  C   UNL     1     -42.401  56.182 -59.871  1.00  0.00     0.001 C 
HETATM   10  C   UNL     1     -41.910  57.567 -60.282  1.00  0.00     0.003 C 
HETATM   11  C   UNL     1     -42.880  58.649 -59.830  1.00  0.00     0.038 C 
ENDROOT
BRANCH   1  12
HETATM   12  C   UNL     1     -45.072  57.414 -54.504  1.00  0.00     0.338 C 
BRANCH  12  13
HETATM   13  C   UNL     1     -44.735  58.564 -53.543  1.00  0.00     0.248 C 
HETATM   14  N   UNL     1     -43.560  58.577 -52.847  1.00  0.00    -0.319 N 
HETATM   15  H   UNL     1     -43.233  59.518 -52.610  1.00  0.00     0.169 HD
HETATM   16  O   UNL     1     -45.451  59.569 -53.509  1.00  0.00    -0.271 OA
BRANCH  14  17
HETATM   17  C   UNL     1     -42.885  57.565 -52.179  1.00  0.00     0.094 A 
HETATM   18  C   UNL     1     -41.579  57.618 -51.698  1.00  0.00     0.080 A 
HETATM   19  C   UNL     1     -41.267  56.420 -50.936  1.00  0.00    -0.026 A 
HETATM   20  C   UNL     1     -42.363  55.583 -50.842  1.00  0.00    -0.008 A 
HETATM   21  C   UNL     1     -39.977  56.094 -50.226  1.00  0.00     0.041 C 
HETATM   22  S   UNL     1     -43.701  56.163 -51.691  1.00  0.00    -0.075 SA
HETATM   23  C   UNL     1     -42.411  54.293 -50.080  1.00  0.00     0.047 C 
HETATM   24  C   UNL     1     -41.276  54.245 -49.049  1.00  0.00     0.005 C 
HETATM   25  C   UNL     1     -39.942  54.655 -49.683  1.00  0.00     0.005 C 
BRANCH  18  26
HETATM   26  C   UNL     1     -40.706  58.772 -51.961  1.00  0.00     0.296 C 
HETATM   27  O   UNL     1     -40.317  59.053 -53.089  1.00  0.00    -0.259 OA
BRANCH  26  28
HETATM   28  O   UNL     1     -40.380  59.475 -50.842  1.00  0.00    -0.322 OA
HETATM   29  C   UNL     1     -38.978  59.586 -50.592  1.00  0.00     0.213 C 
ENDBRANCH  26  28
ENDBRANCH  18  26
ENDBRANCH  14  17
ENDBRANCH  12  13
ENDBRANCH   1  12
BRANCH   3  30
HETATM   30  C   UNL     1     -42.466  56.075 -55.390  1.00  0.00    -0.027 A 
HETATM   31  C   UNL     1     -43.212  54.897 -55.200  1.00  0.00     0.012 A 
HETATM   32  C   UNL     1     -42.642  53.788 -54.570  1.00  0.00     0.043 A 
HETATM   33  C   UNL     1     -41.325  53.844 -54.130  1.00  0.00     0.116 A 
HETATM   34  F   UNL     1     -40.784  52.774 -53.534  1.00  0.00    -0.206 F 
HETATM   35  C   UNL     1     -40.566  54.990 -54.305  1.00  0.00     0.043 A 
HETATM   36  C   UNL     1     -41.132  56.101 -54.934  1.00  0.00     0.012 A 
ENDBRANCH   3  30
BRANCH   5  37
HETATM   37  O   UNL     1     -42.417  59.736 -57.711  1.00  0.00    -0.389 OA
HETATM   38  H   UNL     1     -41.463  59.528 -57.667  1.00  0.00     0.210 HD
ENDBRANCH   5  37
TORSDOF 7
ENDMDL
MODEL 2
REMARK VINA RESULT:      -8.3      3.445      6.272
REMARK  7 active torsions:
REMARK  status: ('A' for Active; 'I' for Inactive)
REMARK    1  A    between atoms: O_2  and  C_3 
REMARK    2  A    between atoms: C_3  and  C_4 
REMARK    3  A    between atoms: C_5  and  N_6 
REMARK       I    between atoms: N_6  and  C_7 
REMARK    4  A    between atoms: C_7  and  C_8 
REMARK    5  A    between atoms: C_8  and  N_9 
REMARK    6  A    between atoms: C_11  and  C_12 
REMARK    7  A    between atoms: C_20  and  O_21 
ROOT
HETATM    1  N   UNL     1     -43.859  59.129 -52.621  1.00  0.00    -0.054 N 
HETATM    2  H   UNL     1     -43.657  60.018 -53.086  1.00  0.00     0.281 HD
HETATM    3  C   UNL     1     -43.209  59.184 -51.238  1.00  0.00     0.228 C 
HETATM    4  C   UNL     1     -43.779  60.384 -50.409  1.00  0.00     0.055 C 
HETATM    5  C   UNL     1     -45.328  60.349 -50.363  1.00  0.00     0.065 C 
HETATM    6  C   UNL     1     -45.933  60.176 -51.761  1.00  0.00     0.066 C 
HETATM    7  C   UNL     1     -45.355  58.987 -52.498  1.00  0.00     0.239 C 
HETATM    8  C   UNL     1     -43.308  61.787 -50.827  1.00  0.00     0.010 C 
HETATM    9  C   UNL     1     -43.800  62.880 -49.868  1.00  0.00     0.001 C 
HETATM   10  C   UNL     1     -44.936  62.438 -48.951  1.00  0.00     0.003 C 
HETATM   11  C   UNL     1     -45.958  61.602 -49.708  1.00  0.00     0.038 C 
ENDROOT
BRANCH   1  12
HETATM   12  C   UNL     1     -43.306  58.029 -53.568  1.00  0.00     0.338 C 
BRANCH  12  13
HETATM   13  C   UNL     1     -44.290  56.942 -54.027  1.00  0.00     0.248 C 
HETATM   14  N   UNL     1     -44.166  55.653 -53.592  1.00  0.00    -0.319 N 
HETATM   15  H   UNL     1     -45.051  55.139 -53.572  1.00  0.00     0.169 HD
HETATM   16  O   UNL     1     -45.297  57.252 -54.669  1.00  0.00    -0.271 OA
BRANCH  14  17
HETATM   17  C   UNL     1     -43.047  54.847 -53.438  1.00  0.00     0.094 A 
HETATM   18  C   UNL     1     -42.473  54.449 -52.233  1.00  0.00     0.080 A 
HETATM   19  C   UNL     1     -41.399  53.498 -52.468  1.00  0.00    -0.026 A 
HETATM   20  C   UNL     1     -41.275  53.200 -53.812  1.00  0.00    -0.008 A 
HETATM   21  C   UNL     1     -40.544  52.805 -51.436  1.00  0.00     0.041 C 
HETATM   22  S   UNL     1     -42.352  54.073 -54.775  1.00  0.00    -0.075 SA
HETATM   23  C   UNL     1     -40.310  52.216 -54.401  1.00  0.00     0.047 C 
HETATM   24  C   UNL     1     -39.812  51.251 -53.318  1.00  0.00     0.005 C 
HETATM   25  C   UNL     1     -39.382  52.014 -52.060  1.00  0.00     0.005 C 
BRANCH  18  26
HETATM   26  C   UNL     1     -42.959  54.959 -50.942  1.00  0.00     0.296 C 
HETATM   27  O   UNL     1     -44.001  54.559 -50.432  1.00  0.00    -0.259 OA
BRANCH  26  28
HETATM   28  O   UNL     1     -42.151  55.904 -50.389  1.00  0.00    -0.322 OA
HETATM   29  C   UNL     1     -41.405  55.464 -49.253  1.00  0.00     0.213 C 
ENDBRANCH  26  28
ENDBRANCH  18  26
ENDBRANCH  14  17
ENDBRANCH  12  13
ENDBRANCH   1  12
BRANCH   3  30
HETATM   30  C   UNL     1     -41.684  59.173 -51.237  1.00  0.00    -0.027 A 
HETATM   31  C   UNL     1     -40.915  59.020 -52.405  1.00  0.00     0.012 A 
HETATM   32  C   UNL     1     -39.519  59.048 -52.347  1.00  0.00     0.043 A 
HETATM   33  C   UNL     1     -38.882  59.232 -51.126  1.00  0.00     0.116 A 
HETATM   34  F   UNL     1     -37.545  59.264 -51.079  1.00  0.00    -0.206 F 
HETATM   35  C   UNL     1     -39.614  59.386 -49.959  1.00  0.00     0.043 A 
HETATM   36  C   UNL     1     -41.009  59.359 -50.014  1.00  0.00     0.012 A 
ENDBRANCH   3  30
BRANCH   5  37
HETATM   37  O   UNL     1     -45.704  59.191 -49.614  1.00  0.00    -0.389 OA
HETATM   38  H   UNL     1     -46.269  59.463 -48.865  1.00  0.00     0.210 HD
ENDBRANCH   5  37
TORSDOF 7
ENDMDL
MODEL 3
REMARK VINA RESULT:      -7.9      2.912      7.666
REMARK  7 active torsions:
REMARK  status: ('A' for Active; 'I' for Inactive)
REMARK    1  A    between atoms: O_2  and  C_3 
REMARK    2  A    between atoms: C_3  and  C_4 
REMARK    3  A    between atoms: C_5  and  N_6 
REMARK       I    between atoms: N_6  and  C_7 
REMARK    4  A    between atoms: C_7  and  C_8 
REMARK    5  A    between atoms: C_8  and  N_9 
REMARK    6  A    between atoms: C_11  and  C_12 
REMARK    7  A    between atoms: C_20  and  O_21 
ROOT
HETATM    1  N   UNL     1     -42.680  56.085 -54.399  1.00  0.00    -0.054 N 
HETATM    2  H   UNL     1     -43.259  55.720 -53.639  1.00  0.00     0.281 HD
HETATM    3  C   UNL     1     -41.240  56.135 -53.887  1.00  0.00     0.228 C 
HETATM    4  C   UNL     1     -40.758  54.708 -53.460  1.00  0.00     0.055 C 
HETATM    5  C   UNL     1     -40.972  53.679 -54.598  1.00  0.00     0.065 C 
HETATM    6  C   UNL     1     -42.396  53.745 -55.161  1.00  0.00     0.066 C 
HETATM    7  C   UNL     1     -42.792  55.146 -55.574  1.00  0.00     0.239 C 
HETATM    8  C   UNL     1     -41.340  54.155 -52.149  1.00  0.00     0.010 C 
HETATM    9  C   UNL     1     -40.698  52.822 -51.739  1.00  0.00     0.001 C 
HETATM   10  C   UNL     1     -39.923  52.134 -52.859  1.00  0.00     0.003 C 
HETATM   11  C   UNL     1     -40.677  52.219 -54.179  1.00  0.00     0.038 C 
ENDROOT
BRANCH   1  12
HETATM   12  C   UNL     1     -43.298  57.460 -54.770  1.00  0.00     0.338 C 
BRANCH  12  13
HETATM   13  C   UNL     1     -44.640  57.446 -55.518  1.00  0.00     0.248 C 
HETATM   14  N   UNL     1     -44.688  57.579 -56.877  1.00  0.00    -0.319 N 
HETATM   15  H   UNL     1     -45.503  57.131 -57.305  1.00  0.00     0.169 HD
HETATM   16  O   UNL     1     -45.679  57.155 -54.918  1.00  0.00    -0.271 OA
BRANCH  14  17
HETATM   17  C   UNL     1     -43.998  58.424 -57.735  1.00  0.00     0.094 A 
HETATM   18  C   UNL     1     -43.448  58.082 -58.968  1.00  0.00     0.080 A 
HETATM   19  C   UNL     1     -42.925  59.262 -59.638  1.00  0.00    -0.026 A 
HETATM   20  C   UNL     1     -43.165  60.407 -58.902  1.00  0.00    -0.008 A 
HETATM   21  C   UNL     1     -42.275  59.333 -60.997  1.00  0.00     0.041 C 
HETATM   22  S   UNL     1     -43.926  60.089 -57.430  1.00  0.00    -0.075 SA
HETATM   23  C   UNL     1     -42.813  61.802 -59.323  1.00  0.00     0.047 C 
HETATM   24  C   UNL     1     -42.588  61.857 -60.839  1.00  0.00     0.005 C 
HETATM   25  C   UNL     1     -41.672  60.716 -61.298  1.00  0.00     0.005 C 
BRANCH  18  26
HETATM   26  C   UNL     1     -43.451  56.695 -59.456  1.00  0.00     0.296 C 
HETATM   27  O   UNL     1     -42.453  56.171 -59.940  1.00  0.00    -0.259 OA
BRANCH  26  28
HETATM   28  O   UNL     1     -44.653  56.072 -59.323  1.00  0.00    -0.322 OA
HETATM   29  C   UNL     1     -44.781  54.852 -60.055  1.00  0.00     0.213 C 
ENDBRANCH  26  28
ENDBRANCH  18  26
ENDBRANCH  14  17
ENDBRANCH  12  13
ENDBRANCH   1  12
BRANCH   3  30
HETATM   30  C   UNL     1     -40.976  57.169 -52.797  1.00  0.00    -0.027 A 
HETATM   31  C   UNL     1     -41.503  57.070 -51.497  1.00  0.00     0.012 A 
HETATM   32  C   UNL     1     -41.201  58.033 -50.531  1.00  0.00     0.043 A 
HETATM   33  C   UNL     1     -40.369  59.098 -50.853  1.00  0.00     0.116 A 
HETATM   34  F   UNL     1     -40.079  60.013 -49.920  1.00  0.00    -0.206 F 
HETATM   35  C   UNL     1     -39.834  59.221 -52.125  1.00  0.00     0.043 A 
HETATM   36  C   UNL     1     -40.134  58.261 -53.094  1.00  0.00     0.012 A 
ENDBRANCH   3  30
BRANCH   5  37
HETATM   37  O   UNL     1     -40.098  54.043 -55.670  1.00  0.00    -0.389 OA
HETATM   38  H   UNL     1     -39.443  54.691 -55.343  1.00  0.00     0.210 HD
ENDBRANCH   5  37
TORSDOF 7
ENDMDL
MODEL 4
REMARK VINA RESULT:      -7.9      3.156      6.280
REMARK  7 active torsions:
REMARK  status: ('A' for Active; 'I' for Inactive)
REMARK    1  A    between atoms: O_2  and  C_3 
REMARK    2  A    between atoms: C_3  and  C_4 
REMARK    3  A    between atoms: C_5  and  N_6 
REMARK       I    between atoms: N_6  and  C_7 
REMARK    4  A    between atoms: C_7  and  C_8 
REMARK    5  A    between atoms: C_8  and  N_9 
REMARK    6  A    between atoms: C_11  and  C_12 
REMARK    7  A    between atoms: C_20  and  O_21 
ROOT
HETATM    1  N   UNL     1     -44.049  59.662 -52.632  1.00  0.00    -0.054 N 
HETATM    2  H   UNL     1     -43.796  60.598 -52.959  1.00  0.00     0.281 HD
HETATM    3  C   UNL     1     -43.391  59.467 -51.266  1.00  0.00     0.228 C 
HETATM    4  C   UNL     1     -43.885  60.557 -50.256  1.00  0.00     0.055 C 
HETATM    5  C   UNL     1     -45.432  60.607 -50.195  1.00  0.00     0.065 C 
HETATM    6  C   UNL     1     -46.053  60.685 -51.595  1.00  0.00     0.066 C 
HETATM    7  C   UNL     1     -45.550  59.591 -52.512  1.00  0.00     0.239 C 
HETATM    8  C   UNL     1     -43.332  61.977 -50.462  1.00  0.00     0.010 C 
HETATM    9  C   UNL     1     -43.753  62.937 -49.341  1.00  0.00     0.001 C 
HETATM   10  C   UNL     1     -44.909  62.428 -48.486  1.00  0.00     0.003 C 
HETATM   11  C   UNL     1     -45.983  61.779 -49.348  1.00  0.00     0.038 C 
ENDROOT
BRANCH   1  12
HETATM   12  C   UNL     1     -43.567  58.689 -53.743  1.00  0.00     0.338 C 
BRANCH  12  13
HETATM   13  C   UNL     1     -44.481  57.500 -54.077  1.00  0.00     0.248 C 
HETATM   14  N   UNL     1     -44.567  56.424 -53.241  1.00  0.00    -0.319 N 
HETATM   15  H   UNL     1     -45.465  55.934 -53.293  1.00  0.00     0.169 HD
HETATM   16  O   UNL     1     -45.268  57.574 -55.025  1.00  0.00    -0.271 OA
BRANCH  14  17
HETATM   17  C   UNL     1     -43.587  55.725 -52.551  1.00  0.00     0.094 A 
HETATM   18  C   UNL     1     -42.575  54.948 -53.109  1.00  0.00     0.080 A 
HETATM   19  C   UNL     1     -41.659  54.486 -52.080  1.00  0.00    -0.026 A 
HETATM   20  C   UNL     1     -42.001  54.987 -50.838  1.00  0.00    -0.008 A 
HETATM   21  C   UNL     1     -40.420  53.645 -52.264  1.00  0.00     0.041 C 
HETATM   22  S   UNL     1     -43.407  55.922 -50.878  1.00  0.00    -0.075 SA
HETATM   23  C   UNL     1     -41.240  54.761 -49.567  1.00  0.00     0.047 C 
HETATM   24  C   UNL     1     -39.808  54.309 -49.881  1.00  0.00     0.005 C 
HETATM   25  C   UNL     1     -39.804  53.190 -50.930  1.00  0.00     0.005 C 
BRANCH  18  26
HETATM   26  C   UNL     1     -42.510  54.691 -54.556  1.00  0.00     0.296 C 
HETATM   27  O   UNL     1     -42.828  53.612 -55.043  1.00  0.00    -0.259 OA
BRANCH  26  28
HETATM   28  O   UNL     1     -42.063  55.754 -55.279  1.00  0.00    -0.322 OA
HETATM   29  C   UNL     1     -42.577  55.833 -56.609  1.00  0.00     0.213 C 
ENDBRANCH  26  28
ENDBRANCH  18  26
ENDBRANCH  14  17
ENDBRANCH  12  13
ENDBRANCH   1  12
BRANCH   3  30
HETATM   30  C   UNL     1     -41.870  59.366 -51.287  1.00  0.00    -0.027 A 
HETATM   31  C   UNL     1     -41.132  59.095 -52.455  1.00  0.00     0.012 A 
HETATM   32  C   UNL     1     -39.736  59.045 -52.419  1.00  0.00     0.043 A 
HETATM   33  C   UNL     1     -39.067  59.267 -51.223  1.00  0.00     0.116 A 
HETATM   34  F   UNL     1     -37.729  59.224 -51.197  1.00  0.00    -0.206 F 
HETATM   35  C   UNL     1     -39.767  59.537 -50.057  1.00  0.00     0.043 A 
HETATM   36  C   UNL     1     -41.162  59.588 -50.088  1.00  0.00     0.012 A 
ENDBRANCH   3  30
BRANCH   5  37
HETATM   37  O   UNL     1     -45.874  59.371 -49.627  1.00  0.00    -0.389 OA
HETATM   38  H   UNL     1     -45.792  58.663 -50.296  1.00  0.00     0.210 HD
ENDBRANCH   5  37
TORSDOF 7
ENDMDL
MODEL 5
REMARK VINA RESULT:      -7.9      3.130      5.837
REMARK  7 active torsions:
REMARK  status: ('A' for Active; 'I' for Inactive)
REMARK    1  A    between atoms: O_2  and  C_3 
REMARK    2  A    between atoms: C_3  and  C_4 
REMARK    3  A    between atoms: C_5  and  N_6 
REMARK       I    between atoms: N_6  and  C_7 
REMARK    4  A    between atoms: C_7  and  C_8 
REMARK    5  A    between atoms: C_8  and  N_9 
REMARK    6  A    between atoms: C_11  and  C_12 
REMARK    7  A    between atoms: C_20  and  O_21 
ROOT
HETATM    1  N   UNL     1     -42.865  56.181 -54.588  1.00  0.00    -0.054 N 
HETATM    2  H   UNL     1     -43.472  55.822 -53.846  1.00  0.00     0.281 HD
HETATM    3  C   UNL     1     -41.458  56.303 -54.002  1.00  0.00     0.228 C 
HETATM    4  C   UNL     1     -40.950  54.911 -53.498  1.00  0.00     0.055 C 
HETATM    5  C   UNL     1     -41.065  53.835 -54.606  1.00  0.00     0.065 C 
HETATM    6  C   UNL     1     -42.458  53.828 -55.246  1.00  0.00     0.066 C 
HETATM    7  C   UNL     1     -42.880  55.198 -55.731  1.00  0.00     0.239 C 
HETATM    8  C   UNL     1     -41.583  54.383 -52.200  1.00  0.00     0.010 C 
HETATM    9  C   UNL     1     -40.917  53.090 -51.707  1.00  0.00     0.001 C 
HETATM   10  C   UNL     1     -40.059  52.393 -52.758  1.00  0.00     0.003 C 
HETATM   11  C   UNL     1     -40.742  52.403 -54.118  1.00  0.00     0.038 C 
ENDROOT
BRANCH   1  12
HETATM   12  C   UNL     1     -43.511  57.519 -55.042  1.00  0.00     0.338 C 
BRANCH  12  13
HETATM   13  C   UNL     1     -45.000  57.721 -54.725  1.00  0.00     0.248 C 
HETATM   14  N   UNL     1     -45.447  58.878 -54.154  1.00  0.00    -0.319 N 
HETATM   15  H   UNL     1     -46.419  59.103 -54.385  1.00  0.00     0.169 HD
HETATM   16  O   UNL     1     -45.833  56.904 -55.129  1.00  0.00    -0.271 OA
BRANCH  14  17
HETATM   17  C   UNL     1     -44.926  59.645 -53.122  1.00  0.00     0.094 A 
HETATM   18  C   UNL     1     -44.051  60.721 -53.250  1.00  0.00     0.080 A 
HETATM   19  C   UNL     1     -43.835  61.360 -51.962  1.00  0.00    -0.026 A 
HETATM   20  C   UNL     1     -44.598  60.769 -50.972  1.00  0.00    -0.008 A 
HETATM   21  C   UNL     1     -42.984  62.570 -51.668  1.00  0.00     0.041 C 
HETATM   22  S   UNL     1     -45.491  59.452 -51.536  1.00  0.00    -0.075 SA
HETATM   23  C   UNL     1     -44.664  61.212 -49.542  1.00  0.00     0.047 C 
HETATM   24  C   UNL     1     -44.164  62.656 -49.412  1.00  0.00     0.005 C 
HETATM   25  C   UNL     1     -42.841  62.847 -50.162  1.00  0.00     0.005 C 
BRANCH  18  26
HETATM   26  C   UNL     1     -43.480  61.101 -54.551  1.00  0.00     0.296 C 
HETATM   27  O   UNL     1     -42.307  60.886 -54.837  1.00  0.00    -0.259 OA
BRANCH  26  28
HETATM   28  O   UNL     1     -44.371  61.707 -55.382  1.00  0.00    -0.322 OA
HETATM   29  C   UNL     1     -44.485  63.121 -55.212  1.00  0.00     0.213 C 
ENDBRANCH  26  28
ENDBRANCH  18  26
ENDBRANCH  14  17
ENDBRANCH  12  13
ENDBRANCH   1  12
BRANCH   3  30
HETATM   30  C   UNL     1     -41.290  57.384 -52.939  1.00  0.00    -0.027 A 
HETATM   31  C   UNL     1     -42.076  57.447 -51.774  1.00  0.00     0.012 A 
HETATM   32  C   UNL     1     -41.855  58.444 -50.820  1.00  0.00     0.043 A 
HETATM   33  C   UNL     1     -40.849  59.380 -51.019  1.00  0.00     0.116 A 
HETATM   34  F   UNL     1     -40.640  60.329 -50.098  1.00  0.00    -0.206 F 
HETATM   35  C   UNL     1     -40.059  59.343 -52.157  1.00  0.00     0.043 A 
HETATM   36  C   UNL     1     -40.276  58.348 -53.113  1.00  0.00     0.012 A 
ENDBRANCH   3  30
BRANCH   5  37
HETATM   37  O   UNL     1     -40.148  54.194 -55.643  1.00  0.00    -0.389 OA
HETATM   38  H   UNL     1     -40.607  54.156 -56.505  1.00  0.00     0.210 HD
ENDBRANCH   5  37
TORSDOF 7
ENDMDL
MODEL 6
REMARK VINA RESULT:      -7.7      2.978      4.448
REMARK  7 active torsions:
REMARK  status: ('A' for Active; 'I' for Inactive)
REMARK    1  A    between atoms: O_2  and  C_3 
REMARK    2  A    between atoms: C_3  and  C_4 
REMARK    3  A    between atoms: C_5  and  N_6 
REMARK       I    between atoms: N_6  and  C_7 
REMARK    4  A    between atoms: C_7  and  C_8 
REMARK    5  A    between atoms: C_8  and  N_9 
REMARK    6  A    between atoms: C_11  and  C_12 
REMARK    7  A    between atoms: C_20  and  O_21 
ROOT
HETATM    1  N   UNL     1     -42.938  58.561 -55.980  1.00  0.00    -0.054 N 
HETATM    2  H   UNL     1     -43.937  58.721 -55.822  1.00  0.00     0.281 HD
HETATM    3  C   UNL     1     -42.681  58.750 -57.475  1.00  0.00     0.228 C 
HETATM    4  C   UNL     1     -43.086  60.194 -57.925  1.00  0.00     0.055 C 
HETATM    5  C   UNL     1     -42.408  61.270 -57.040  1.00  0.00     0.065 C 
HETATM    6  C   UNL     1     -42.594  60.975 -55.547  1.00  0.00     0.066 C 
HETATM    7  C   UNL     1     -42.162  59.573 -55.176  1.00  0.00     0.239 C 
HETATM    8  C   UNL     1     -44.594  60.480 -58.018  1.00  0.00     0.010 C 
HETATM    9  C   UNL     1     -44.892  61.866 -58.607  1.00  0.00     0.001 C 
HETATM   10  C   UNL     1     -43.692  62.808 -58.620  1.00  0.00     0.003 C 
HETATM   11  C   UNL     1     -42.904  62.708 -57.322  1.00  0.00     0.038 C 
ENDROOT
BRANCH   1  12
HETATM   12  C   UNL     1     -42.655  57.134 -55.435  1.00  0.00     0.338 C 
BRANCH  12  13
HETATM   13  C   UNL     1     -43.690  56.534 -54.472  1.00  0.00     0.248 C 
HETATM   14  N   UNL     1     -43.299  55.781 -53.401  1.00  0.00    -0.319 N 
HETATM   15  H   UNL     1     -43.957  55.808 -52.617  1.00  0.00     0.169 HD
HETATM   16  O   UNL     1     -44.878  56.856 -54.562  1.00  0.00    -0.271 OA
BRANCH  14  17
HETATM   17  C   UNL     1     -42.333  54.791 -53.287  1.00  0.00     0.094 A 
HETATM   18  C   UNL     1     -41.747  54.338 -52.108  1.00  0.00     0.080 A 
HETATM   19  C   UNL     1     -40.882  53.200 -52.372  1.00  0.00    -0.026 A 
HETATM   20  C   UNL     1     -40.919  52.838 -53.705  1.00  0.00    -0.008 A 
HETATM   21  C   UNL     1     -40.085  52.400 -51.371  1.00  0.00     0.041 C 
HETATM   22  S   UNL     1     -41.895  53.857 -54.631  1.00  0.00    -0.075 SA
HETATM   23  C   UNL     1     -40.194  51.674 -54.312  1.00  0.00     0.047 C 
HETATM   24  C   UNL     1     -39.793  50.673 -53.221  1.00  0.00     0.005 C 
HETATM   25  C   UNL     1     -39.135  51.389 -52.036  1.00  0.00     0.005 C 
BRANCH  18  26
HETATM   26  C   UNL     1     -42.031  54.973 -50.812  1.00  0.00     0.296 C 
HETATM   27  O   UNL     1     -43.110  54.844 -50.244  1.00  0.00    -0.259 OA
BRANCH  26  28
HETATM   28  O   UNL     1     -40.993  55.705 -50.324  1.00  0.00    -0.322 OA
HETATM   29  C   UNL     1     -41.080  57.109 -50.575  1.00  0.00     0.213 C 
ENDBRANCH  26  28
ENDBRANCH  18  26
ENDBRANCH  14  17
ENDBRANCH  12  13
ENDBRANCH   1  12
BRANCH   3  30
HETATM   30  C   UNL     1     -43.292  57.685 -58.378  1.00  0.00    -0.027 A 
HETATM   31  C   UNL     1     -44.679  57.475 -58.491  1.00  0.00     0.012 A 
HETATM   32  C   UNL     1     -45.183  56.503 -59.360  1.00  0.00     0.043 A 
HETATM   33  C   UNL     1     -44.310  55.738 -60.122  1.00  0.00     0.116 A 
HETATM   34  F   UNL     1     -44.801  54.813 -60.957  1.00  0.00    -0.206 F 
HETATM   35  C   UNL     1     -42.940  55.923 -60.032  1.00  0.00     0.043 A 
HETATM   36  C   UNL     1     -42.431  56.893 -59.166  1.00  0.00     0.012 A 
ENDBRANCH   3  30
BRANCH   5  37
HETATM   37  O   UNL     1     -41.002  61.202 -57.293  1.00  0.00    -0.389 OA
HETATM   38  H   UNL     1     -40.722  62.012 -57.763  1.00  0.00     0.210 HD
ENDBRANCH   5  37
TORSDOF 7
ENDMDL
MODEL 7
REMARK VINA RESULT:      -7.7      2.810      4.471
REMARK  7 active torsions:
REMARK  status: ('A' for Active; 'I' for Inactive)
REMARK    1  A    between atoms: O_2  and  C_3 
REMARK    2  A    between atoms: C_3  and  C_4 
REMARK    3  A    between atoms: C_5  and  N_6 
REMARK       I    between atoms: N_6  and  C_7 
REMARK    4  A    between atoms: C_7  and  C_8 
REMARK    5  A    between atoms: C_8  and  N_9 
REMARK    6  A    between atoms: C_11  and  C_12 
REMARK    7  A    between atoms: C_20  and  O_21 
ROOT
HETATM    1  N   UNL     1     -42.938  56.537 -56.089  1.00  0.00    -0.054 N 
HETATM    2  H   UNL     1     -41.985  56.873 -56.248  1.00  0.00     0.281 HD
HETATM    3  C   UNL     1     -43.888  57.675 -56.464  1.00  0.00     0.228 C 
HETATM    4  C   UNL     1     -43.689  58.086 -57.961  1.00  0.00     0.055 C 
HETATM    5  C   UNL     1     -43.796  56.859 -58.900  1.00  0.00     0.065 C 
HETATM    6  C   UNL     1     -42.915  55.700 -58.420  1.00  0.00     0.066 C 
HETATM    7  C   UNL     1     -43.173  55.338 -56.973  1.00  0.00     0.239 C 
HETATM    8  C   UNL     1     -42.410  58.875 -58.288  1.00  0.00     0.010 C 
HETATM    9  C   UNL     1     -42.377  59.360 -59.744  1.00  0.00     0.001 C 
HETATM   10  C   UNL     1     -43.384  58.665 -60.655  1.00  0.00     0.003 C 
HETATM   11  C   UNL     1     -43.437  57.170 -60.373  1.00  0.00     0.038 C 
ENDROOT
BRANCH   1  12
HETATM   12  C   UNL     1     -42.983  56.103 -54.598  1.00  0.00     0.338 C 
BRANCH  12  13
HETATM   13  C   UNL     1     -41.678  56.215 -53.796  1.00  0.00     0.248 C 
HETATM   14  N   UNL     1     -41.691  56.574 -52.478  1.00  0.00    -0.319 N 
HETATM   15  H   UNL     1     -40.900  56.204 -51.944  1.00  0.00     0.169 HD
HETATM   16  O   UNL     1     -40.614  55.830 -54.290  1.00  0.00    -0.271 OA
BRANCH  14  17
HETATM   17  C   UNL     1     -42.415  57.549 -51.806  1.00  0.00     0.094 A 
HETATM   18  C   UNL     1     -41.929  58.771 -51.347  1.00  0.00     0.080 A 
HETATM   19  C   UNL     1     -43.012  59.582 -50.815  1.00  0.00    -0.026 A 
HETATM   20  C   UNL     1     -44.233  58.952 -50.961  1.00  0.00    -0.008 A 
HETATM   21  C   UNL     1     -42.920  60.977 -50.247  1.00  0.00     0.041 C 
HETATM   22  S   UNL     1     -44.096  57.415 -51.645  1.00  0.00    -0.075 SA
HETATM   23  C   UNL     1     -45.563  59.528 -50.576  1.00  0.00     0.047 C 
HETATM   24  C   UNL     1     -45.459  61.053 -50.441  1.00  0.00     0.005 C 
HETATM   25  C   UNL     1     -44.236  61.447 -49.605  1.00  0.00     0.005 C 
BRANCH  18  26
HETATM   26  C   UNL     1     -40.503  59.118 -51.439  1.00  0.00     0.296 C 
HETATM   27  O   UNL     1     -39.948  59.319 -52.514  1.00  0.00    -0.259 OA
BRANCH  26  28
HETATM   28  O   UNL     1     -39.879  59.185 -50.232  1.00  0.00    -0.322 OA
HETATM   29  C   UNL     1     -38.682  59.965 -50.218  1.00  0.00     0.213 C 
ENDBRANCH  26  28
ENDBRANCH  18  26
ENDBRANCH  14  17
ENDBRANCH  12  13
ENDBRANCH   1  12
BRANCH   3  30
HETATM   30  C   UNL     1     -43.848  58.885 -55.536  1.00  0.00    -0.027 A 
HETATM   31  C   UNL     1     -42.657  59.546 -55.184  1.00  0.00     0.012 A 
HETATM   32  C   UNL     1     -42.685  60.670 -54.354  1.00  0.00     0.043 A 
HETATM   33  C   UNL     1     -43.899  61.143 -53.873  1.00  0.00     0.116 A 
HETATM   34  F   UNL     1     -43.919  62.224 -53.083  1.00  0.00    -0.206 F 
HETATM   35  C   UNL     1     -45.088  60.513 -54.203  1.00  0.00     0.043 A 
HETATM   36  C   UNL     1     -45.064  59.389 -55.033  1.00  0.00     0.012 A 
ENDBRANCH   3  30
BRANCH   5  37
HETATM   37  O   UNL     1     -45.146  56.393 -58.837  1.00  0.00    -0.389 OA
HETATM   38  H   UNL     1     -45.485  56.265 -59.745  1.00  0.00     0.210 HD
ENDBRANCH   5  37
TORSDOF 7
ENDMDL
MODEL 8
REMARK VINA RESULT:      -7.7      3.118      4.675
REMARK  7 active torsions:
REMARK  status: ('A' for Active; 'I' for Inactive)
REMARK    1  A    between atoms: O_2  and  C_3 
REMARK    2  A    between atoms: C_3  and  C_4 
REMARK    3  A    between atoms: C_5  and  N_6 
REMARK       I    between atoms: N_6  and  C_7 
REMARK    4  A    between atoms: C_7  and  C_8 
REMARK    5  A    between atoms: C_8  and  N_9 
REMARK    6  A    between atoms: C_11  and  C_12 
REMARK    7  A    between atoms: C_20  and  O_21 
ROOT
HETATM    1  N   UNL     1     -43.344  56.927 -54.838  1.00  0.00    -0.054 N 
HETATM    2  H   UNL     1     -42.361  57.201 -54.757  1.00  0.00     0.281 HD
HETATM    3  C   UNL     1     -44.101  58.125 -55.410  1.00  0.00     0.228 C 
HETATM    4  C   UNL     1     -43.522  58.525 -56.809  1.00  0.00     0.055 C 
HETATM    5  C   UNL     1     -43.476  57.309 -57.767  1.00  0.00     0.065 C 
HETATM    6  C   UNL     1     -42.812  56.094 -57.109  1.00  0.00     0.066 C 
HETATM    7  C   UNL     1     -43.433  55.748 -55.773  1.00  0.00     0.239 C 
HETATM    8  C   UNL     1     -42.155  59.229 -56.805  1.00  0.00     0.010 C 
HETATM    9  C   UNL     1     -41.741  59.713 -58.201  1.00  0.00     0.001 C 
HETATM   10  C   UNL     1     -42.541  59.087 -59.340  1.00  0.00     0.003 C 
HETATM   11  C   UNL     1     -42.754  57.598 -59.105  1.00  0.00     0.038 C 
ENDROOT
BRANCH   1  12
HETATM   12  C   UNL     1     -43.774  56.494 -53.410  1.00  0.00     0.338 C 
BRANCH  12  13
HETATM   13  C   UNL     1     -42.881  56.943 -52.243  1.00  0.00     0.248 C 
HETATM   14  N   UNL     1     -41.594  56.497 -52.131  1.00  0.00    -0.319 N 
HETATM   15  H   UNL     1     -40.976  57.146 -51.637  1.00  0.00     0.169 HD
HETATM   16  O   UNL     1     -43.263  57.836 -51.481  1.00  0.00    -0.271 OA
BRANCH  14  17
HETATM   17  C   UNL     1     -41.048  55.235 -52.317  1.00  0.00     0.094 A 
HETATM   18  C   UNL     1     -40.900  54.246 -51.348  1.00  0.00     0.080 A 
HETATM   19  C   UNL     1     -40.416  53.013 -51.947  1.00  0.00    -0.026 A 
HETATM   20  C   UNL     1     -40.289  53.134 -53.318  1.00  0.00    -0.008 A 
HETATM   21  C   UNL     1     -40.149  51.699 -51.256  1.00  0.00     0.041 C 
HETATM   22  S   UNL     1     -40.666  54.684 -53.873  1.00  0.00    -0.075 SA
HETATM   23  C   UNL     1     -39.872  52.041 -54.255  1.00  0.00     0.047 C 
HETATM   24  C   UNL     1     -40.053  50.673 -53.586  1.00  0.00     0.005 C 
HETATM   25  C   UNL     1     -39.462  50.672 -52.171  1.00  0.00     0.005 C 
BRANCH  18  26
HETATM   26  C   UNL     1     -41.227  54.494 -49.936  1.00  0.00     0.296 C 
HETATM   27  O   UNL     1     -42.383  54.610 -49.544  1.00  0.00    -0.259 OA
BRANCH  26  28
HETATM   28  O   UNL     1     -40.133  54.585 -49.131  1.00  0.00    -0.322 OA
HETATM   29  C   UNL     1     -40.247  53.896 -47.885  1.00  0.00     0.213 C 
ENDBRANCH  26  28
ENDBRANCH  18  26
ENDBRANCH  14  17
ENDBRANCH  12  13
ENDBRANCH   1  12
BRANCH   3  30
HETATM   30  C   UNL     1     -44.210  59.329 -54.480  1.00  0.00    -0.027 A 
HETATM   31  C   UNL     1     -45.423  59.749 -53.904  1.00  0.00     0.012 A 
HETATM   32  C   UNL     1     -45.456  60.842 -53.033  1.00  0.00     0.043 A 
HETATM   33  C   UNL     1     -44.282  61.519 -52.729  1.00  0.00     0.116 A 
HETATM   34  F   UNL     1     -44.320  62.561 -51.889  1.00  0.00    -0.206 F 
HETATM   35  C   UNL     1     -43.073  61.127 -53.281  1.00  0.00     0.043 A 
HETATM   36  C   UNL     1     -43.035  60.035 -54.151  1.00  0.00     0.012 A 
ENDBRANCH   3  30
BRANCH   5  37
HETATM   37  O   UNL     1     -44.829  56.931 -58.038  1.00  0.00    -0.389 OA
HETATM   38  H   UNL     1     -45.403  57.256 -57.317  1.00  0.00     0.210 HD
ENDBRANCH   5  37
TORSDOF 7
ENDMDL
MODEL 9
REMARK VINA RESULT:      -7.5      2.503      7.430
REMARK  7 active torsions:
REMARK  status: ('A' for Active; 'I' for Inactive)
REMARK    1  A    between atoms: O_2  and  C_3 
REMARK    2  A    between atoms: C_3  and  C_4 
REMARK    3  A    between atoms: C_5  and  N_6 
REMARK       I    between atoms: N_6  and  C_7 
REMARK    4  A    between atoms: C_7  and  C_8 
REMARK    5  A    between atoms: C_8  and  N_9 
REMARK    6  A    between atoms: C_11  and  C_12 
REMARK    7  A    between atoms: C_20  and  O_21 
ROOT
HETATM    1  N   UNL     1     -43.230  57.751 -54.419  1.00  0.00    -0.054 N 
HETATM    2  H   UNL     1     -42.415  58.182 -54.863  1.00  0.00     0.281 HD
HETATM    3  C   UNL     1     -42.716  56.913 -53.248  1.00  0.00     0.228 C 
HETATM    4  C   UNL     1     -41.940  57.811 -52.227  1.00  0.00     0.055 C 
HETATM    5  C   UNL     1     -42.792  59.028 -51.788  1.00  0.00     0.065 C 
HETATM    6  C   UNL     1     -43.383  59.770 -52.992  1.00  0.00     0.066 C 
HETATM    7  C   UNL     1     -44.138  58.849 -53.926  1.00  0.00     0.239 C 
HETATM    8  C   UNL     1     -40.545  58.289 -52.663  1.00  0.00     0.010 C 
HETATM    9  C   UNL     1     -39.805  59.034 -51.543  1.00  0.00     0.001 C 
HETATM   10  C   UNL     1     -40.703  59.484 -50.395  1.00  0.00     0.003 C 
HETATM   11  C   UNL     1     -42.018  60.046 -50.916  1.00  0.00     0.038 C 
ENDROOT
BRANCH   1  12
HETATM   12  C   UNL     1     -43.942  56.950 -55.543  1.00  0.00     0.338 C 
BRANCH  12  13
HETATM   13  C   UNL     1     -43.052  56.318 -56.624  1.00  0.00     0.248 C 
HETATM   14  N   UNL     1     -42.195  57.083 -57.364  1.00  0.00    -0.319 N 
HETATM   15  H   UNL     1     -41.376  56.570 -57.704  1.00  0.00     0.169 HD
HETATM   16  O   UNL     1     -42.985  55.090 -56.729  1.00  0.00    -0.271 OA
BRANCH  14  17
HETATM   17  C   UNL     1     -42.362  58.327 -57.955  1.00  0.00     0.094 A 
HETATM   18  C   UNL     1     -42.893  58.579 -59.217  1.00  0.00     0.080 A 
HETATM   19  C   UNL     1     -43.036  60.010 -59.434  1.00  0.00    -0.026 A 
HETATM   20  C   UNL     1     -42.665  60.729 -58.313  1.00  0.00    -0.008 A 
HETATM   21  C   UNL     1     -43.595  60.702 -60.652  1.00  0.00     0.041 C 
HETATM   22  S   UNL     1     -42.097  59.744 -57.065  1.00  0.00    -0.075 SA
HETATM   23  C   UNL     1     -42.743  62.219 -58.169  1.00  0.00     0.047 C 
HETATM   24  C   UNL     1     -43.704  62.802 -59.213  1.00  0.00     0.005 C 
HETATM   25  C   UNL     1     -43.415  62.229 -60.605  1.00  0.00     0.005 C 
BRANCH  18  26
HETATM   26  C   UNL     1     -43.246  57.488 -60.137  1.00  0.00     0.296 C 
HETATM   27  O   UNL     1     -42.412  56.695 -60.560  1.00  0.00    -0.259 OA
BRANCH  26  28
HETATM   28  O   UNL     1     -44.566  57.459 -60.467  1.00  0.00    -0.322 OA
HETATM   29  C   UNL     1     -45.393  56.723 -59.564  1.00  0.00     0.213 C 
ENDBRANCH  26  28
ENDBRANCH  18  26
ENDBRANCH  14  17
ENDBRANCH  12  13
ENDBRANCH   1  12
BRANCH   3  30
HETATM   30  C   UNL     1     -41.911  55.678 -53.638  1.00  0.00    -0.027 A 
HETATM   31  C   UNL     1     -40.714  55.740 -54.374  1.00  0.00     0.012 A 
HETATM   32  C   UNL     1     -40.002  54.575 -54.677  1.00  0.00     0.043 A 
HETATM   33  C   UNL     1     -40.478  53.344 -54.245  1.00  0.00     0.116 A 
HETATM   34  F   UNL     1     -39.788  52.233 -54.533  1.00  0.00    -0.206 F 
HETATM   35  C   UNL     1     -41.654  53.252 -53.518  1.00  0.00     0.043 A 
HETATM   36  C   UNL     1     -42.368  54.413 -53.213  1.00  0.00     0.012 A 
ENDBRANCH   3  30
BRANCH   5  37
HETATM   37  O   UNL     1     -43.902  58.522 -51.042  1.00  0.00    -0.389 OA
HETATM   38  H   UNL     1     -44.682  58.466 -51.628  1.00  0.00     0.210 HD
ENDBRANCH   5  37
TORSDOF 7
ENDMDL
MODEL 10
REMARK VINA RESULT:      -7.5      2.818      4.766
REMARK  7 active torsions:
REMARK  status: ('A' for Active; 'I' for Inactive)
REMARK    1  A    between atoms: O_2  and  C_3 
REMARK    2  A    between atoms: C_3  and  C_4 
REMARK    3  A    between atoms: C_5  and  N_6 
REMARK       I    between atoms: N_6  and  C_7 
REMARK    4  A    between atoms: C_7  and  C_8 
REMARK    5  A    between atoms: C_8  and  N_9 
REMARK    6  A    between atoms: C_11  and  C_12 
REMARK    7  A    between atoms: C_20  and  O_21 
ROOT
HETATM    1  N   UNL     1     -42.791  57.933 -56.053  1.00  0.00    -0.054 N 
HETATM    2  H   UNL     1     -42.121  58.619 -56.411  1.00  0.00     0.281 HD
HETATM    3  C   UNL     1     -43.380  58.508 -54.764  1.00  0.00     0.228 C 
HETATM    4  C   UNL     1     -44.086  59.876 -55.045  1.00  0.00     0.055 C 
HETATM    5  C   UNL     1     -45.118  59.752 -56.194  1.00  0.00     0.065 C 
HETATM    6  C   UNL     1     -44.516  59.064 -57.424  1.00  0.00     0.066 C 
HETATM    7  C   UNL     1     -43.869  57.738 -57.088  1.00  0.00     0.239 C 
HETATM    8  C   UNL     1     -43.164  61.078 -55.309  1.00  0.00     0.010 C 
HETATM    9  C   UNL     1     -43.940  62.398 -55.425  1.00  0.00     0.001 C 
HETATM   10  C   UNL     1     -45.440  62.221 -55.639  1.00  0.00     0.003 C 
HETATM   11  C   UNL     1     -45.723  61.106 -56.635  1.00  0.00     0.038 C 
ENDROOT
BRANCH   1  12
HETATM   12  C   UNL     1     -41.986  56.616 -55.882  1.00  0.00     0.338 C 
BRANCH  12  13
HETATM   13  C   UNL     1     -42.772  55.299 -55.973  1.00  0.00     0.248 C 
HETATM   14  N   UNL     1     -43.266  54.696 -54.851  1.00  0.00    -0.319 N 
HETATM   15  H   UNL     1     -44.100  54.127 -55.024  1.00  0.00     0.169 HD
HETATM   16  O   UNL     1     -43.103  54.852 -57.075  1.00  0.00    -0.271 OA
BRANCH  14  17
HETATM   17  C   UNL     1     -42.701  54.496 -53.600  1.00  0.00     0.094 A 
HETATM   18  C   UNL     1     -41.530  53.795 -53.323  1.00  0.00     0.080 A 
HETATM   19  C   UNL     1     -41.183  53.917 -51.917  1.00  0.00    -0.026 A 
HETATM   20  C   UNL     1     -42.069  54.741 -51.248  1.00  0.00    -0.008 A 
HETATM   21  C   UNL     1     -39.982  53.335 -51.213  1.00  0.00     0.041 C 
HETATM   22  S   UNL     1     -43.316  55.298 -52.240  1.00  0.00    -0.075 SA
HETATM   23  C   UNL     1     -41.975  55.132 -49.804  1.00  0.00     0.047 C 
HETATM   24  C   UNL     1     -40.551  54.898 -49.284  1.00  0.00     0.005 C 
HETATM   25  C   UNL     1     -40.042  53.509 -49.687  1.00  0.00     0.005 C 
BRANCH  18  26
HETATM   26  C   UNL     1     -40.800  53.068 -54.372  1.00  0.00     0.296 C 
HETATM   27  O   UNL     1     -40.061  53.638 -55.168  1.00  0.00    -0.259 OA
BRANCH  26  28
HETATM   28  O   UNL     1     -41.030  51.727 -54.368  1.00  0.00    -0.322 OA
HETATM   29  C   UNL     1     -39.884  50.922 -54.085  1.00  0.00     0.213 C 
ENDBRANCH  26  28
ENDBRANCH  18  26
ENDBRANCH  14  17
ENDBRANCH  12  13
ENDBRANCH   1  12
BRANCH   3  30
HETATM   30  C   UNL     1     -42.408  58.604 -53.593  1.00  0.00    -0.027 A 
HETATM   31  C   UNL     1     -41.010  58.609 -53.751  1.00  0.00     0.012 A 
HETATM   32  C   UNL     1     -40.169  58.731 -52.642  1.00  0.00     0.043 A 
HETATM   33  C   UNL     1     -40.715  58.851 -51.371  1.00  0.00     0.116 A 
HETATM   34  F   UNL     1     -39.903  58.973 -50.314  1.00  0.00    -0.206 F 
HETATM   35  C   UNL     1     -42.088  58.850 -51.184  1.00  0.00     0.043 A 
HETATM   36  C   UNL     1     -42.933  58.729 -52.291  1.00  0.00     0.012 A 
ENDBRANCH   3  30
BRANCH   5  37
HETATM   37  O   UNL     1     -46.168  58.899 -55.730  1.00  0.00    -0.389 OA
HETATM   38  H   UNL     1     -46.444  59.187 -54.837  1.00  0.00     0.210 HD
ENDBRANCH   5  37
TORSDOF 7
ENDMDL
