MODEL 1
REMARK VINA RESULT:      -8.7      0.000      0.000
REMARK  6 active torsions:
REMARK  status: ('A' for Active; 'I' for Inactive)
REMARK    1  A    between atoms: C_6  and  C_7 
REMARK    2  A    between atoms: C_7  and  N_8 
REMARK    3  A    between atoms: C_12  and  C_13 
REMARK    4  A    between atoms: C_13  and  C_14 
REMARK    5  A    between atoms: N_23  and  C_24 
REMARK    6  A    between atoms: C_24  and  C_25 
ROOT
HETATM    1  C   UNL     1     -44.030  58.265 -55.013  1.00  0.00     0.149 C 
HETATM    2  N   UNL     1     -42.710  58.175 -55.620  1.00  0.00    -0.220 NA
HETATM    3  C   UNL     1     -42.788  58.249 -56.993  1.00  0.00     0.304 C 
HETATM    4  O   UNL     1     -41.813  58.438 -57.698  1.00  0.00    -0.253 OA
HETATM    5  N   UNL     1     -44.079  58.094 -57.373  1.00  0.00    -0.270 N 
HETATM    6  C   UNL     1     -44.901  58.172 -56.285  1.00  0.00     0.257 C 
HETATM    7  O   UNL     1     -46.125  58.143 -56.297  1.00  0.00    -0.270 OA
HETATM    8  H   UNL     1     -41.978  58.772 -55.237  1.00  0.00     0.134 HD
ENDROOT
BRANCH   1   9
HETATM    9  C   UNL     1     -44.329  57.081 -54.035  1.00  0.00     0.028 C 
HETATM   10  C   UNL     1     -43.540  57.123 -52.711  1.00  0.00     0.035 C 
HETATM   11  C   UNL     1     -42.080  56.705 -52.841  1.00  0.00     0.235 C 
HETATM   12  N   UNL     1     -41.980  55.340 -53.480  1.00  0.00    -0.067 N 
HETATM   13  H   UNL     1     -42.407  54.674 -52.825  1.00  0.00     0.280 HD
HETATM   14  C   UNL     1     -42.709  55.229 -54.796  1.00  0.00     0.235 C 
HETATM   15  C   UNL     1     -44.156  55.670 -54.639  1.00  0.00     0.035 C 
BRANCH  12  16
HETATM   16  C   UNL     1     -40.536  54.894 -53.653  1.00  0.00     0.273 C 
BRANCH  16  17
HETATM   17  C   UNL     1     -40.290  53.451 -53.292  1.00  0.00    -0.027 A 
HETATM   18  C   UNL     1     -40.097  53.025 -51.960  1.00  0.00    -0.054 A 
HETATM   19  C   UNL     1     -39.862  51.663 -51.701  1.00  0.00     0.014 A 
HETATM   20  C   UNL     1     -40.098  53.980 -50.795  1.00  0.00     0.049 C 
HETATM   21  C   UNL     1     -39.811  50.723 -52.734  1.00  0.00    -0.061 A 
HETATM   22  C   UNL     1     -39.544  49.273 -52.446  1.00  0.00     0.048 C 
HETATM   23  C   UNL     1     -40.011  51.148 -54.048  1.00  0.00     0.007 A 
HETATM   24  C   UNL     1     -40.245  52.496 -54.326  1.00  0.00     0.010 A 
ENDBRANCH  16  17
ENDBRANCH  12  16
ENDBRANCH   1   9
BRANCH   1  25
HETATM   25  C   UNL     1     -44.154  59.625 -54.324  1.00  0.00     0.067 A 
HETATM   26  N   UNL     1     -42.998  60.353 -54.264  1.00  0.00    -0.263 NA
HETATM   27  C   UNL     1     -43.053  61.570 -53.672  1.00  0.00     0.117 A 
HETATM   28  C   UNL     1     -44.200  62.096 -53.110  1.00  0.00     0.019 A 
HETATM   29  C   UNL     1     -45.361  61.334 -53.152  1.00  0.00     0.003 A 
HETATM   30  C   UNL     1     -45.343  60.081 -53.759  1.00  0.00     0.030 A 
ENDBRANCH   1  25
BRANCH   5  31
HETATM   31  C   UNL     1     -44.532  58.025 -58.753  1.00  0.00     0.168 C 
BRANCH  31  32
HETATM   32  C   UNL     1     -45.001  56.618 -59.142  1.00  0.00     0.140 C 
HETATM   33  O   UNL     1     -45.455  56.582 -60.515  1.00  0.00    -0.384 OA
HETATM   34  C   UNL     1     -45.079  55.305 -61.066  1.00  0.00     0.168 C 
HETATM   35  C   UNL     1     -44.438  54.499 -59.955  1.00  0.00     0.029 C 
HETATM   36  C   UNL     1     -43.898  55.577 -59.048  1.00  0.00     0.036 C 
ENDBRANCH  31  32
ENDBRANCH   5  31
TORSDOF 6
ENDMDL
MODEL 2
REMARK VINA RESULT:      -8.7      1.797      2.509
REMARK  6 active torsions:
REMARK  status: ('A' for Active; 'I' for Inactive)
REMARK    1  A    between atoms: C_6  and  C_7 
REMARK    2  A    between atoms: C_7  and  N_8 
REMARK    3  A    between atoms: C_12  and  C_13 
REMARK    4  A    between atoms: C_13  and  C_14 
REMARK    5  A    between atoms: N_23  and  C_24 
REMARK    6  A    between atoms: C_24  and  C_25 
ROOT
HETATM    1  C   UNL     1     -44.046  58.768 -53.006  1.00  0.00     0.149 C 
HETATM    2  N   UNL     1     -42.600  58.913 -52.927  1.00  0.00    -0.220 NA
HETATM    3  C   UNL     1     -42.087  59.433 -54.094  1.00  0.00     0.304 C 
HETATM    4  O   UNL     1     -40.952  59.865 -54.180  1.00  0.00    -0.253 OA
HETATM    5  N   UNL     1     -43.039  59.382 -55.058  1.00  0.00    -0.270 N 
HETATM    6  C   UNL     1     -44.250  59.079 -54.505  1.00  0.00     0.257 C 
HETATM    7  O   UNL     1     -45.323  59.028 -55.093  1.00  0.00    -0.270 OA
HETATM    8  H   UNL     1     -42.221  59.366 -52.097  1.00  0.00     0.134 HD
ENDROOT
BRANCH   1   9
HETATM    9  C   UNL     1     -44.530  57.322 -52.657  1.00  0.00     0.028 C 
HETATM   10  C   UNL     1     -44.195  56.857 -51.226  1.00  0.00     0.035 C 
HETATM   11  C   UNL     1     -42.736  56.465 -51.022  1.00  0.00     0.235 C 
HETATM   12  N   UNL     1     -42.328  55.420 -52.033  1.00  0.00    -0.067 N 
HETATM   13  H   UNL     1     -42.878  54.577 -51.827  1.00  0.00     0.280 HD
HETATM   14  C   UNL     1     -42.603  55.815 -53.463  1.00  0.00     0.235 C 
HETATM   15  C   UNL     1     -44.059  56.218 -53.631  1.00  0.00     0.035 C 
BRANCH  12  16
HETATM   16  C   UNL     1     -40.868  55.018 -51.883  1.00  0.00     0.273 C 
BRANCH  16  17
HETATM   17  C   UNL     1     -40.536  53.673 -52.477  1.00  0.00    -0.027 A 
HETATM   18  C   UNL     1     -40.269  52.538 -51.682  1.00  0.00    -0.054 A 
HETATM   19  C   UNL     1     -39.956  51.317 -52.308  1.00  0.00     0.014 A 
HETATM   20  C   UNL     1     -40.271  52.583 -50.176  1.00  0.00     0.049 C 
HETATM   21  C   UNL     1     -39.899  51.207 -53.700  1.00  0.00    -0.061 A 
HETATM   22  C   UNL     1     -39.548  49.902 -54.356  1.00  0.00     0.048 C 
HETATM   23  C   UNL     1     -40.172  52.330 -54.481  1.00  0.00     0.007 A 
HETATM   24  C   UNL     1     -40.484  53.550 -53.879  1.00  0.00     0.010 A 
ENDBRANCH  16  17
ENDBRANCH  12  16
ENDBRANCH   1   9
BRANCH   1  25
HETATM   25  C   UNL     1     -44.688  59.822 -52.103  1.00  0.00     0.067 A 
HETATM   26  N   UNL     1     -43.859  60.357 -51.155  1.00  0.00    -0.263 NA
HETATM   27  C   UNL     1     -44.374  61.302 -50.334  1.00  0.00     0.117 A 
HETATM   28  C   UNL     1     -45.686  61.731 -50.388  1.00  0.00     0.019 A 
HETATM   29  C   UNL     1     -46.526  61.159 -51.336  1.00  0.00     0.003 A 
HETATM   30  C   UNL     1     -46.028  60.189 -52.202  1.00  0.00     0.030 A 
ENDBRANCH   1  25
BRANCH   5  31
HETATM   31  C   UNL     1     -42.830  59.760 -56.446  1.00  0.00     0.168 C 
BRANCH  31  32
HETATM   32  C   UNL     1     -42.629  58.544 -57.357  1.00  0.00     0.140 C 
HETATM   33  O   UNL     1     -42.292  57.366 -56.586  1.00  0.00    -0.384 OA
HETATM   34  C   UNL     1     -42.912  56.233 -57.225  1.00  0.00     0.168 C 
HETATM   35  C   UNL     1     -43.591  56.734 -58.483  1.00  0.00     0.029 C 
HETATM   36  C   UNL     1     -43.877  58.175 -58.141  1.00  0.00     0.036 C 
ENDBRANCH  31  32
ENDBRANCH   5  31
TORSDOF 6
ENDMDL
MODEL 3
REMARK VINA RESULT:      -8.5      2.695      8.338
REMARK  6 active torsions:
REMARK  status: ('A' for Active; 'I' for Inactive)
REMARK    1  A    between atoms: C_6  and  C_7 
REMARK    2  A    between atoms: C_7  and  N_8 
REMARK    3  A    between atoms: C_12  and  C_13 
REMARK    4  A    between atoms: C_13  and  C_14 
REMARK    5  A    between atoms: N_23  and  C_24 
REMARK    6  A    between atoms: C_24  and  C_25 
ROOT
HETATM    1  C   UNL     1     -41.952  55.177 -53.111  1.00  0.00     0.149 C 
HETATM    2  N   UNL     1     -41.221  56.171 -53.884  1.00  0.00    -0.220 NA
HETATM    3  C   UNL     1     -40.878  57.253 -53.105  1.00  0.00     0.304 C 
HETATM    4  O   UNL     1     -40.066  58.088 -53.459  1.00  0.00    -0.253 OA
HETATM    5  N   UNL     1     -41.568  57.197 -51.940  1.00  0.00    -0.270 N 
HETATM    6  C   UNL     1     -42.171  55.979 -51.809  1.00  0.00     0.257 C 
HETATM    7  O   UNL     1     -42.809  55.585 -50.841  1.00  0.00    -0.270 OA
HETATM    8  H   UNL     1     -40.446  55.839 -54.456  1.00  0.00     0.134 HD
ENDROOT
BRANCH   1   9
HETATM    9  C   UNL     1     -43.316  54.782 -53.768  1.00  0.00     0.028 C 
HETATM   10  C   UNL     1     -43.196  54.108 -55.150  1.00  0.00     0.035 C 
HETATM   11  C   UNL     1     -42.875  55.070 -56.288  1.00  0.00     0.235 C 
HETATM   12  N   UNL     1     -43.886  56.191 -56.327  1.00  0.00    -0.067 N 
HETATM   13  H   UNL     1     -44.791  55.766 -56.562  1.00  0.00     0.280 HD
HETATM   14  C   UNL     1     -44.042  56.917 -55.014  1.00  0.00     0.235 C 
HETATM   15  C   UNL     1     -44.342  55.931 -53.895  1.00  0.00     0.035 C 
BRANCH  12  16
HETATM   16  C   UNL     1     -43.588  57.191 -57.434  1.00  0.00     0.273 C 
BRANCH  16  17
HETATM   17  C   UNL     1     -44.671  57.292 -58.479  1.00  0.00    -0.027 A 
HETATM   18  C   UNL     1     -44.728  56.434 -59.597  1.00  0.00    -0.054 A 
HETATM   19  C   UNL     1     -45.763  56.595 -60.537  1.00  0.00     0.014 A 
HETATM   20  C   UNL     1     -43.701  55.361 -59.851  1.00  0.00     0.049 C 
HETATM   21  C   UNL     1     -46.732  57.592 -60.388  1.00  0.00    -0.061 A 
HETATM   22  C   UNL     1     -47.823  57.765 -61.405  1.00  0.00     0.048 C 
HETATM   23  C   UNL     1     -46.675  58.432 -59.276  1.00  0.00     0.007 A 
HETATM   24  C   UNL     1     -45.656  58.288 -58.333  1.00  0.00     0.010 A 
ENDBRANCH  16  17
ENDBRANCH  12  16
ENDBRANCH   1   9
BRANCH   1  25
HETATM   25  C   UNL     1     -41.044  53.964 -52.899  1.00  0.00     0.067 A 
HETATM   26  N   UNL     1     -40.635  53.765 -51.609  1.00  0.00    -0.263 NA
HETATM   27  C   UNL     1     -39.836  52.700 -51.362  1.00  0.00     0.117 A 
HETATM   28  C   UNL     1     -39.398  51.829 -52.341  1.00  0.00     0.019 A 
HETATM   29  C   UNL     1     -39.798  52.060 -53.652  1.00  0.00     0.003 A 
HETATM   30  C   UNL     1     -40.625  53.142 -53.941  1.00  0.00     0.030 A 
ENDBRANCH   1  25
BRANCH   5  31
HETATM   31  C   UNL     1     -41.532  58.221 -50.908  1.00  0.00     0.168 C 
BRANCH  31  32
HETATM   32  C   UNL     1     -42.433  59.415 -51.241  1.00  0.00     0.140 C 
HETATM   33  O   UNL     1     -43.830  59.069 -51.098  1.00  0.00    -0.384 OA
HETATM   34  C   UNL     1     -44.518  60.229 -50.589  1.00  0.00     0.168 C 
HETATM   35  C   UNL     1     -43.507  61.353 -50.492  1.00  0.00     0.029 C 
HETATM   36  C   UNL     1     -42.210  60.603 -50.320  1.00  0.00     0.036 C 
ENDBRANCH  31  32
ENDBRANCH   5  31
TORSDOF 6
ENDMDL
MODEL 4
REMARK VINA RESULT:      -8.3      3.876      6.666
REMARK  6 active torsions:
REMARK  status: ('A' for Active; 'I' for Inactive)
REMARK    1  A    between atoms: C_6  and  C_7 
REMARK    2  A    between atoms: C_7  and  N_8 
REMARK    3  A    between atoms: C_12  and  C_13 
REMARK    4  A    between atoms: C_13  and  C_14 
REMARK    5  A    between atoms: N_23  and  C_24 
REMARK    6  A    between atoms: C_24  and  C_25 
ROOT
HETATM    1  C   UNL     1     -43.331  59.960 -52.162  1.00  0.00     0.149 C 
HETATM    2  N   UNL     1     -44.331  58.979 -51.766  1.00  0.00    -0.220 NA
HETATM    3  C   UNL     1     -45.009  59.387 -50.639  1.00  0.00     0.304 C 
HETATM    4  O   UNL     1     -46.041  58.859 -50.264  1.00  0.00    -0.253 OA
HETATM    5  N   UNL     1     -44.351  60.431 -50.079  1.00  0.00    -0.270 N 
HETATM    6  C   UNL     1     -43.394  60.896 -50.934  1.00  0.00     0.257 C 
HETATM    7  O   UNL     1     -42.675  61.872 -50.758  1.00  0.00    -0.270 OA
HETATM    8  H   UNL     1     -44.954  58.628 -52.492  1.00  0.00     0.134 HD
ENDROOT
BRANCH   1   9
HETATM    9  C   UNL     1     -41.905  59.339 -52.327  1.00  0.00     0.028 C 
HETATM   10  C   UNL     1     -41.740  58.418 -53.554  1.00  0.00     0.035 C 
HETATM   11  C   UNL     1     -42.370  57.040 -53.389  1.00  0.00     0.235 C 
HETATM   12  N   UNL     1     -41.844  56.369 -52.142  1.00  0.00    -0.067 N 
HETATM   13  H   UNL     1     -40.842  56.205 -52.295  1.00  0.00     0.280 HD
HETATM   14  C   UNL     1     -41.993  57.201 -50.893  1.00  0.00     0.235 C 
HETATM   15  C   UNL     1     -41.374  58.575 -51.094  1.00  0.00     0.035 C 
BRANCH  12  16
HETATM   16  C   UNL     1     -42.468  54.998 -51.925  1.00  0.00     0.273 C 
BRANCH  16  17
HETATM   17  C   UNL     1     -41.625  53.853 -52.427  1.00  0.00    -0.027 A 
HETATM   18  C   UNL     1     -40.682  53.190 -51.612  1.00  0.00    -0.054 A 
HETATM   19  C   UNL     1     -39.925  52.137 -52.154  1.00  0.00     0.014 A 
HETATM   20  C   UNL     1     -40.426  53.587 -50.182  1.00  0.00     0.049 C 
HETATM   21  C   UNL     1     -40.082  51.735 -53.484  1.00  0.00    -0.061 A 
HETATM   22  C   UNL     1     -39.256  50.620 -54.056  1.00  0.00     0.048 C 
HETATM   23  C   UNL     1     -41.021  52.389 -54.283  1.00  0.00     0.007 A 
HETATM   24  C   UNL     1     -41.783  53.437 -53.763  1.00  0.00     0.010 A 
ENDBRANCH  16  17
ENDBRANCH  12  16
ENDBRANCH   1   9
BRANCH   1  25
HETATM   25  C   UNL     1     -43.809  60.650 -53.441  1.00  0.00     0.067 A 
HETATM   26  N   UNL     1     -44.899  60.076 -54.037  1.00  0.00    -0.263 NA
HETATM   27  C   UNL     1     -45.370  60.652 -55.168  1.00  0.00     0.117 A 
HETATM   28  C   UNL     1     -44.797  61.762 -55.758  1.00  0.00     0.019 A 
HETATM   29  C   UNL     1     -43.673  62.317 -55.159  1.00  0.00     0.003 A 
HETATM   30  C   UNL     1     -43.165  61.755 -53.990  1.00  0.00     0.030 A 
ENDBRANCH   1  25
BRANCH   5  31
HETATM   31  C   UNL     1     -44.722  61.065 -48.825  1.00  0.00     0.168 C 
BRANCH  31  32
HETATM   32  C   UNL     1     -45.798  62.140 -49.012  1.00  0.00     0.140 C 
HETATM   33  O   UNL     1     -46.959  61.863 -48.194  1.00  0.00    -0.384 OA
HETATM   34  C   UNL     1     -47.483  63.125 -47.736  1.00  0.00     0.168 C 
HETATM   35  C   UNL     1     -46.650  64.221 -48.369  1.00  0.00     0.029 C 
HETATM   36  C   UNL     1     -45.331  63.527 -48.603  1.00  0.00     0.036 C 
ENDBRANCH  31  32
ENDBRANCH   5  31
TORSDOF 6
ENDMDL
MODEL 5
REMARK VINA RESULT:      -7.9      3.142      7.712
REMARK  6 active torsions:
REMARK  status: ('A' for Active; 'I' for Inactive)
REMARK    1  A    between atoms: C_6  and  C_7 
REMARK    2  A    between atoms: C_7  and  N_8 
REMARK    3  A    between atoms: C_12  and  C_13 
REMARK    4  A    between atoms: C_13  and  C_14 
REMARK    5  A    between atoms: N_23  and  C_24 
REMARK    6  A    between atoms: C_24  and  C_25 
ROOT
HETATM    1  C   UNL     1     -42.157  56.843 -52.188  1.00  0.00     0.149 C 
HETATM    2  N   UNL     1     -43.037  55.769 -52.627  1.00  0.00    -0.220 NA
HETATM    3  C   UNL     1     -42.988  54.700 -51.761  1.00  0.00     0.304 C 
HETATM    4  O   UNL     1     -43.804  53.796 -51.783  1.00  0.00    -0.253 OA
HETATM    5  N   UNL     1     -41.929  54.852 -50.928  1.00  0.00    -0.270 N 
HETATM    6  C   UNL     1     -41.419  56.113 -51.044  1.00  0.00     0.257 C 
HETATM    7  O   UNL     1     -40.508  56.591 -50.379  1.00  0.00    -0.270 OA
HETATM    8  H   UNL     1     -43.990  56.022 -52.883  1.00  0.00     0.134 HD
ENDROOT
BRANCH   1   9
HETATM    9  C   UNL     1     -41.159  57.302 -53.302  1.00  0.00     0.028 C 
HETATM   10  C   UNL     1     -41.654  58.479 -54.167  1.00  0.00     0.035 C 
HETATM   11  C   UNL     1     -42.703  58.093 -55.203  1.00  0.00     0.235 C 
HETATM   12  N   UNL     1     -42.192  56.968 -56.073  1.00  0.00    -0.067 N 
HETATM   13  H   UNL     1     -41.395  57.342 -56.602  1.00  0.00     0.280 HD
HETATM   14  C   UNL     1     -41.711  55.768 -55.296  1.00  0.00     0.235 C 
HETATM   15  C   UNL     1     -40.681  56.186 -54.257  1.00  0.00     0.035 C 
BRANCH  12  16
HETATM   16  C   UNL     1     -43.220  56.533 -57.107  1.00  0.00     0.273 C 
BRANCH  16  17
HETATM   17  C   UNL     1     -43.396  57.506 -58.245  1.00  0.00    -0.027 A 
HETATM   18  C   UNL     1     -44.572  58.269 -58.415  1.00  0.00    -0.054 A 
HETATM   19  C   UNL     1     -44.668  59.149 -59.509  1.00  0.00     0.014 A 
HETATM   20  C   UNL     1     -45.752  58.158 -57.487  1.00  0.00     0.049 C 
HETATM   21  C   UNL     1     -43.627  59.280 -60.433  1.00  0.00    -0.061 A 
HETATM   22  C   UNL     1     -43.748  60.211 -61.604  1.00  0.00     0.048 C 
HETATM   23  C   UNL     1     -42.465  58.529 -60.255  1.00  0.00     0.007 A 
HETATM   24  C   UNL     1     -42.350  57.650 -59.177  1.00  0.00     0.010 A 
ENDBRANCH  16  17
ENDBRANCH  12  16
ENDBRANCH   1   9
BRANCH   1  25
HETATM   25  C   UNL     1     -43.020  57.998 -51.677  1.00  0.00     0.067 A 
HETATM   26  N   UNL     1     -42.325  59.051 -51.149  1.00  0.00    -0.263 NA
HETATM   27  C   UNL     1     -43.040  60.106 -50.690  1.00  0.00     0.117 A 
HETATM   28  C   UNL     1     -44.420  60.160 -50.705  1.00  0.00     0.019 A 
HETATM   29  C   UNL     1     -45.114  59.071 -51.217  1.00  0.00     0.003 A 
HETATM   30  C   UNL     1     -44.412  57.972 -51.705  1.00  0.00     0.030 A 
ENDBRANCH   1  25
BRANCH   5  31
HETATM   31  C   UNL     1     -41.509  53.873 -49.939  1.00  0.00     0.168 C 
BRANCH  31  32
HETATM   32  C   UNL     1     -40.308  53.047 -50.412  1.00  0.00     0.140 C 
HETATM   33  O   UNL     1     -40.374  51.694 -49.902  1.00  0.00    -0.384 OA
HETATM   34  C   UNL     1     -39.849  50.817 -50.918  1.00  0.00     0.168 C 
HETATM   35  C   UNL     1     -39.371  51.684 -52.065  1.00  0.00     0.029 C 
HETATM   36  C   UNL     1     -40.238  52.911 -51.924  1.00  0.00     0.036 C 
ENDBRANCH  31  32
ENDBRANCH   5  31
TORSDOF 6
ENDMDL
MODEL 6
REMARK VINA RESULT:      -7.7     16.895     19.857
REMARK  6 active torsions:
REMARK  status: ('A' for Active; 'I' for Inactive)
REMARK    1  A    between atoms: C_6  and  C_7 
REMARK    2  A    between atoms: C_7  and  N_8 
REMARK    3  A    between atoms: C_12  and  C_13 
REMARK    4  A    between atoms: C_13  and  C_14 
REMARK    5  A    between atoms: N_23  and  C_24 
REMARK    6  A    between atoms: C_24  and  C_25 
ROOT
HETATM    1  C   UNL     1     -33.734  40.201 -53.717  1.00  0.00     0.149 C 
HETATM    2  N   UNL     1     -34.542  39.091 -53.235  1.00  0.00    -0.220 NA
HETATM    3  C   UNL     1     -35.759  39.045 -53.879  1.00  0.00     0.304 C 
HETATM    4  O   UNL     1     -36.498  38.078 -53.821  1.00  0.00    -0.253 OA
HETATM    5  N   UNL     1     -35.949  40.205 -54.552  1.00  0.00    -0.270 N 
HETATM    6  C   UNL     1     -34.788  40.923 -54.586  1.00  0.00     0.257 C 
HETATM    7  O   UNL     1     -34.606  41.981 -55.176  1.00  0.00    -0.270 OA
HETATM    8  H   UNL     1     -34.094  38.177 -53.179  1.00  0.00     0.134 HD
ENDROOT
BRANCH   1   9
HETATM    9  C   UNL     1     -33.224  41.125 -52.563  1.00  0.00     0.028 C 
HETATM   10  C   UNL     1     -31.860  40.720 -51.967  1.00  0.00     0.035 C 
HETATM   11  C   UNL     1     -31.919  39.515 -51.036  1.00  0.00     0.235 C 
HETATM   12  N   UNL     1     -32.933  39.748 -49.941  1.00  0.00    -0.067 N 
HETATM   13  H   UNL     1     -32.581  40.527 -49.372  1.00  0.00     0.280 HD
HETATM   14  C   UNL     1     -34.302  40.125 -50.449  1.00  0.00     0.235 C 
HETATM   15  C   UNL     1     -34.209  41.317 -51.389  1.00  0.00     0.035 C 
BRANCH  12  16
HETATM   16  C   UNL     1     -33.044  38.556 -49.002  1.00  0.00     0.273 C 
BRANCH  16  17
HETATM   17  C   UNL     1     -32.313  38.733 -47.695  1.00  0.00    -0.027 A 
HETATM   18  C   UNL     1     -32.688  38.052 -46.517  1.00  0.00    -0.054 A 
HETATM   19  C   UNL     1     -31.965  38.277 -45.332  1.00  0.00     0.014 A 
HETATM   20  C   UNL     1     -33.862  37.110 -46.464  1.00  0.00     0.049 C 
HETATM   21  C   UNL     1     -30.885  39.164 -45.295  1.00  0.00    -0.061 A 
HETATM   22  C   UNL     1     -30.131  39.408 -44.020  1.00  0.00     0.048 C 
HETATM   23  C   UNL     1     -30.513  39.829 -46.464  1.00  0.00     0.007 A 
HETATM   24  C   UNL     1     -31.219  39.619 -47.650  1.00  0.00     0.010 A 
ENDBRANCH  16  17
ENDBRANCH  12  16
ENDBRANCH   1   9
BRANCH   1  25
HETATM   25  C   UNL     1     -32.584  39.636 -54.553  1.00  0.00     0.067 A 
HETATM   26  N   UNL     1     -32.096  40.479 -55.513  1.00  0.00    -0.263 NA
HETATM   27  C   UNL     1     -31.070  40.032 -56.276  1.00  0.00     0.117 A 
HETATM   28  C   UNL     1     -30.515  38.773 -56.152  1.00  0.00     0.019 A 
HETATM   29  C   UNL     1     -31.040  37.916 -55.192  1.00  0.00     0.003 A 
HETATM   30  C   UNL     1     -32.091  38.345 -54.385  1.00  0.00     0.030 A 
ENDBRANCH   1  25
BRANCH   5  31
HETATM   31  C   UNL     1     -37.162  40.553 -55.273  1.00  0.00     0.168 C 
BRANCH  31  32
HETATM   32  C   UNL     1     -36.997  40.416 -56.791  1.00  0.00     0.140 C 
HETATM   33  O   UNL     1     -38.008  39.544 -57.348  1.00  0.00    -0.384 OA
HETATM   34  C   UNL     1     -38.367  40.064 -58.644  1.00  0.00     0.168 C 
HETATM   35  C   UNL     1     -37.479  41.259 -58.918  1.00  0.00     0.029 C 
HETATM   36  C   UNL     1     -37.145  41.737 -57.527  1.00  0.00     0.036 C 
ENDBRANCH  31  32
ENDBRANCH   5  31
TORSDOF 6
ENDMDL
MODEL 7
REMARK VINA RESULT:      -7.6      2.519      7.751
REMARK  6 active torsions:
REMARK  status: ('A' for Active; 'I' for Inactive)
REMARK    1  A    between atoms: C_6  and  C_7 
REMARK    2  A    between atoms: C_7  and  N_8 
REMARK    3  A    between atoms: C_12  and  C_13 
REMARK    4  A    between atoms: C_13  and  C_14 
REMARK    5  A    between atoms: N_23  and  C_24 
REMARK    6  A    between atoms: C_24  and  C_25 
ROOT
HETATM    1  C   UNL     1     -42.529  56.357 -52.853  1.00  0.00     0.149 C 
HETATM    2  N   UNL     1     -41.564  57.062 -53.684  1.00  0.00    -0.220 NA
HETATM    3  C   UNL     1     -41.279  58.307 -53.170  1.00  0.00     0.304 C 
HETATM    4  O   UNL     1     -40.334  58.975 -53.549  1.00  0.00    -0.253 OA
HETATM    5  N   UNL     1     -42.191  58.611 -52.214  1.00  0.00    -0.270 N 
HETATM    6  C   UNL     1     -42.924  57.504 -51.897  1.00  0.00     0.257 C 
HETATM    7  O   UNL     1     -43.778  57.426 -51.023  1.00  0.00    -0.270 OA
HETATM    8  H   UNL     1     -40.726  56.551 -53.961  1.00  0.00     0.134 HD
ENDROOT
BRANCH   1   9
HETATM    9  C   UNL     1     -43.766  55.844 -53.662  1.00  0.00     0.028 C 
HETATM   10  C   UNL     1     -43.465  54.684 -54.633  1.00  0.00     0.035 C 
HETATM   11  C   UNL     1     -42.750  55.108 -55.910  1.00  0.00     0.235 C 
HETATM   12  N   UNL     1     -43.524  56.201 -56.607  1.00  0.00    -0.067 N 
HETATM   13  H   UNL     1     -44.416  55.788 -56.907  1.00  0.00     0.280 HD
HETATM   14  C   UNL     1     -43.835  57.385 -55.725  1.00  0.00     0.235 C 
HETATM   15  C   UNL     1     -44.531  56.930 -54.452  1.00  0.00     0.035 C 
BRANCH  12  16
HETATM   16  C   UNL     1     -42.830  56.674 -57.876  1.00  0.00     0.273 C 
BRANCH  16  17
HETATM   17  C   UNL     1     -43.681  57.565 -58.746  1.00  0.00    -0.027 A 
HETATM   18  C   UNL     1     -43.302  58.883 -59.080  1.00  0.00    -0.054 A 
HETATM   19  C   UNL     1     -44.153  59.659 -59.888  1.00  0.00     0.014 A 
HETATM   20  C   UNL     1     -42.030  59.514 -58.578  1.00  0.00     0.049 C 
HETATM   21  C   UNL     1     -45.367  59.154 -60.363  1.00  0.00    -0.061 A 
HETATM   22  C   UNL     1     -46.274  59.997 -61.212  1.00  0.00     0.048 C 
HETATM   23  C   UNL     1     -45.732  57.847 -60.036  1.00  0.00     0.007 A 
HETATM   24  C   UNL     1     -44.902  57.062 -59.235  1.00  0.00     0.010 A 
ENDBRANCH  16  17
ENDBRANCH  12  16
ENDBRANCH   1   9
BRANCH   1  25
HETATM   25  C   UNL     1     -41.805  55.221 -52.127  1.00  0.00     0.067 A 
HETATM   26  N   UNL     1     -40.858  54.570 -52.869  1.00  0.00    -0.263 NA
HETATM   27  C   UNL     1     -40.180  53.561 -52.272  1.00  0.00     0.117 A 
HETATM   28  C   UNL     1     -40.412  53.144 -50.976  1.00  0.00     0.019 A 
HETATM   29  C   UNL     1     -41.398  53.795 -50.244  1.00  0.00     0.003 A 
HETATM   30  C   UNL     1     -42.110  54.842 -50.823  1.00  0.00     0.030 A 
ENDBRANCH   1  25
BRANCH   5  31
HETATM   31  C   UNL     1     -42.261  59.883 -51.515  1.00  0.00     0.168 C 
BRANCH  31  32
HETATM   32  C   UNL     1     -43.383  60.780 -52.050  1.00  0.00     0.140 C 
HETATM   33  O   UNL     1     -43.845  60.322 -53.342  1.00  0.00    -0.384 OA
HETATM   34  C   UNL     1     -45.266  60.553 -53.406  1.00  0.00     0.168 C 
HETATM   35  C   UNL     1     -45.671  61.255 -52.126  1.00  0.00     0.029 C 
HETATM   36  C   UNL     1     -44.612  60.793 -51.157  1.00  0.00     0.036 C 
ENDBRANCH  31  32
ENDBRANCH   5  31
TORSDOF 6
ENDMDL
MODEL 8
REMARK VINA RESULT:      -7.5      2.792      7.280
REMARK  6 active torsions:
REMARK  status: ('A' for Active; 'I' for Inactive)
REMARK    1  A    between atoms: C_6  and  C_7 
REMARK    2  A    between atoms: C_7  and  N_8 
REMARK    3  A    between atoms: C_12  and  C_13 
REMARK    4  A    between atoms: C_13  and  C_14 
REMARK    5  A    between atoms: N_23  and  C_24 
REMARK    6  A    between atoms: C_24  and  C_25 
ROOT
HETATM    1  C   UNL     1     -42.853  57.559 -52.318  1.00  0.00     0.149 C 
HETATM    2  N   UNL     1     -43.493  56.797 -51.256  1.00  0.00    -0.220 NA
HETATM    3  C   UNL     1     -43.282  55.446 -51.416  1.00  0.00     0.304 C 
HETATM    4  O   UNL     1     -43.509  54.635 -50.536  1.00  0.00    -0.253 OA
HETATM    5  N   UNL     1     -42.793  55.218 -52.659  1.00  0.00    -0.270 N 
HETATM    6  C   UNL     1     -42.432  56.397 -53.245  1.00  0.00     0.257 C 
HETATM    7  O   UNL     1     -41.891  56.530 -54.336  1.00  0.00    -0.270 OA
HETATM    8  H   UNL     1     -43.334  57.107 -50.298  1.00  0.00     0.134 HD
ENDROOT
BRANCH   1   9
HETATM    9  C   UNL     1     -43.839  58.532 -53.045  1.00  0.00     0.028 C 
HETATM   10  C   UNL     1     -44.936  57.837 -53.876  1.00  0.00     0.035 C 
HETATM   11  C   UNL     1     -44.449  57.269 -55.204  1.00  0.00     0.235 C 
HETATM   12  N   UNL     1     -43.765  58.345 -56.014  1.00  0.00    -0.067 N 
HETATM   13  H   UNL     1     -44.484  59.039 -56.251  1.00  0.00     0.280 HD
HETATM   14  C   UNL     1     -42.660  59.056 -55.274  1.00  0.00     0.235 C 
HETATM   15  C   UNL     1     -43.171  59.594 -53.946  1.00  0.00     0.035 C 
BRANCH  12  16
HETATM   16  C   UNL     1     -43.238  57.815 -57.339  1.00  0.00     0.273 C 
BRANCH  16  17
HETATM   17  C   UNL     1     -44.317  57.428 -58.319  1.00  0.00    -0.027 A 
HETATM   18  C   UNL     1     -44.091  56.521 -59.376  1.00  0.00    -0.054 A 
HETATM   19  C   UNL     1     -45.144  56.216 -60.258  1.00  0.00     0.014 A 
HETATM   20  C   UNL     1     -42.750  55.882 -59.625  1.00  0.00     0.049 C 
HETATM   21  C   UNL     1     -46.408  56.796 -60.112  1.00  0.00    -0.061 A 
HETATM   22  C   UNL     1     -47.519  56.475 -61.069  1.00  0.00     0.048 C 
HETATM   23  C   UNL     1     -46.627  57.686 -59.060  1.00  0.00     0.007 A 
HETATM   24  C   UNL     1     -45.595  58.002 -58.175  1.00  0.00     0.010 A 
ENDBRANCH  16  17
ENDBRANCH  12  16
ENDBRANCH   1   9
BRANCH   1  25
HETATM   25  C   UNL     1     -41.649  58.295 -51.728  1.00  0.00     0.067 A 
HETATM   26  N   UNL     1     -41.895  58.972 -50.565  1.00  0.00    -0.263 NA
HETATM   27  C   UNL     1     -40.861  59.634 -49.994  1.00  0.00     0.117 A 
HETATM   28  C   UNL     1     -39.591  59.681 -50.534  1.00  0.00     0.019 A 
HETATM   29  C   UNL     1     -39.361  59.014 -51.732  1.00  0.00     0.003 A 
HETATM   30  C   UNL     1     -40.400  58.316 -52.343  1.00  0.00     0.030 A 
ENDBRANCH   1  25
BRANCH   5  31
HETATM   31  C   UNL     1     -42.535  53.900 -53.217  1.00  0.00     0.168 C 
BRANCH  31  32
HETATM   32  C   UNL     1     -41.061  53.497 -53.102  1.00  0.00     0.140 C 
HETATM   33  O   UNL     1     -40.759  53.003 -51.776  1.00  0.00    -0.384 OA
HETATM   34  C   UNL     1     -39.793  51.942 -51.914  1.00  0.00     0.168 C 
HETATM   35  C   UNL     1     -39.435  51.840 -53.382  1.00  0.00     0.029 C 
HETATM   36  C   UNL     1     -40.674  52.377 -54.053  1.00  0.00     0.036 C 
ENDBRANCH  31  32
ENDBRANCH   5  31
TORSDOF 6
ENDMDL
MODEL 9
REMARK VINA RESULT:      -7.5     16.532     19.301
REMARK  6 active torsions:
REMARK  status: ('A' for Active; 'I' for Inactive)
REMARK    1  A    between atoms: C_6  and  C_7 
REMARK    2  A    between atoms: C_7  and  N_8 
REMARK    3  A    between atoms: C_12  and  C_13 
REMARK    4  A    between atoms: C_13  and  C_14 
REMARK    5  A    between atoms: N_23  and  C_24 
REMARK    6  A    between atoms: C_24  and  C_25 
ROOT
HETATM    1  C   UNL     1     -35.879  39.994 -52.249  1.00  0.00     0.149 C 
HETATM    2  N   UNL     1     -36.025  39.081 -53.374  1.00  0.00    -0.220 NA
HETATM    3  C   UNL     1     -34.819  38.505 -53.707  1.00  0.00     0.304 C 
HETATM    4  O   UNL     1     -34.732  37.541 -54.446  1.00  0.00    -0.253 OA
HETATM    5  N   UNL     1     -33.821  39.173 -53.081  1.00  0.00    -0.270 N 
HETATM    6  C   UNL     1     -34.339  40.018 -52.141  1.00  0.00     0.257 C 
HETATM    7  O   UNL     1     -33.701  40.709 -51.356  1.00  0.00    -0.270 OA
HETATM    8  H   UNL     1     -36.784  38.403 -53.330  1.00  0.00     0.134 HD
ENDROOT
BRANCH   1   9
HETATM    9  C   UNL     1     -36.447  41.420 -52.548  1.00  0.00     0.028 C 
HETATM   10  C   UNL     1     -37.986  41.501 -52.614  1.00  0.00     0.035 C 
HETATM   11  C   UNL     1     -38.587  40.944 -53.899  1.00  0.00     0.235 C 
HETATM   12  N   UNL     1     -37.965  41.614 -55.101  1.00  0.00    -0.067 N 
HETATM   13  H   UNL     1     -38.241  42.602 -55.066  1.00  0.00     0.280 HD
HETATM   14  C   UNL     1     -36.458  41.553 -55.120  1.00  0.00     0.235 C 
HETATM   15  C   UNL     1     -35.888  42.097 -53.819  1.00  0.00     0.035 C 
BRANCH  12  16
HETATM   16  C   UNL     1     -38.518  41.068 -56.410  1.00  0.00     0.273 C 
BRANCH  16  17
HETATM   17  C   UNL     1     -37.547  40.204 -57.174  1.00  0.00    -0.027 A 
HETATM   18  C   UNL     1     -36.872  40.659 -58.328  1.00  0.00    -0.054 A 
HETATM   19  C   UNL     1     -35.989  39.792 -58.995  1.00  0.00     0.014 A 
HETATM   20  C   UNL     1     -37.084  42.036 -58.900  1.00  0.00     0.049 C 
HETATM   21  C   UNL     1     -35.769  38.487 -58.543  1.00  0.00    -0.061 A 
HETATM   22  C   UNL     1     -34.835  37.565 -59.274  1.00  0.00     0.048 C 
HETATM   23  C   UNL     1     -36.432  38.045 -57.398  1.00  0.00     0.007 A 
HETATM   24  C   UNL     1     -37.313  38.891 -56.722  1.00  0.00     0.010 A 
ENDBRANCH  16  17
ENDBRANCH  12  16
ENDBRANCH   1   9
BRANCH   1  25
HETATM   25  C   UNL     1     -36.537  39.359 -51.022  1.00  0.00     0.067 A 
HETATM   26  N   UNL     1     -37.310  38.260 -51.282  1.00  0.00    -0.263 NA
HETATM   27  C   UNL     1     -37.908  37.653 -50.230  1.00  0.00     0.117 A 
HETATM   28  C   UNL     1     -37.800  38.096 -48.926  1.00  0.00     0.019 A 
HETATM   29  C   UNL     1     -37.035  39.231 -48.680  1.00  0.00     0.003 A 
HETATM   30  C   UNL     1     -36.399  39.877 -49.737  1.00  0.00     0.030 A 
ENDBRANCH   1  25
BRANCH   5  31
HETATM   31  C   UNL     1     -32.404  38.906 -53.266  1.00  0.00     0.168 C 
BRANCH  31  32
HETATM   32  C   UNL     1     -31.892  39.394 -54.626  1.00  0.00     0.140 C 
HETATM   33  O   UNL     1     -31.787  38.300 -55.566  1.00  0.00    -0.384 OA
HETATM   34  C   UNL     1     -32.142  38.806 -56.868  1.00  0.00     0.168 C 
HETATM   35  C   UNL     1     -32.399  40.292 -56.725  1.00  0.00     0.029 C 
HETATM   36  C   UNL     1     -32.816  40.408 -55.280  1.00  0.00     0.036 C 
ENDBRANCH  31  32
ENDBRANCH   5  31
TORSDOF 6
ENDMDL
MODEL 10
REMARK VINA RESULT:      -7.2      3.200      7.636
REMARK  6 active torsions:
REMARK  status: ('A' for Active; 'I' for Inactive)
REMARK    1  A    between atoms: C_6  and  C_7 
REMARK    2  A    between atoms: C_7  and  N_8 
REMARK    3  A    between atoms: C_12  and  C_13 
REMARK    4  A    between atoms: C_13  and  C_14 
REMARK    5  A    between atoms: N_23  and  C_24 
REMARK    6  A    between atoms: C_24  and  C_25 
ROOT
HETATM    1  C   UNL     1     -43.188  57.581 -52.358  1.00  0.00     0.149 C 
HETATM    2  N   UNL     1     -44.017  56.871 -51.395  1.00  0.00    -0.220 NA
HETATM    3  C   UNL     1     -43.704  55.530 -51.361  1.00  0.00     0.304 C 
HETATM    4  O   UNL     1     -44.087  54.787 -50.476  1.00  0.00    -0.253 OA
HETATM    5  N   UNL     1     -42.927  55.230 -52.430  1.00  0.00    -0.270 N 
HETATM    6  C   UNL     1     -42.502  56.376 -53.038  1.00  0.00     0.257 C 
HETATM    7  O   UNL     1     -41.730  56.451 -53.987  1.00  0.00    -0.270 OA
HETATM    8  H   UNL     1     -44.102  57.276 -50.464  1.00  0.00     0.134 HD
ENDROOT
BRANCH   1   9
HETATM    9  C   UNL     1     -44.028  58.409 -53.386  1.00  0.00     0.028 C 
HETATM   10  C   UNL     1     -44.735  57.567 -54.467  1.00  0.00     0.035 C 
HETATM   11  C   UNL     1     -43.810  57.057 -55.566  1.00  0.00     0.235 C 
HETATM   12  N   UNL     1     -43.057  58.206 -56.192  1.00  0.00    -0.067 N 
HETATM   13  H   UNL     1     -43.753  58.797 -56.661  1.00  0.00     0.280 HD
HETATM   14  C   UNL     1     -42.316  59.064 -55.196  1.00  0.00     0.235 C 
HETATM   15  C   UNL     1     -43.259  59.541 -54.103  1.00  0.00     0.035 C 
BRANCH  12  16
HETATM   16  C   UNL     1     -42.100  57.738 -57.279  1.00  0.00     0.273 C 
BRANCH  16  17
HETATM   17  C   UNL     1     -42.024  58.661 -58.469  1.00  0.00    -0.027 A 
HETATM   18  C   UNL     1     -42.099  58.191 -59.798  1.00  0.00    -0.054 A 
HETATM   19  C   UNL     1     -42.010  59.111 -60.859  1.00  0.00     0.014 A 
HETATM   20  C   UNL     1     -42.240  56.730 -60.136  1.00  0.00     0.049 C 
HETATM   21  C   UNL     1     -41.842  60.479 -60.624  1.00  0.00    -0.061 A 
HETATM   22  C   UNL     1     -41.732  61.449 -61.765  1.00  0.00     0.048 C 
HETATM   23  C   UNL     1     -41.776  60.938 -59.308  1.00  0.00     0.007 A 
HETATM   24  C   UNL     1     -41.863  60.041 -58.243  1.00  0.00     0.010 A 
ENDBRANCH  16  17
ENDBRANCH  12  16
ENDBRANCH   1   9
BRANCH   1  25
HETATM   25  C   UNL     1     -42.195  58.455 -51.590  1.00  0.00     0.067 A 
HETATM   26  N   UNL     1     -40.901  58.011 -51.602  1.00  0.00    -0.263 NA
HETATM   27  C   UNL     1     -39.978  58.752 -50.945  1.00  0.00     0.117 A 
HETATM   28  C   UNL     1     -40.278  59.908 -50.250  1.00  0.00     0.019 A 
HETATM   29  C   UNL     1     -41.601  60.333 -50.222  1.00  0.00     0.003 A 
HETATM   30  C   UNL     1     -42.576  59.599 -50.893  1.00  0.00     0.030 A 
ENDBRANCH   1  25
BRANCH   5  31
HETATM   31  C   UNL     1     -42.478  53.891 -52.775  1.00  0.00     0.168 C 
BRANCH  31  32
HETATM   32  C   UNL     1     -41.112  53.560 -52.164  1.00  0.00     0.140 C 
HETATM   33  O   UNL     1     -41.252  53.057 -50.815  1.00  0.00    -0.384 OA
HETATM   34  C   UNL     1     -40.242  52.049 -50.616  1.00  0.00     0.168 C 
HETATM   35  C   UNL     1     -39.401  51.992 -51.874  1.00  0.00     0.029 C 
HETATM   36  C   UNL     1     -40.365  52.478 -52.927  1.00  0.00     0.036 C 
ENDBRANCH  31  32
ENDBRANCH   5  31
TORSDOF 6
ENDMDL
