MODEL 1
REMARK VINA RESULT:      -7.5      0.000      0.000
REMARK  5 active torsions:
REMARK  status: ('A' for Active; 'I' for Inactive)
REMARK    1  A    between atoms: C_2  and  O_3 
REMARK    2  A    between atoms: C_4  and  C_5 
REMARK    3  A    between atoms: C_5  and  O_6 
REMARK    4  A    between atoms: C_9  and  C_10 
REMARK    5  A    between atoms: C_22  and  O_23 
ROOT
HETATM    1  C   UNL     1     -42.260  60.083 -53.821  1.00  0.00     0.047 C 
HETATM    2  C   UNL     1     -42.236  58.555 -54.029  1.00  0.00     0.073 C 
HETATM    3  C   UNL     1     -40.999  57.837 -53.350  1.00  0.00     0.133 C 
HETATM    4  C   UNL     1     -41.243  56.619 -52.413  1.00  0.00     0.074 C 
HETATM    5  C   UNL     1     -42.629  56.551 -51.904  1.00  0.00     0.030 A 
HETATM    6  C   UNL     1     -43.692  57.197 -52.486  1.00  0.00     0.042 A 
HETATM    7  N   UNL     1     -44.791  56.920 -51.723  1.00  0.00    -0.279 N 
HETATM    8  H   UNL     1     -45.751  57.225 -51.855  1.00  0.00     0.189 HD
HETATM    9  N   UNL     1     -44.506  56.132 -50.665  1.00  0.00    -0.149 NA
HETATM   10  C   UNL     1     -43.201  55.933 -50.794  1.00  0.00     0.190 A 
HETATM   11  C   UNL     1     -43.666  58.007 -53.715  1.00  0.00     0.097 C 
ENDROOT
BRANCH   4  12
HETATM   12  C   UNL     1     -40.964  55.288 -53.109  1.00  0.00    -0.047 A 
HETATM   13  C   UNL     1     -40.503  54.146 -52.434  1.00  0.00     0.027 A 
HETATM   14  C   UNL     1     -40.306  52.946 -53.122  1.00  0.00     0.011 A 
HETATM   15 BR   UNL     1     -39.676  51.427 -52.189  1.00  0.00    -0.051 Br
HETATM   16  C   UNL     1     -40.572  52.856 -54.486  1.00  0.00     0.019 A 
HETATM   17  C   UNL     1     -41.034  53.977 -55.169  1.00  0.00     0.002 A 
HETATM   18  C   UNL     1     -41.228  55.181 -54.488  1.00  0.00     0.008 A 
ENDBRANCH   4  12
BRANCH   3  19
HETATM   19  C   UNL     1     -40.156  58.808 -52.542  1.00  0.00     0.266 C 
HETATM   20  O   UNL     1     -39.065  59.244 -52.888  1.00  0.00    -0.265 OA
BRANCH  19  21
HETATM   21  O   UNL     1     -40.791  59.136 -51.382  1.00  0.00    -0.326 OA
HETATM   22  C   UNL     1     -39.926  59.603 -50.347  1.00  0.00     0.213 C 
ENDBRANCH  19  21
ENDBRANCH   3  19
BRANCH   2  23
HETATM   23  O   UNL     1     -42.056  58.418 -55.463  1.00  0.00    -0.389 OA
HETATM   24  H   UNL     1     -41.381  59.058 -55.752  1.00  0.00     0.210 HD
ENDBRANCH   2  23
BRANCH  10  25
HETATM   25  O   UNL     1     -42.642  55.182 -49.853  1.00  0.00    -0.343 OA
HETATM   26  H   UNL     1     -41.793  54.906 -50.238  1.00  0.00     0.219 HD
ENDBRANCH  10  25
TORSDOF 5
ENDMDL
MODEL 2
REMARK VINA RESULT:      -7.4      2.220      3.970
REMARK  5 active torsions:
REMARK  status: ('A' for Active; 'I' for Inactive)
REMARK    1  A    between atoms: C_2  and  O_3 
REMARK    2  A    between atoms: C_4  and  C_5 
REMARK    3  A    between atoms: C_5  and  O_6 
REMARK    4  A    between atoms: C_9  and  C_10 
REMARK    5  A    between atoms: C_22  and  O_23 
ROOT
HETATM    1  C   UNL     1     -45.319  58.386 -55.455  1.00  0.00     0.047 C 
HETATM    2  C   UNL     1     -44.422  57.444 -54.626  1.00  0.00     0.073 C 
HETATM    3  C   UNL     1     -43.109  56.984 -55.383  1.00  0.00     0.133 C 
HETATM    4  C   UNL     1     -41.728  57.149 -54.685  1.00  0.00     0.074 C 
HETATM    5  C   UNL     1     -41.755  58.132 -53.581  1.00  0.00     0.030 A 
HETATM    6  C   UNL     1     -42.902  58.543 -52.947  1.00  0.00     0.042 A 
HETATM    7  N   UNL     1     -42.529  59.467 -52.011  1.00  0.00    -0.279 N 
HETATM    8  H   UNL     1     -43.111  59.978 -51.355  1.00  0.00     0.189 HD
HETATM    9  N   UNL     1     -41.198  59.691 -52.001  1.00  0.00    -0.149 NA
HETATM   10  C   UNL     1     -40.760  58.884 -52.958  1.00  0.00     0.190 A 
HETATM   11  C   UNL     1     -44.269  58.061 -53.199  1.00  0.00     0.097 C 
ENDROOT
BRANCH   4  12
HETATM   12  C   UNL     1     -41.217  55.837 -54.093  1.00  0.00    -0.047 A 
HETATM   13  C   UNL     1     -41.314  55.516 -52.729  1.00  0.00     0.027 A 
HETATM   14  C   UNL     1     -40.863  54.281 -52.257  1.00  0.00     0.011 A 
HETATM   15 BR   UNL     1     -40.999  53.880 -50.414  1.00  0.00    -0.051 Br
HETATM   16  C   UNL     1     -40.318  53.343 -53.128  1.00  0.00     0.019 A 
HETATM   17  C   UNL     1     -40.217  53.643 -54.484  1.00  0.00     0.002 A 
HETATM   18  C   UNL     1     -40.663  54.878 -54.961  1.00  0.00     0.008 A 
ENDBRANCH   4  12
BRANCH   3  19
HETATM   19  C   UNL     1     -42.966  57.666 -56.732  1.00  0.00     0.266 C 
HETATM   20  O   UNL     1     -42.414  58.743 -56.917  1.00  0.00    -0.265 OA
BRANCH  19  21
HETATM   21  O   UNL     1     -43.528  56.903 -57.711  1.00  0.00    -0.326 OA
HETATM   22  C   UNL     1     -43.115  55.536 -57.704  1.00  0.00     0.213 C 
ENDBRANCH  19  21
ENDBRANCH   3  19
BRANCH   2  23
HETATM   23  O   UNL     1     -45.243  56.257 -54.469  1.00  0.00    -0.389 OA
HETATM   24  H   UNL     1     -45.061  55.654 -55.212  1.00  0.00     0.210 HD
ENDBRANCH   2  23
BRANCH  10  25
HETATM   25  O   UNL     1     -39.450  58.915 -53.176  1.00  0.00    -0.343 OA
HETATM   26  H   UNL     1     -39.282  58.141 -53.741  1.00  0.00     0.219 HD
ENDBRANCH  10  25
TORSDOF 5
ENDMDL
MODEL 3
REMARK VINA RESULT:      -6.7      2.023      3.512
REMARK  5 active torsions:
REMARK  status: ('A' for Active; 'I' for Inactive)
REMARK    1  A    between atoms: C_2  and  O_3 
REMARK    2  A    between atoms: C_4  and  C_5 
REMARK    3  A    between atoms: C_5  and  O_6 
REMARK    4  A    between atoms: C_9  and  C_10 
REMARK    5  A    between atoms: C_22  and  O_23 
ROOT
HETATM    1  C   UNL     1     -44.770  58.958 -54.709  1.00  0.00     0.047 C 
HETATM    2  C   UNL     1     -44.147  57.887 -53.790  1.00  0.00     0.073 C 
HETATM    3  C   UNL     1     -42.713  57.405 -54.255  1.00  0.00     0.133 C 
HETATM    4  C   UNL     1     -41.538  57.412 -53.234  1.00  0.00     0.074 C 
HETATM    5  C   UNL     1     -41.788  58.295 -52.074  1.00  0.00     0.030 A 
HETATM    6  C   UNL     1     -43.034  58.727 -51.694  1.00  0.00     0.042 A 
HETATM    7  N   UNL     1     -42.859  59.538 -50.608  1.00  0.00    -0.279 N 
HETATM    8  H   UNL     1     -43.560  60.029 -50.061  1.00  0.00     0.189 HD
HETATM    9  N   UNL     1     -41.562  59.667 -50.257  1.00  0.00    -0.149 NA
HETATM   10  C   UNL     1     -40.942  58.918 -51.159  1.00  0.00     0.190 A 
HETATM   11  C   UNL     1     -44.319  58.365 -52.313  1.00  0.00     0.097 C 
ENDROOT
BRANCH   4  12
HETATM   12  C   UNL     1     -41.248  56.021 -52.673  1.00  0.00    -0.047 A 
HETATM   13  C   UNL     1     -40.900  54.923 -53.476  1.00  0.00     0.027 A 
HETATM   14  C   UNL     1     -40.607  53.685 -52.898  1.00  0.00     0.011 A 
HETATM   15 BR   UNL     1     -40.151  52.222 -54.004  1.00  0.00    -0.051 Br
HETATM   16  C   UNL     1     -40.646  53.519 -51.516  1.00  0.00     0.019 A 
HETATM   17  C   UNL     1     -40.985  54.598 -50.705  1.00  0.00     0.002 A 
HETATM   18  C   UNL     1     -41.282  55.837 -51.278  1.00  0.00     0.008 A 
ENDBRANCH   4  12
BRANCH   3  19
HETATM   19  C   UNL     1     -42.213  58.190 -55.454  1.00  0.00     0.266 C 
HETATM   20  O   UNL     1     -41.717  59.308 -55.401  1.00  0.00    -0.265 OA
BRANCH  19  21
HETATM   21  O   UNL     1     -42.383  57.469 -56.598  1.00  0.00    -0.326 OA
HETATM   22  C   UNL     1     -42.547  58.260 -57.775  1.00  0.00     0.213 C 
ENDBRANCH  19  21
ENDBRANCH   3  19
BRANCH   2  23
HETATM   23  O   UNL     1     -45.036  56.751 -53.955  1.00  0.00    -0.389 OA
HETATM   24  H   UNL     1     -44.525  55.935 -53.811  1.00  0.00     0.210 HD
ENDBRANCH   2  23
BRANCH  10  25
HETATM   25  O   UNL     1     -39.618  58.876 -51.054  1.00  0.00    -0.343 OA
HETATM   26  H   UNL     1     -39.311  59.632 -51.582  1.00  0.00     0.219 HD
ENDBRANCH  10  25
TORSDOF 5
ENDMDL
MODEL 4
REMARK VINA RESULT:      -6.6      2.656      3.808
REMARK  5 active torsions:
REMARK  status: ('A' for Active; 'I' for Inactive)
REMARK    1  A    between atoms: C_2  and  O_3 
REMARK    2  A    between atoms: C_4  and  C_5 
REMARK    3  A    between atoms: C_5  and  O_6 
REMARK    4  A    between atoms: C_9  and  C_10 
REMARK    5  A    between atoms: C_22  and  O_23 
ROOT
HETATM    1  C   UNL     1     -42.832  59.647 -53.472  1.00  0.00     0.047 C 
HETATM    2  C   UNL     1     -42.034  58.332 -53.354  1.00  0.00     0.073 C 
HETATM    3  C   UNL     1     -42.819  57.175 -52.611  1.00  0.00     0.133 C 
HETATM    4  C   UNL     1     -42.939  55.778 -53.286  1.00  0.00     0.074 C 
HETATM    5  C   UNL     1     -42.698  55.821 -54.744  1.00  0.00     0.030 A 
HETATM    6  C   UNL     1     -42.037  56.841 -55.383  1.00  0.00     0.042 A 
HETATM    7  N   UNL     1     -42.036  56.541 -56.716  1.00  0.00    -0.279 N 
HETATM    8  H   UNL     1     -41.634  57.066 -57.486  1.00  0.00     0.189 HD
HETATM    9  N   UNL     1     -42.667  55.380 -56.989  1.00  0.00    -0.149 NA
HETATM   10  C   UNL     1     -43.062  54.974 -55.790  1.00  0.00     0.190 A 
HETATM   11  C   UNL     1     -41.417  58.019 -54.755  1.00  0.00     0.097 C 
ENDROOT
BRANCH   4  12
HETATM   12  C   UNL     1     -41.952  54.767 -52.707  1.00  0.00    -0.047 A 
HETATM   13  C   UNL     1     -41.456  53.671 -53.431  1.00  0.00     0.027 A 
HETATM   14  C   UNL     1     -40.523  52.804 -52.856  1.00  0.00     0.011 A 
HETATM   15 BR   UNL     1     -39.879  51.331 -53.852  1.00  0.00    -0.051 Br
HETATM   16  C   UNL     1     -40.062  53.014 -51.560  1.00  0.00     0.019 A 
HETATM   17  C   UNL     1     -40.540  54.098 -50.829  1.00  0.00     0.002 A 
HETATM   18  C   UNL     1     -41.476  54.966 -51.397  1.00  0.00     0.008 A 
ENDBRANCH   4  12
BRANCH   3  19
HETATM   19  C   UNL     1     -44.241  57.585 -52.270  1.00  0.00     0.266 C 
HETATM   20  O   UNL     1     -45.184  57.552 -53.049  1.00  0.00    -0.265 OA
BRANCH  19  21
HETATM   21  O   UNL     1     -44.321  57.982 -50.969  1.00  0.00    -0.326 OA
HETATM   22  C   UNL     1     -45.380  58.900 -50.697  1.00  0.00     0.213 C 
ENDBRANCH  19  21
ENDBRANCH   3  19
BRANCH   2  23
HETATM   23  O   UNL     1     -40.923  58.694 -52.493  1.00  0.00    -0.389 OA
HETATM   24  H   UNL     1     -41.234  59.353 -51.847  1.00  0.00     0.210 HD
ENDBRANCH   2  23
BRANCH  10  25
HETATM   25  O   UNL     1     -43.739  53.831 -55.767  1.00  0.00    -0.343 OA
HETATM   26  H   UNL     1     -43.104  53.169 -56.088  1.00  0.00     0.219 HD
ENDBRANCH  10  25
TORSDOF 5
ENDMDL
MODEL 5
REMARK VINA RESULT:      -6.3      3.164      5.462
REMARK  5 active torsions:
REMARK  status: ('A' for Active; 'I' for Inactive)
REMARK    1  A    between atoms: C_2  and  O_3 
REMARK    2  A    between atoms: C_4  and  C_5 
REMARK    3  A    between atoms: C_5  and  O_6 
REMARK    4  A    between atoms: C_9  and  C_10 
REMARK    5  A    between atoms: C_22  and  O_23 
ROOT
HETATM    1  C   UNL     1     -40.979  53.022 -54.726  1.00  0.00     0.047 C 
HETATM    2  C   UNL     1     -40.979  54.428 -54.092  1.00  0.00     0.073 C 
HETATM    3  C   UNL     1     -42.242  55.301 -54.478  1.00  0.00     0.133 C 
HETATM    4  C   UNL     1     -43.077  55.975 -53.350  1.00  0.00     0.074 C 
HETATM    5  C   UNL     1     -42.865  55.352 -52.026  1.00  0.00     0.030 A 
HETATM    6  C   UNL     1     -41.778  54.576 -51.709  1.00  0.00     0.042 A 
HETATM    7  N   UNL     1     -41.948  54.163 -50.417  1.00  0.00    -0.279 N 
HETATM    8  H   UNL     1     -41.340  53.580 -49.850  1.00  0.00     0.189 HD
HETATM    9  N   UNL     1     -43.093  54.622 -49.870  1.00  0.00    -0.149 NA
HETATM   10  C   UNL     1     -43.627  55.324 -50.859  1.00  0.00     0.190 A 
HETATM   11  C   UNL     1     -40.630  54.270 -52.578  1.00  0.00     0.097 C 
ENDROOT
BRANCH   4  12
HETATM   12  C   UNL     1     -42.753  57.459 -53.195  1.00  0.00    -0.047 A 
HETATM   13  C   UNL     1     -43.711  58.427 -52.853  1.00  0.00     0.027 A 
HETATM   14  C   UNL     1     -43.341  59.764 -52.687  1.00  0.00     0.011 A 
HETATM   15 BR   UNL     1     -44.654  61.047 -52.235  1.00  0.00    -0.051 Br
HETATM   16  C   UNL     1     -42.016  60.161 -52.849  1.00  0.00     0.019 A 
HETATM   17  C   UNL     1     -41.053  59.214 -53.184  1.00  0.00     0.002 A 
HETATM   18  C   UNL     1     -41.418  57.876 -53.356  1.00  0.00     0.008 A 
ENDBRANCH   4  12
BRANCH   3  19
HETATM   19  C   UNL     1     -43.241  54.516 -55.308  1.00  0.00     0.266 C 
HETATM   20  O   UNL     1     -44.108  53.782 -54.851  1.00  0.00    -0.265 OA
BRANCH  19  21
HETATM   21  O   UNL     1     -43.044  54.751 -56.636  1.00  0.00    -0.326 OA
HETATM   22  C   UNL     1     -42.833  56.124 -56.966  1.00  0.00     0.213 C 
ENDBRANCH  19  21
ENDBRANCH   3  19
BRANCH   2  23
HETATM   23  O   UNL     1     -39.832  55.070 -54.708  1.00  0.00    -0.389 OA
HETATM   24  H   UNL     1     -39.077  54.456 -54.669  1.00  0.00     0.210 HD
ENDBRANCH   2  23
BRANCH  10  25
HETATM   25  O   UNL     1     -44.799  55.890 -50.591  1.00  0.00    -0.343 OA
HETATM   26  H   UNL     1     -44.621  56.461 -49.825  1.00  0.00     0.219 HD
ENDBRANCH  10  25
TORSDOF 5
ENDMDL
MODEL 6
REMARK VINA RESULT:      -6.2     16.032     18.988
REMARK  5 active torsions:
REMARK  status: ('A' for Active; 'I' for Inactive)
REMARK    1  A    between atoms: C_2  and  O_3 
REMARK    2  A    between atoms: C_4  and  C_5 
REMARK    3  A    between atoms: C_5  and  O_6 
REMARK    4  A    between atoms: C_9  and  C_10 
REMARK    5  A    between atoms: C_22  and  O_23 
ROOT
HETATM    1  C   UNL     1     -34.123  38.294 -55.981  1.00  0.00     0.047 C 
HETATM    2  C   UNL     1     -34.225  38.392 -54.445  1.00  0.00     0.073 C 
HETATM    3  C   UNL     1     -33.012  39.157 -53.773  1.00  0.00     0.133 C 
HETATM    4  C   UNL     1     -33.300  40.325 -52.785  1.00  0.00     0.074 C 
HETATM    5  C   UNL     1     -34.661  40.883 -52.934  1.00  0.00     0.030 A 
HETATM    6  C   UNL     1     -35.700  40.221 -53.540  1.00  0.00     0.042 A 
HETATM    7  N   UNL     1     -36.778  41.061 -53.509  1.00  0.00    -0.279 N 
HETATM    8  H   UNL     1     -37.717  40.903 -53.861  1.00  0.00     0.189 HD
HETATM    9  N   UNL     1     -36.501  42.243 -52.921  1.00  0.00    -0.149 NA
HETATM   10  C   UNL     1     -35.222  42.113 -52.593  1.00  0.00     0.190 A 
HETATM   11  C   UNL     1     -35.674  38.856 -54.090  1.00  0.00     0.097 C 
ENDROOT
BRANCH   4  12
HETATM   12  C   UNL     1     -33.157  39.897 -51.325  1.00  0.00    -0.047 A 
HETATM   13  C   UNL     1     -34.185  39.270 -50.601  1.00  0.00     0.027 A 
HETATM   14  C   UNL     1     -33.977  38.867 -49.280  1.00  0.00     0.011 A 
HETATM   15 BR   UNL     1     -35.380  38.033 -48.326  1.00  0.00    -0.051 Br
HETATM   16  C   UNL     1     -32.747  39.071 -48.659  1.00  0.00     0.019 A 
HETATM   17  C   UNL     1     -31.717  39.687 -49.363  1.00  0.00     0.002 A 
HETATM   18  C   UNL     1     -31.920  40.096 -50.684  1.00  0.00     0.008 A 
ENDBRANCH   4  12
BRANCH   3  19
HETATM   19  C   UNL     1     -32.060  39.728 -54.809  1.00  0.00     0.266 C 
HETATM   20  O   UNL     1     -32.225  40.785 -55.404  1.00  0.00    -0.265 OA
BRANCH  19  21
HETATM   21  O   UNL     1     -30.988  38.903 -54.973  1.00  0.00    -0.326 OA
HETATM   22  C   UNL     1     -30.292  39.079 -56.208  1.00  0.00     0.213 C 
ENDBRANCH  19  21
ENDBRANCH   3  19
BRANCH   2  23
HETATM   23  O   UNL     1     -34.126  37.008 -54.017  1.00  0.00    -0.389 OA
HETATM   24  H   UNL     1     -33.533  36.537 -54.629  1.00  0.00     0.210 HD
ENDBRANCH   2  23
BRANCH  10  25
HETATM   25  O   UNL     1     -34.675  43.165 -51.995  1.00  0.00    -0.343 OA
HETATM   26  H   UNL     1     -34.461  42.850 -51.101  1.00  0.00     0.219 HD
ENDBRANCH  10  25
TORSDOF 5
ENDMDL
MODEL 7
REMARK VINA RESULT:      -6.2      3.049      5.238
REMARK  5 active torsions:
REMARK  status: ('A' for Active; 'I' for Inactive)
REMARK    1  A    between atoms: C_2  and  O_3 
REMARK    2  A    between atoms: C_4  and  C_5 
REMARK    3  A    between atoms: C_5  and  O_6 
REMARK    4  A    between atoms: C_9  and  C_10 
REMARK    5  A    between atoms: C_22  and  O_23 
ROOT
HETATM    1  C   UNL     1     -41.646  54.404 -55.459  1.00  0.00     0.047 C 
HETATM    2  C   UNL     1     -41.322  55.302 -54.248  1.00  0.00     0.073 C 
HETATM    3  C   UNL     1     -42.136  56.660 -54.225  1.00  0.00     0.133 C 
HETATM    4  C   UNL     1     -42.919  57.059 -52.940  1.00  0.00     0.074 C 
HETATM    5  C   UNL     1     -43.185  55.911 -52.048  1.00  0.00     0.030 A 
HETATM    6  C   UNL     1     -42.489  54.727 -52.092  1.00  0.00     0.042 A 
HETATM    7  N   UNL     1     -43.036  53.910 -51.143  1.00  0.00    -0.279 N 
HETATM    8  H   UNL     1     -42.773  52.962 -50.891  1.00  0.00     0.189 HD
HETATM    9  N   UNL     1     -44.060  54.490 -50.481  1.00  0.00    -0.149 NA
HETATM   10  C   UNL     1     -44.132  55.686 -51.050  1.00  0.00     0.190 A 
HETATM   11  C   UNL     1     -41.351  54.407 -52.967  1.00  0.00     0.097 C 
ENDROOT
BRANCH   4  12
HETATM   12  C   UNL     1     -42.173  58.100 -52.107  1.00  0.00    -0.047 A 
HETATM   13  C   UNL     1     -42.772  59.277 -51.628  1.00  0.00     0.027 A 
HETATM   14  C   UNL     1     -42.046  60.170 -50.836  1.00  0.00     0.011 A 
HETATM   15 BR   UNL     1     -42.875  61.751 -50.213  1.00  0.00    -0.051 Br
HETATM   16  C   UNL     1     -40.721  59.907 -50.499  1.00  0.00     0.019 A 
HETATM   17  C   UNL     1     -40.114  58.744 -50.962  1.00  0.00     0.002 A 
HETATM   18  C   UNL     1     -40.833  57.849 -51.758  1.00  0.00     0.008 A 
ENDBRANCH   4  12
BRANCH   3  19
HETATM   19  C   UNL     1     -43.147  56.732 -55.355  1.00  0.00     0.266 C 
HETATM   20  O   UNL     1     -44.316  56.380 -55.272  1.00  0.00    -0.265 OA
BRANCH  19  21
HETATM   21  O   UNL     1     -42.572  57.257 -56.473  1.00  0.00    -0.326 OA
HETATM   22  C   UNL     1     -43.265  56.963 -57.687  1.00  0.00     0.213 C 
ENDBRANCH  19  21
ENDBRANCH   3  19
BRANCH   2  23
HETATM   23  O   UNL     1     -39.932  55.659 -54.461  1.00  0.00    -0.389 OA
HETATM   24  H   UNL     1     -39.384  54.866 -54.324  1.00  0.00     0.210 HD
ENDBRANCH   2  23
BRANCH  10  25
HETATM   25  O   UNL     1     -45.090  56.482 -50.587  1.00  0.00    -0.343 OA
HETATM   26  H   UNL     1     -44.939  56.506 -49.627  1.00  0.00     0.219 HD
ENDBRANCH  10  25
TORSDOF 5
ENDMDL
MODEL 8
REMARK VINA RESULT:      -6.2      2.594      3.540
REMARK  5 active torsions:
REMARK  status: ('A' for Active; 'I' for Inactive)
REMARK    1  A    between atoms: C_2  and  O_3 
REMARK    2  A    between atoms: C_4  and  C_5 
REMARK    3  A    between atoms: C_5  and  O_6 
REMARK    4  A    between atoms: C_9  and  C_10 
REMARK    5  A    between atoms: C_22  and  O_23 
ROOT
HETATM    1  C   UNL     1     -42.102  60.470 -53.176  1.00  0.00     0.047 C 
HETATM    2  C   UNL     1     -41.517  59.052 -53.021  1.00  0.00     0.073 C 
HETATM    3  C   UNL     1     -42.293  58.153 -51.973  1.00  0.00     0.133 C 
HETATM    4  C   UNL     1     -42.778  56.736 -52.395  1.00  0.00     0.074 C 
HETATM    5  C   UNL     1     -42.859  56.567 -53.861  1.00  0.00     0.030 A 
HETATM    6  C   UNL     1     -42.201  57.367 -54.763  1.00  0.00     0.042 A 
HETATM    7  N   UNL     1     -42.540  56.922 -56.010  1.00  0.00    -0.279 N 
HETATM    8  H   UNL     1     -42.239  57.272 -56.914  1.00  0.00     0.189 HD
HETATM    9  N   UNL     1     -43.392  55.876 -55.977  1.00  0.00    -0.149 NA
HETATM   10  C   UNL     1     -43.573  55.690 -54.676  1.00  0.00     0.190 A 
HETATM   11  C   UNL     1     -41.280  58.472 -54.452  1.00  0.00     0.097 C 
ENDROOT
BRANCH   4  12
HETATM   12  C   UNL     1     -41.861  55.630 -51.875  1.00  0.00    -0.047 A 
HETATM   13  C   UNL     1     -41.603  55.420 -50.510  1.00  0.00     0.027 A 
HETATM   14  C   UNL     1     -40.786  54.365 -50.097  1.00  0.00     0.011 A 
HETATM   15 BR   UNL     1     -40.448  54.112 -48.254  1.00  0.00    -0.051 Br
HETATM   16  C   UNL     1     -40.219  53.498 -51.027  1.00  0.00     0.019 A 
HETATM   17  C   UNL     1     -40.468  53.689 -52.383  1.00  0.00     0.002 A 
HETATM   18  C   UNL     1     -41.281  54.745 -52.803  1.00  0.00     0.008 A 
ENDBRANCH   4  12
BRANCH   3  19
HETATM   19  C   UNL     1     -43.522  58.856 -51.426  1.00  0.00     0.266 C 
HETATM   20  O   UNL     1     -43.507  59.712 -50.551  1.00  0.00    -0.265 OA
BRANCH  19  21
HETATM   21  O   UNL     1     -44.645  58.408 -52.055  1.00  0.00    -0.326 OA
HETATM   22  C   UNL     1     -45.481  59.442 -52.575  1.00  0.00     0.213 C 
ENDBRANCH  19  21
ENDBRANCH   3  19
BRANCH   2  23
HETATM   23  O   UNL     1     -40.201  59.295 -52.459  1.00  0.00    -0.389 OA
HETATM   24  H   UNL     1     -39.598  58.597 -52.769  1.00  0.00     0.210 HD
ENDBRANCH   2  23
BRANCH  10  25
HETATM   25  O   UNL     1     -44.400  54.704 -54.349  1.00  0.00    -0.343 OA
HETATM   26  H   UNL     1     -44.981  55.091 -53.672  1.00  0.00     0.219 HD
ENDBRANCH  10  25
TORSDOF 5
ENDMDL
MODEL 9
REMARK VINA RESULT:      -6.0      5.075      7.081
REMARK  5 active torsions:
REMARK  status: ('A' for Active; 'I' for Inactive)
REMARK    1  A    between atoms: C_2  and  O_3 
REMARK    2  A    between atoms: C_4  and  C_5 
REMARK    3  A    between atoms: C_5  and  O_6 
REMARK    4  A    between atoms: C_9  and  C_10 
REMARK    5  A    between atoms: C_22  and  O_23 
ROOT
HETATM    1  C   UNL     1     -46.393  58.045 -60.513  1.00  0.00     0.047 C 
HETATM    2  C   UNL     1     -45.956  57.736 -59.067  1.00  0.00     0.073 C 
HETATM    3  C   UNL     1     -44.577  56.963 -58.968  1.00  0.00     0.133 C 
HETATM    4  C   UNL     1     -43.457  57.515 -58.040  1.00  0.00     0.074 C 
HETATM    5  C   UNL     1     -43.640  58.943 -57.704  1.00  0.00     0.030 A 
HETATM    6  C   UNL     1     -44.834  59.611 -57.815  1.00  0.00     0.042 A 
HETATM    7  N   UNL     1     -44.602  60.905 -57.443  1.00  0.00    -0.279 N 
HETATM    8  H   UNL     1     -45.255  61.681 -57.398  1.00  0.00     0.189 HD
HETATM    9  N   UNL     1     -43.316  61.126 -57.099  1.00  0.00    -0.149 NA
HETATM   10  C   UNL     1     -42.760  59.935 -57.273  1.00  0.00     0.190 A 
HETATM   11  C   UNL     1     -46.128  59.040 -58.225  1.00  0.00     0.097 C 
ENDROOT
BRANCH   4  12
HETATM   12  C   UNL     1     -43.376  56.758 -56.716  1.00  0.00    -0.047 A 
HETATM   13  C   UNL     1     -43.780  57.307 -55.487  1.00  0.00     0.027 A 
HETATM   14  C   UNL     1     -43.718  56.548 -54.317  1.00  0.00     0.011 A 
HETATM   15 BR   UNL     1     -44.260  57.315 -52.676  1.00  0.00    -0.051 Br
HETATM   16  C   UNL     1     -43.264  55.232 -54.345  1.00  0.00     0.019 A 
HETATM   17  C   UNL     1     -42.863  54.671 -55.555  1.00  0.00     0.002 A 
HETATM   18  C   UNL     1     -42.919  55.427 -56.728  1.00  0.00     0.008 A 
ENDBRANCH   4  12
BRANCH   3  19
HETATM   19  C   UNL     1     -43.928  56.790 -60.330  1.00  0.00     0.266 C 
HETATM   20  O   UNL     1     -43.115  57.563 -60.821  1.00  0.00    -0.265 OA
BRANCH  19  21
HETATM   21  O   UNL     1     -44.367  55.645 -60.924  1.00  0.00    -0.326 OA
HETATM   22  C   UNL     1     -44.572  54.555 -60.025  1.00  0.00     0.213 C 
ENDBRANCH  19  21
ENDBRANCH   3  19
BRANCH   2  23
HETATM   23  O   UNL     1     -46.977  56.815 -58.601  1.00  0.00    -0.389 OA
HETATM   24  H   UNL     1     -47.817  57.035 -59.043  1.00  0.00     0.210 HD
ENDBRANCH   2  23
BRANCH  10  25
HETATM   25  O   UNL     1     -41.459  59.868 -57.013  1.00  0.00    -0.343 OA
HETATM   26  H   UNL     1     -41.402  59.329 -56.206  1.00  0.00     0.219 HD
ENDBRANCH  10  25
TORSDOF 5
ENDMDL
MODEL 10
REMARK VINA RESULT:      -5.9      3.385      5.252
REMARK  5 active torsions:
REMARK  status: ('A' for Active; 'I' for Inactive)
REMARK    1  A    between atoms: C_2  and  O_3 
REMARK    2  A    between atoms: C_4  and  C_5 
REMARK    3  A    between atoms: C_5  and  O_6 
REMARK    4  A    between atoms: C_9  and  C_10 
REMARK    5  A    between atoms: C_22  and  O_23 
ROOT
HETATM    1  C   UNL     1     -40.840  57.990 -51.391  1.00  0.00     0.047 C 
HETATM    2  C   UNL     1     -41.055  58.634 -52.776  1.00  0.00     0.073 C 
HETATM    3  C   UNL     1     -41.504  57.606 -53.894  1.00  0.00     0.133 C 
HETATM    4  C   UNL     1     -42.764  57.916 -54.754  1.00  0.00     0.074 C 
HETATM    5  C   UNL     1     -43.659  58.911 -54.126  1.00  0.00     0.030 A 
HETATM    6  C   UNL     1     -43.266  59.782 -53.140  1.00  0.00     0.042 A 
HETATM    7  N   UNL     1     -44.366  60.518 -52.799  1.00  0.00    -0.279 N 
HETATM    8  H   UNL     1     -44.447  61.259 -52.110  1.00  0.00     0.189 HD
HETATM    9  N   UNL     1     -45.464  60.173 -53.505  1.00  0.00    -0.149 NA
HETATM   10  C   UNL     1     -45.013  59.201 -54.287  1.00  0.00     0.190 A 
HETATM   11  C   UNL     1     -41.914  59.923 -52.576  1.00  0.00     0.097 C 
ENDROOT
BRANCH   4  12
HETATM   12  C   UNL     1     -42.404  58.458 -56.136  1.00  0.00    -0.047 A 
HETATM   13  C   UNL     1     -42.429  57.675 -57.302  1.00  0.00     0.027 A 
HETATM   14  C   UNL     1     -42.128  58.241 -58.543  1.00  0.00     0.011 A 
HETATM   15 BR   UNL     1     -42.160  57.161 -60.095  1.00  0.00    -0.051 Br
HETATM   16  C   UNL     1     -41.806  59.591 -58.649  1.00  0.00     0.019 A 
HETATM   17  C   UNL     1     -41.780  60.382 -57.504  1.00  0.00     0.002 A 
HETATM   18  C   UNL     1     -42.077  59.821 -56.260  1.00  0.00     0.008 A 
ENDBRANCH   4  12
BRANCH   3  19
HETATM   19  C   UNL     1     -41.732  56.217 -53.326  1.00  0.00     0.266 C 
HETATM   20  O   UNL     1     -42.768  55.840 -52.793  1.00  0.00    -0.265 OA
BRANCH  19  21
HETATM   21  O   UNL     1     -40.625  55.443 -53.505  1.00  0.00    -0.326 OA
HETATM   22  C   UNL     1     -40.404  55.032 -54.854  1.00  0.00     0.213 C 
ENDBRANCH  19  21
ENDBRANCH   3  19
BRANCH   2  23
HETATM   23  O   UNL     1     -39.725  59.085 -53.143  1.00  0.00    -0.389 OA
HETATM   24  H   UNL     1     -39.659  59.096 -54.114  1.00  0.00     0.210 HD
ENDBRANCH   2  23
BRANCH  10  25
HETATM   25  O   UNL     1     -45.913  58.656 -55.097  1.00  0.00    -0.343 OA
HETATM   26  H   UNL     1     -46.376  59.416 -55.488  1.00  0.00     0.219 HD
ENDBRANCH  10  25
TORSDOF 5
ENDMDL
