MODEL 1
REMARK VINA RESULT:      -9.6      0.000      0.000
REMARK  8 active torsions:
REMARK  status: ('A' for Active; 'I' for Inactive)
REMARK    1  A    between atoms: N_9  and  N_10 
REMARK    2  A    between atoms: C_11  and  C_12 
REMARK    3  A    between atoms: C_14  and  O_15 
REMARK    4  A    between atoms: C_19  and  N_20 
REMARK    5  A    between atoms: C_21  and  C_22 
REMARK       I    between atoms: C_22  and  N_23 
REMARK    6  A    between atoms: N_23  and  C_24 
REMARK    7  A    between atoms: C_24  and  C_25 
REMARK    8  A    between atoms: C_25  and  C_26 
ROOT
HETATM    1  C   UNL     1     -41.715  60.603 -50.460  1.00  0.00     0.002 A 
HETATM    2  C   UNL     1     -42.112  60.458 -51.791  1.00  0.00     0.034 A 
HETATM    3  C   UNL     1     -41.906  59.273 -52.488  1.00  0.00     0.086 A 
HETATM    4  C   UNL     1     -41.273  58.192 -51.819  1.00  0.00     0.088 A 
HETATM    5  N   UNL     1     -41.040  57.011 -52.406  1.00  0.00    -0.225 NA
HETATM    6  C   UNL     1     -41.485  56.955 -53.683  1.00  0.00     0.183 A 
HETATM    7  C   UNL     1     -42.113  57.990 -54.358  1.00  0.00     0.125 A 
HETATM    8  N   UNL     1     -42.321  59.200 -53.767  1.00  0.00    -0.242 NA
HETATM    9  N   UNL     1     -41.396  55.879 -54.544  1.00  0.00    -0.197 N 
HETATM   10  C   UNL     1     -41.999  56.229 -55.752  1.00  0.00     0.143 A 
HETATM   11  C   UNL     1     -42.411  57.555 -55.675  1.00  0.00     0.110 A 
HETATM   12  C   UNL     1     -40.880  58.350 -50.496  1.00  0.00     0.034 A 
HETATM   13  C   UNL     1     -41.095  59.545 -49.811  1.00  0.00     0.002 A 
ENDROOT
BRANCH  11  14
HETATM   14  C   UNL     1     -42.935  58.327 -56.793  1.00  0.00     0.257 C 
HETATM   15  N   UNL     1     -41.983  58.770 -57.686  1.00  0.00    -0.356 N 
HETATM   16  H   UNL     1     -41.007  58.564 -57.483  1.00  0.00     0.162 HD
HETATM   17  O   UNL     1     -44.140  58.476 -56.987  1.00  0.00    -0.267 OA
BRANCH  15  18
HETATM   18  C   UNL     1     -42.356  59.127 -59.039  1.00  0.00     0.127 C 
BRANCH  18  19
HETATM   19  C   UNL     1     -42.313  57.944 -60.017  1.00  0.00     0.053 C 
BRANCH  19  20
HETATM   20  C   UNL     1     -43.495  56.983 -60.056  1.00  0.00    -0.082 C 
HETATM   21  C   UNL     1     -44.837  57.665 -60.247  1.00  0.00     0.034 C 
HETATM   22  C   UNL     1     -46.040  56.759 -59.968  1.00  0.00     0.005 C 
HETATM   23  C   UNL     1     -45.847  55.389 -60.602  1.00  0.00     0.004 C 
HETATM   24  C   UNL     1     -44.592  54.714 -60.055  1.00  0.00     0.027 C 
HETATM   25  C   UNL     1     -43.418  55.643 -59.936  1.00  0.00    -0.024 C 
ENDBRANCH  19  20
ENDBRANCH  18  19
ENDBRANCH  15  18
ENDBRANCH  11  14
BRANCH  10  26
HETATM   26  N   UNL     1     -42.045  55.374 -56.813  1.00  0.00    -0.383 N 
HETATM   27  H   UNL     1     -41.534  54.494 -56.763  1.00  0.00     0.157 HD
HETATM   28  H   UNL     1     -42.007  55.792 -57.749  1.00  0.00     0.157 HD
ENDBRANCH  10  26
BRANCH   9  29
HETATM   29  N   UNL     1     -40.667  54.750 -54.281  1.00  0.00    -0.176 NA
HETATM   30  C   UNL     1     -41.286  53.848 -53.594  1.00  0.00     0.150 C 
BRANCH  30  31
HETATM   31  C   UNL     1     -40.632  52.556 -53.301  1.00  0.00    -0.014 A 
HETATM   32  C   UNL     1     -40.569  51.561 -54.285  1.00  0.00     0.049 A 
HETATM   33  C   UNL     1     -39.964  50.347 -53.985  1.00  0.00     0.066 A 
HETATM   34  C   UNL     1     -39.416  50.116 -52.728  1.00  0.00     0.036 A 
HETATM   35  C   UNL     1     -39.477  51.112 -51.749  1.00  0.00     0.004 A 
HETATM   36  C   UNL     1     -40.090  52.335 -52.032  1.00  0.00     0.013 A 
BRANCH  33  37
HETATM   37  O   UNL     1     -39.887  49.347 -54.907  1.00  0.00    -0.361 OA
HETATM   38  H   UNL     1     -40.709  49.342 -55.428  1.00  0.00     0.217 HD
ENDBRANCH  33  37
ENDBRANCH  30  31
ENDBRANCH   9  29
TORSDOF 8
ENDMDL
MODEL 2
REMARK VINA RESULT:      -9.1      2.620      7.174
REMARK  8 active torsions:
REMARK  status: ('A' for Active; 'I' for Inactive)
REMARK    1  A    between atoms: N_9  and  N_10 
REMARK    2  A    between atoms: C_11  and  C_12 
REMARK    3  A    between atoms: C_14  and  O_15 
REMARK    4  A    between atoms: C_19  and  N_20 
REMARK    5  A    between atoms: C_21  and  C_22 
REMARK       I    between atoms: C_22  and  N_23 
REMARK    6  A    between atoms: N_23  and  C_24 
REMARK    7  A    between atoms: C_24  and  C_25 
REMARK    8  A    between atoms: C_25  and  C_26 
ROOT
HETATM    1  C   UNL     1     -46.216  60.767 -50.935  1.00  0.00     0.002 A 
HETATM    2  C   UNL     1     -45.272  59.784 -50.628  1.00  0.00     0.034 A 
HETATM    3  C   UNL     1     -44.508  59.175 -51.615  1.00  0.00     0.086 A 
HETATM    4  C   UNL     1     -44.702  59.568 -52.966  1.00  0.00     0.088 A 
HETATM    5  N   UNL     1     -44.007  59.043 -53.983  1.00  0.00    -0.225 NA
HETATM    6  C   UNL     1     -43.097  58.123 -53.585  1.00  0.00     0.183 A 
HETATM    7  C   UNL     1     -42.879  57.726 -52.275  1.00  0.00     0.125 A 
HETATM    8  N   UNL     1     -43.609  58.241 -51.247  1.00  0.00    -0.242 NA
HETATM    9  N   UNL     1     -42.231  57.413 -54.393  1.00  0.00    -0.197 N 
HETATM   10  C   UNL     1     -41.446  56.591 -53.585  1.00  0.00     0.143 A 
HETATM   11  C   UNL     1     -41.864  56.735 -52.266  1.00  0.00     0.110 A 
HETATM   12  C   UNL     1     -45.647  60.543 -53.258  1.00  0.00     0.034 A 
HETATM   13  C   UNL     1     -46.405  61.146 -52.256  1.00  0.00     0.002 A 
ENDROOT
BRANCH  11  14
HETATM   14  C   UNL     1     -41.394  55.922 -51.154  1.00  0.00     0.257 C 
HETATM   15  N   UNL     1     -41.704  54.582 -51.246  1.00  0.00    -0.356 N 
HETATM   16  H   UNL     1     -42.257  54.275 -52.044  1.00  0.00     0.162 HD
HETATM   17  O   UNL     1     -40.680  56.372 -50.260  1.00  0.00    -0.267 OA
BRANCH  15  18
HETATM   18  C   UNL     1     -40.942  53.599 -50.504  1.00  0.00     0.127 C 
BRANCH  18  19
HETATM   19  C   UNL     1     -39.672  53.135 -51.229  1.00  0.00     0.053 C 
BRANCH  19  20
HETATM   20  C   UNL     1     -39.750  51.910 -52.132  1.00  0.00    -0.082 C 
HETATM   21  C   UNL     1     -40.065  52.233 -53.581  1.00  0.00     0.034 C 
HETATM   22  C   UNL     1     -40.460  51.012 -54.418  1.00  0.00     0.005 C 
HETATM   23  C   UNL     1     -39.530  49.839 -54.142  1.00  0.00     0.004 C 
HETATM   24  C   UNL     1     -39.574  49.453 -52.665  1.00  0.00     0.027 C 
HETATM   25  C   UNL     1     -39.567  50.635 -51.738  1.00  0.00    -0.024 C 
ENDBRANCH  19  20
ENDBRANCH  18  19
ENDBRANCH  15  18
ENDBRANCH  11  14
BRANCH  10  26
HETATM   26  N   UNL     1     -40.509  55.747 -54.103  1.00  0.00    -0.383 N 
HETATM   27  H   UNL     1     -40.810  54.866 -54.517  1.00  0.00     0.157 HD
HETATM   28  H   UNL     1     -39.630  55.651 -53.582  1.00  0.00     0.157 HD
ENDBRANCH  10  26
BRANCH   9  29
HETATM   29  N   UNL     1     -42.296  57.406 -55.761  1.00  0.00    -0.176 NA
HETATM   30  C   UNL     1     -43.022  56.466 -56.269  1.00  0.00     0.150 C 
BRANCH  30  31
HETATM   31  C   UNL     1     -43.227  56.389 -57.730  1.00  0.00    -0.014 A 
HETATM   32  C   UNL     1     -43.801  55.246 -58.300  1.00  0.00     0.049 A 
HETATM   33  C   UNL     1     -43.970  55.187 -59.678  1.00  0.00     0.066 A 
HETATM   34  C   UNL     1     -43.584  56.248 -60.489  1.00  0.00     0.036 A 
HETATM   35  C   UNL     1     -43.015  57.389 -59.916  1.00  0.00     0.004 A 
HETATM   36  C   UNL     1     -42.831  57.461 -58.534  1.00  0.00     0.013 A 
BRANCH  33  37
HETATM   37  O   UNL     1     -44.515  54.091 -60.278  1.00  0.00    -0.361 OA
HETATM   38  H   UNL     1     -43.795  53.494 -60.545  1.00  0.00     0.217 HD
ENDBRANCH  33  37
ENDBRANCH  30  31
ENDBRANCH   9  29
TORSDOF 8
ENDMDL
MODEL 3
REMARK VINA RESULT:      -9.1      3.105      7.432
REMARK  8 active torsions:
REMARK  status: ('A' for Active; 'I' for Inactive)
REMARK    1  A    between atoms: N_9  and  N_10 
REMARK    2  A    between atoms: C_11  and  C_12 
REMARK    3  A    between atoms: C_14  and  O_15 
REMARK    4  A    between atoms: C_19  and  N_20 
REMARK    5  A    between atoms: C_21  and  C_22 
REMARK       I    between atoms: C_22  and  N_23 
REMARK    6  A    between atoms: N_23  and  C_24 
REMARK    7  A    between atoms: C_24  and  C_25 
REMARK    8  A    between atoms: C_25  and  C_26 
ROOT
HETATM    1  C   UNL     1     -43.882  58.221 -58.168  1.00  0.00     0.002 A 
HETATM    2  C   UNL     1     -44.086  58.448 -56.806  1.00  0.00     0.034 A 
HETATM    3  C   UNL     1     -43.716  57.512 -55.847  1.00  0.00     0.086 A 
HETATM    4  C   UNL     1     -43.119  56.298 -56.278  1.00  0.00     0.088 A 
HETATM    5  N   UNL     1     -42.723  55.341 -55.428  1.00  0.00    -0.225 NA
HETATM    6  C   UNL     1     -42.933  55.664 -54.130  1.00  0.00     0.183 A 
HETATM    7  C   UNL     1     -43.504  56.844 -53.681  1.00  0.00     0.125 A 
HETATM    8  N   UNL     1     -43.933  57.801 -54.550  1.00  0.00    -0.242 NA
HETATM    9  N   UNL     1     -42.629  54.892 -53.027  1.00  0.00    -0.197 N 
HETATM   10  C   UNL     1     -42.982  55.602 -51.880  1.00  0.00     0.143 A 
HETATM   11  C   UNL     1     -43.572  56.802 -52.264  1.00  0.00     0.110 A 
HETATM   12  C   UNL     1     -42.926  56.082 -57.636  1.00  0.00     0.034 A 
HETATM   13  C   UNL     1     -43.301  57.032 -58.585  1.00  0.00     0.002 A 
ENDROOT
BRANCH  11  14
HETATM   14  C   UNL     1     -44.215  57.739 -51.354  1.00  0.00     0.257 C 
HETATM   15  N   UNL     1     -43.825  59.052 -51.506  1.00  0.00    -0.356 N 
HETATM   16  H   UNL     1     -43.107  59.259 -52.198  1.00  0.00     0.162 HD
HETATM   17  O   UNL     1     -45.117  57.404 -50.588  1.00  0.00    -0.267 OA
BRANCH  15  18
HETATM   18  C   UNL     1     -44.670  60.128 -51.033  1.00  0.00     0.127 C 
BRANCH  18  19
HETATM   19  C   UNL     1     -44.045  60.937 -49.888  1.00  0.00     0.053 C 
BRANCH  19  20
HETATM   20  C   UNL     1     -44.956  61.477 -48.792  1.00  0.00    -0.082 C 
HETATM   21  C   UNL     1     -46.233  62.113 -49.310  1.00  0.00     0.034 C 
HETATM   22  C   UNL     1     -46.989  62.933 -48.261  1.00  0.00     0.005 C 
HETATM   23  C   UNL     1     -47.059  62.189 -46.935  1.00  0.00     0.004 C 
HETATM   24  C   UNL     1     -45.656  61.897 -46.407  1.00  0.00     0.027 C 
HETATM   25  C   UNL     1     -44.705  61.425 -47.469  1.00  0.00    -0.024 C 
ENDBRANCH  19  20
ENDBRANCH  18  19
ENDBRANCH  15  18
ENDBRANCH  11  14
BRANCH  10  26
HETATM   26  N   UNL     1     -42.823  55.084 -50.629  1.00  0.00    -0.383 N 
HETATM   27  H   UNL     1     -43.358  54.259 -50.362  1.00  0.00     0.157 HD
HETATM   28  H   UNL     1     -42.730  55.753 -49.856  1.00  0.00     0.157 HD
ENDBRANCH  10  26
BRANCH   9  29
HETATM   29  N   UNL     1     -42.229  53.584 -53.097  1.00  0.00    -0.176 NA
HETATM   30  C   UNL     1     -40.949  53.404 -53.104  1.00  0.00     0.150 C 
BRANCH  30  31
HETATM   31  C   UNL     1     -40.389  52.037 -53.110  1.00  0.00    -0.014 A 
HETATM   32  C   UNL     1     -39.948  51.454 -51.916  1.00  0.00     0.049 A 
HETATM   33  C   UNL     1     -39.410  50.173 -51.945  1.00  0.00     0.066 A 
HETATM   34  C   UNL     1     -39.314  49.468 -53.140  1.00  0.00     0.036 A 
HETATM   35  C   UNL     1     -39.758  50.052 -54.329  1.00  0.00     0.004 A 
HETATM   36  C   UNL     1     -40.293  51.342 -54.318  1.00  0.00     0.013 A 
BRANCH  33  37
HETATM   37  O   UNL     1     -38.959  49.567 -50.810  1.00  0.00    -0.361 OA
HETATM   38  H   UNL     1     -39.117  50.163 -50.057  1.00  0.00     0.217 HD
ENDBRANCH  33  37
ENDBRANCH  30  31
ENDBRANCH   9  29
TORSDOF 8
ENDMDL
MODEL 4
REMARK VINA RESULT:      -9.0      2.442      7.379
REMARK  8 active torsions:
REMARK  status: ('A' for Active; 'I' for Inactive)
REMARK    1  A    between atoms: N_9  and  N_10 
REMARK    2  A    between atoms: C_11  and  C_12 
REMARK    3  A    between atoms: C_14  and  O_15 
REMARK    4  A    between atoms: C_19  and  N_20 
REMARK    5  A    between atoms: C_21  and  C_22 
REMARK       I    between atoms: C_22  and  N_23 
REMARK    6  A    between atoms: N_23  and  C_24 
REMARK    7  A    between atoms: C_24  and  C_25 
REMARK    8  A    between atoms: C_25  and  C_26 
ROOT
HETATM    1  C   UNL     1     -39.121  50.802 -52.308  1.00  0.00     0.002 A 
HETATM    2  C   UNL     1     -39.659  51.975 -51.773  1.00  0.00     0.034 A 
HETATM    3  C   UNL     1     -40.541  52.768 -52.497  1.00  0.00     0.086 A 
HETATM    4  C   UNL     1     -40.895  52.365 -53.813  1.00  0.00     0.088 A 
HETATM    5  N   UNL     1     -41.742  53.060 -54.583  1.00  0.00    -0.225 NA
HETATM    6  C   UNL     1     -42.234  54.162 -53.970  1.00  0.00     0.183 A 
HETATM    7  C   UNL     1     -41.915  54.574 -52.685  1.00  0.00     0.125 A 
HETATM    8  N   UNL     1     -41.028  53.882 -51.917  1.00  0.00    -0.242 NA
HETATM    9  N   UNL     1     -43.127  55.073 -54.498  1.00  0.00    -0.197 N 
HETATM   10  C   UNL     1     -43.393  56.043 -53.532  1.00  0.00     0.143 A 
HETATM   11  C   UNL     1     -42.613  55.779 -52.411  1.00  0.00     0.110 A 
HETATM   12  C   UNL     1     -40.349  51.199 -54.334  1.00  0.00     0.034 A 
HETATM   13  C   UNL     1     -39.467  50.414 -53.594  1.00  0.00     0.002 A 
ENDROOT
BRANCH  11  14
HETATM   14  C   UNL     1     -42.493  56.659 -51.258  1.00  0.00     0.257 C 
HETATM   15  N   UNL     1     -41.199  56.912 -50.856  1.00  0.00    -0.356 N 
HETATM   16  H   UNL     1     -40.445  56.446 -51.358  1.00  0.00     0.162 HD
HETATM   17  O   UNL     1     -43.462  57.223 -50.751  1.00  0.00    -0.267 OA
BRANCH  15  18
HETATM   18  C   UNL     1     -40.892  58.084 -50.064  1.00  0.00     0.127 C 
BRANCH  18  19
HETATM   19  C   UNL     1     -40.495  59.304 -50.906  1.00  0.00     0.053 C 
BRANCH  19  20
HETATM   20  C   UNL     1     -41.298  59.618 -52.163  1.00  0.00    -0.082 C 
HETATM   21  C   UNL     1     -42.515  60.489 -51.914  1.00  0.00     0.034 C 
HETATM   22  C   UNL     1     -43.492  60.543 -53.092  1.00  0.00     0.005 C 
HETATM   23  C   UNL     1     -42.749  60.728 -54.407  1.00  0.00     0.004 C 
HETATM   24  C   UNL     1     -41.770  59.580 -54.639  1.00  0.00     0.027 C 
HETATM   25  C   UNL     1     -41.004  59.191 -53.406  1.00  0.00    -0.024 C 
ENDBRANCH  19  20
ENDBRANCH  18  19
ENDBRANCH  15  18
ENDBRANCH  11  14
BRANCH  10  26
HETATM   26  N   UNL     1     -44.226  57.095 -53.771  1.00  0.00    -0.383 N 
HETATM   27  H   UNL     1     -43.857  58.043 -53.713  1.00  0.00     0.157 HD
HETATM   28  H   UNL     1     -45.180  57.028 -53.400  1.00  0.00     0.157 HD
ENDBRANCH  10  26
BRANCH   9  29
HETATM   29  N   UNL     1     -43.512  55.090 -55.812  1.00  0.00    -0.176 NA
HETATM   30  C   UNL     1     -42.913  55.969 -56.546  1.00  0.00     0.150 C 
BRANCH  30  31
HETATM   31  C   UNL     1     -43.191  56.044 -57.995  1.00  0.00    -0.014 A 
HETATM   32  C   UNL     1     -43.919  55.026 -58.623  1.00  0.00     0.049 A 
HETATM   33  C   UNL     1     -44.157  55.108 -59.990  1.00  0.00     0.066 A 
HETATM   34  C   UNL     1     -43.689  56.186 -60.732  1.00  0.00     0.036 A 
HETATM   35  C   UNL     1     -42.966  57.202 -60.100  1.00  0.00     0.004 A 
HETATM   36  C   UNL     1     -42.711  57.131 -58.729  1.00  0.00     0.013 A 
BRANCH  33  37
HETATM   37  O   UNL     1     -44.853  54.137 -60.647  1.00  0.00    -0.361 OA
HETATM   38  H   UNL     1     -45.420  53.674 -60.006  1.00  0.00     0.217 HD
ENDBRANCH  33  37
ENDBRANCH  30  31
ENDBRANCH   9  29
TORSDOF 8
ENDMDL
MODEL 5
REMARK VINA RESULT:      -8.9      2.060      5.327
REMARK  8 active torsions:
REMARK  status: ('A' for Active; 'I' for Inactive)
REMARK    1  A    between atoms: N_9  and  N_10 
REMARK    2  A    between atoms: C_11  and  C_12 
REMARK    3  A    between atoms: C_14  and  O_15 
REMARK    4  A    between atoms: C_19  and  N_20 
REMARK    5  A    between atoms: C_21  and  C_22 
REMARK       I    between atoms: C_22  and  N_23 
REMARK    6  A    between atoms: N_23  and  C_24 
REMARK    7  A    between atoms: C_24  and  C_25 
REMARK    8  A    between atoms: C_25  and  C_26 
ROOT
HETATM    1  C   UNL     1     -44.511  56.755 -60.418  1.00  0.00     0.002 A 
HETATM    2  C   UNL     1     -44.117  57.655 -59.426  1.00  0.00     0.034 A 
HETATM    3  C   UNL     1     -43.537  57.223 -58.239  1.00  0.00     0.086 A 
HETATM    4  C   UNL     1     -43.349  55.829 -58.042  1.00  0.00     0.088 A 
HETATM    5  N   UNL     1     -42.792  55.320 -56.936  1.00  0.00    -0.225 NA
HETATM    6  C   UNL     1     -42.415  56.268 -56.046  1.00  0.00     0.183 A 
HETATM    7  C   UNL     1     -42.578  57.635 -56.216  1.00  0.00     0.125 A 
HETATM    8  N   UNL     1     -43.172  58.146 -57.329  1.00  0.00    -0.242 NA
HETATM    9  N   UNL     1     -41.813  56.061 -54.821  1.00  0.00    -0.197 N 
HETATM   10  C   UNL     1     -41.568  57.302 -54.233  1.00  0.00     0.143 A 
HETATM   11  C   UNL     1     -42.079  58.295 -55.063  1.00  0.00     0.110 A 
HETATM   12  C   UNL     1     -43.750  54.944 -59.035  1.00  0.00     0.034 A 
HETATM   13  C   UNL     1     -44.328  55.394 -60.221  1.00  0.00     0.002 A 
ENDROOT
BRANCH  11  14
HETATM   14  C   UNL     1     -42.158  59.706 -54.715  1.00  0.00     0.257 C 
HETATM   15  N   UNL     1     -42.287  60.559 -55.790  1.00  0.00    -0.356 N 
HETATM   16  H   UNL     1     -42.278  60.154 -56.724  1.00  0.00     0.162 HD
HETATM   17  O   UNL     1     -42.220  60.099 -53.551  1.00  0.00    -0.267 OA
BRANCH  15  18
HETATM   18  C   UNL     1     -42.831  61.889 -55.610  1.00  0.00     0.127 C 
BRANCH  18  19
HETATM   19  C   UNL     1     -43.141  62.606 -56.931  1.00  0.00     0.053 C 
BRANCH  19  20
HETATM   20  C   UNL     1     -42.272  62.308 -58.147  1.00  0.00    -0.082 C 
HETATM   21  C   UNL     1     -42.923  61.380 -59.156  1.00  0.00     0.034 C 
HETATM   22  C   UNL     1     -41.955  60.825 -60.205  1.00  0.00     0.005 C 
HETATM   23  C   UNL     1     -41.043  61.921 -60.739  1.00  0.00     0.004 C 
HETATM   24  C   UNL     1     -40.230  62.544 -59.606  1.00  0.00     0.027 C 
HETATM   25  C   UNL     1     -41.034  62.793 -58.362  1.00  0.00    -0.024 C 
ENDBRANCH  19  20
ENDBRANCH  18  19
ENDBRANCH  15  18
ENDBRANCH  11  14
BRANCH  10  26
HETATM   26  N   UNL     1     -41.001  57.420 -52.999  1.00  0.00    -0.383 N 
HETATM   27  H   UNL     1     -41.358  58.123 -52.355  1.00  0.00     0.157 HD
HETATM   28  H   UNL     1     -39.980  57.326 -52.945  1.00  0.00     0.157 HD
ENDBRANCH  10  26
BRANCH   9  29
HETATM   29  N   UNL     1     -41.672  54.829 -54.239  1.00  0.00    -0.176 NA
HETATM   30  C   UNL     1     -40.544  54.243 -54.468  1.00  0.00     0.150 C 
BRANCH  30  31
HETATM   31  C   UNL     1     -40.242  52.939 -53.842  1.00  0.00    -0.014 A 
HETATM   32  C   UNL     1     -40.236  51.773 -54.618  1.00  0.00     0.049 A 
HETATM   33  C   UNL     1     -39.965  50.554 -54.008  1.00  0.00     0.066 A 
HETATM   34  C   UNL     1     -39.695  50.484 -52.647  1.00  0.00     0.036 A 
HETATM   35  C   UNL     1     -39.698  51.650 -51.876  1.00  0.00     0.004 A 
HETATM   36  C   UNL     1     -39.976  52.882 -52.472  1.00  0.00     0.013 A 
BRANCH  33  37
HETATM   37  O   UNL     1     -39.958  49.392 -54.720  1.00  0.00    -0.361 OA
HETATM   38  H   UNL     1     -40.835  48.979 -54.649  1.00  0.00     0.217 HD
ENDBRANCH  33  37
ENDBRANCH  30  31
ENDBRANCH   9  29
TORSDOF 8
ENDMDL
MODEL 6
REMARK VINA RESULT:      -8.9      1.988      6.077
REMARK  8 active torsions:
REMARK  status: ('A' for Active; 'I' for Inactive)
REMARK    1  A    between atoms: N_9  and  N_10 
REMARK    2  A    between atoms: C_11  and  C_12 
REMARK    3  A    between atoms: C_14  and  O_15 
REMARK    4  A    between atoms: C_19  and  N_20 
REMARK    5  A    between atoms: C_21  and  C_22 
REMARK       I    between atoms: C_22  and  N_23 
REMARK    6  A    between atoms: N_23  and  C_24 
REMARK    7  A    between atoms: C_24  and  C_25 
REMARK    8  A    between atoms: C_25  and  C_26 
ROOT
HETATM    1  C   UNL     1     -44.305  57.097 -60.246  1.00  0.00     0.002 A 
HETATM    2  C   UNL     1     -43.899  57.928 -59.200  1.00  0.00     0.034 A 
HETATM    3  C   UNL     1     -43.347  57.414 -58.033  1.00  0.00     0.086 A 
HETATM    4  C   UNL     1     -43.199  56.006 -57.913  1.00  0.00     0.088 A 
HETATM    5  N   UNL     1     -42.671  55.421 -56.831  1.00  0.00    -0.225 NA
HETATM    6  C   UNL     1     -42.281  56.307 -55.884  1.00  0.00     0.183 A 
HETATM    7  C   UNL     1     -42.405  57.685 -55.978  1.00  0.00     0.125 A 
HETATM    8  N   UNL     1     -42.970  58.274 -57.067  1.00  0.00    -0.242 NA
HETATM    9  N   UNL     1     -41.701  56.014 -54.666  1.00  0.00    -0.197 N 
HETATM   10  C   UNL     1     -41.431  57.212 -54.006  1.00  0.00     0.143 A 
HETATM   11  C   UNL     1     -41.903  58.264 -54.783  1.00  0.00     0.110 A 
HETATM   12  C   UNL     1     -43.610  55.191 -58.959  1.00  0.00     0.034 A 
HETATM   13  C   UNL     1     -44.161  55.722 -60.124  1.00  0.00     0.002 A 
ENDROOT
BRANCH  11  14
HETATM   14  C   UNL     1     -41.950  59.656 -54.357  1.00  0.00     0.257 C 
HETATM   15  N   UNL     1     -42.763  60.467 -55.119  1.00  0.00    -0.356 N 
HETATM   16  H   UNL     1     -43.228  60.053 -55.926  1.00  0.00     0.162 HD
HETATM   17  O   UNL     1     -41.398  60.053 -53.333  1.00  0.00    -0.267 OA
BRANCH  15  18
HETATM   18  C   UNL     1     -43.274  61.709 -54.580  1.00  0.00     0.127 C 
BRANCH  18  19
HETATM   19  C   UNL     1     -44.678  61.581 -53.974  1.00  0.00     0.053 C 
BRANCH  19  20
HETATM   20  C   UNL     1     -44.848  60.797 -52.679  1.00  0.00    -0.082 C 
HETATM   21  C   UNL     1     -44.652  61.630 -51.425  1.00  0.00     0.034 C 
HETATM   22  C   UNL     1     -44.502  60.801 -50.146  1.00  0.00     0.005 C 
HETATM   23  C   UNL     1     -45.534  59.684 -50.097  1.00  0.00     0.004 C 
HETATM   24  C   UNL     1     -45.380  58.755 -51.299  1.00  0.00     0.027 C 
HETATM   25  C   UNL     1     -45.143  59.486 -52.590  1.00  0.00    -0.024 C 
ENDBRANCH  19  20
ENDBRANCH  18  19
ENDBRANCH  15  18
ENDBRANCH  11  14
BRANCH  10  26
HETATM   26  N   UNL     1     -40.877  57.245 -52.761  1.00  0.00    -0.383 N 
HETATM   27  H   UNL     1     -39.879  57.067 -52.657  1.00  0.00     0.157 HD
HETATM   28  H   UNL     1     -41.425  56.837 -51.996  1.00  0.00     0.157 HD
ENDBRANCH  10  26
BRANCH   9  29
HETATM   29  N   UNL     1     -41.601  54.748 -54.153  1.00  0.00    -0.176 NA
HETATM   30  C   UNL     1     -40.446  54.188 -54.304  1.00  0.00     0.150 C 
BRANCH  30  31
HETATM   31  C   UNL     1     -40.189  52.848 -53.736  1.00  0.00    -0.014 A 
HETATM   32  C   UNL     1     -40.201  51.720 -54.566  1.00  0.00     0.049 A 
HETATM   33  C   UNL     1     -39.973  50.467 -54.011  1.00  0.00     0.066 A 
HETATM   34  C   UNL     1     -39.727  50.326 -52.650  1.00  0.00     0.036 A 
HETATM   35  C   UNL     1     -39.712  51.454 -51.825  1.00  0.00     0.004 A 
HETATM   36  C   UNL     1     -39.948  52.719 -52.367  1.00  0.00     0.013 A 
BRANCH  33  37
HETATM   37  O   UNL     1     -39.984  49.340 -54.777  1.00  0.00    -0.361 OA
HETATM   38  H   UNL     1     -40.705  49.414 -55.427  1.00  0.00     0.217 HD
ENDBRANCH  33  37
ENDBRANCH  30  31
ENDBRANCH   9  29
TORSDOF 8
ENDMDL
MODEL 7
REMARK VINA RESULT:      -8.9      1.930      3.439
REMARK  8 active torsions:
REMARK  status: ('A' for Active; 'I' for Inactive)
REMARK    1  A    between atoms: N_9  and  N_10 
REMARK    2  A    between atoms: C_11  and  C_12 
REMARK    3  A    between atoms: C_14  and  O_15 
REMARK    4  A    between atoms: C_19  and  N_20 
REMARK    5  A    between atoms: C_21  and  C_22 
REMARK       I    between atoms: C_22  and  N_23 
REMARK    6  A    between atoms: N_23  and  C_24 
REMARK    7  A    between atoms: C_24  and  C_25 
REMARK    8  A    between atoms: C_25  and  C_26 
ROOT
HETATM    1  C   UNL     1     -42.572  61.020 -51.616  1.00  0.00     0.002 A 
HETATM    2  C   UNL     1     -42.802  60.659 -52.945  1.00  0.00     0.034 A 
HETATM    3  C   UNL     1     -42.780  59.330 -53.353  1.00  0.00     0.086 A 
HETATM    4  C   UNL     1     -42.514  58.326 -52.384  1.00  0.00     0.088 A 
HETATM    5  N   UNL     1     -42.481  57.020 -52.681  1.00  0.00    -0.225 NA
HETATM    6  C   UNL     1     -42.745  56.765 -53.984  1.00  0.00     0.183 A 
HETATM    7  C   UNL     1     -43.016  57.724 -54.949  1.00  0.00     0.125 A 
HETATM    8  N   UNL     1     -43.018  59.052 -54.649  1.00  0.00    -0.242 NA
HETATM    9  N   UNL     1     -42.788  55.527 -54.593  1.00  0.00    -0.197 N 
HETATM   10  C   UNL     1     -43.118  55.705 -55.936  1.00  0.00     0.143 A 
HETATM   11  C   UNL     1     -43.219  57.068 -56.191  1.00  0.00     0.110 A 
HETATM   12  C   UNL     1     -42.283  58.699 -51.067  1.00  0.00     0.034 A 
HETATM   13  C   UNL     1     -42.310  60.037 -50.673  1.00  0.00     0.002 A 
ENDROOT
BRANCH  11  14
HETATM   14  C   UNL     1     -43.389  57.654 -57.513  1.00  0.00     0.257 C 
HETATM   15  N   UNL     1     -42.342  58.446 -57.933  1.00  0.00    -0.356 N 
HETATM   16  H   UNL     1     -41.566  58.590 -57.291  1.00  0.00     0.162 HD
HETATM   17  O   UNL     1     -44.338  57.376 -58.243  1.00  0.00    -0.267 OA
BRANCH  15  18
HETATM   18  C   UNL     1     -42.141  58.709 -59.343  1.00  0.00     0.127 C 
BRANCH  18  19
HETATM   19  C   UNL     1     -42.641  60.091 -59.785  1.00  0.00     0.053 C 
BRANCH  19  20
HETATM   20  C   UNL     1     -41.637  61.233 -59.893  1.00  0.00    -0.082 C 
HETATM   21  C   UNL     1     -41.032  61.649 -58.565  1.00  0.00     0.034 C 
HETATM   22  C   UNL     1     -40.281  62.982 -58.615  1.00  0.00     0.005 C 
HETATM   23  C   UNL     1     -39.396  63.063 -59.850  1.00  0.00     0.004 C 
HETATM   24  C   UNL     1     -40.231  62.927 -61.121  1.00  0.00     0.027 C 
HETATM   25  C   UNL     1     -41.280  61.856 -61.033  1.00  0.00    -0.024 C 
ENDBRANCH  19  20
ENDBRANCH  18  19
ENDBRANCH  15  18
ENDBRANCH  11  14
BRANCH  10  26
HETATM   26  N   UNL     1     -43.212  54.658 -56.804  1.00  0.00    -0.383 N 
HETATM   27  H   UNL     1     -44.133  54.346 -57.107  1.00  0.00     0.157 HD
HETATM   28  H   UNL     1     -42.564  53.875 -56.662  1.00  0.00     0.157 HD
ENDBRANCH  10  26
BRANCH   9  29
HETATM   29  N   UNL     1     -42.383  54.366 -53.989  1.00  0.00    -0.176 NA
HETATM   30  C   UNL     1     -41.144  54.053 -54.182  1.00  0.00     0.150 C 
BRANCH  30  31
HETATM   31  C   UNL     1     -40.568  52.859 -53.531  1.00  0.00    -0.014 A 
HETATM   32  C   UNL     1     -40.340  51.694 -54.274  1.00  0.00     0.049 A 
HETATM   33  C   UNL     1     -39.812  50.577 -53.640  1.00  0.00     0.066 A 
HETATM   34  C   UNL     1     -39.503  50.607 -52.285  1.00  0.00     0.036 A 
HETATM   35  C   UNL     1     -39.728  51.771 -51.546  1.00  0.00     0.004 A 
HETATM   36  C   UNL     1     -40.266  52.901 -52.167  1.00  0.00     0.013 A 
BRANCH  33  37
HETATM   37  O   UNL     1     -39.582  49.418 -54.320  1.00  0.00    -0.361 OA
HETATM   38  H   UNL     1     -38.835  48.956 -53.902  1.00  0.00     0.217 HD
ENDBRANCH  33  37
ENDBRANCH  30  31
ENDBRANCH   9  29
TORSDOF 8
ENDMDL
MODEL 8
REMARK VINA RESULT:      -8.7      2.450      7.804
REMARK  8 active torsions:
REMARK  status: ('A' for Active; 'I' for Inactive)
REMARK    1  A    between atoms: N_9  and  N_10 
REMARK    2  A    between atoms: C_11  and  C_12 
REMARK    3  A    between atoms: C_14  and  O_15 
REMARK    4  A    between atoms: C_19  and  N_20 
REMARK    5  A    between atoms: C_21  and  C_22 
REMARK       I    between atoms: C_22  and  N_23 
REMARK    6  A    between atoms: N_23  and  C_24 
REMARK    7  A    between atoms: C_24  and  C_25 
REMARK    8  A    between atoms: C_25  and  C_26 
ROOT
HETATM    1  C   UNL     1     -42.537  61.280 -50.238  1.00  0.00     0.002 A 
HETATM    2  C   UNL     1     -42.400  59.896 -50.357  1.00  0.00     0.034 A 
HETATM    3  C   UNL     1     -42.855  59.212 -51.478  1.00  0.00     0.086 A 
HETATM    4  C   UNL     1     -43.475  59.952 -52.521  1.00  0.00     0.088 A 
HETATM    5  N   UNL     1     -43.937  59.381 -53.641  1.00  0.00    -0.225 NA
HETATM    6  C   UNL     1     -43.732  58.044 -53.679  1.00  0.00     0.183 A 
HETATM    7  C   UNL     1     -43.122  57.298 -52.682  1.00  0.00     0.125 A 
HETATM    8  N   UNL     1     -42.682  57.877 -51.531  1.00  0.00    -0.242 NA
HETATM    9  N   UNL     1     -44.090  57.181 -54.696  1.00  0.00    -0.197 N 
HETATM   10  C   UNL     1     -43.675  55.895 -54.351  1.00  0.00     0.143 A 
HETATM   11  C   UNL     1     -43.112  55.936 -53.080  1.00  0.00     0.110 A 
HETATM   12  C   UNL     1     -43.609  61.327 -52.388  1.00  0.00     0.034 A 
HETATM   13  C   UNL     1     -43.146  61.999 -51.257  1.00  0.00     0.002 A 
ENDROOT
BRANCH  11  14
HETATM   14  C   UNL     1     -42.710  54.766 -52.313  1.00  0.00     0.257 C 
HETATM   15  N   UNL     1     -41.392  54.762 -51.912  1.00  0.00    -0.356 N 
HETATM   16  H   UNL     1     -40.802  55.538 -52.207  1.00  0.00     0.162 HD
HETATM   17  O   UNL     1     -43.510  53.903 -51.953  1.00  0.00    -0.267 OA
BRANCH  15  18
HETATM   18  C   UNL     1     -40.966  53.948 -50.793  1.00  0.00     0.127 C 
BRANCH  18  19
HETATM   19  C   UNL     1     -39.678  53.158 -51.065  1.00  0.00     0.053 C 
BRANCH  19  20
HETATM   20  C   UNL     1     -39.747  51.938 -51.976  1.00  0.00    -0.082 C 
HETATM   21  C   UNL     1     -40.016  52.270 -53.432  1.00  0.00     0.034 C 
HETATM   22  C   UNL     1     -40.402  51.058 -54.285  1.00  0.00     0.005 C 
HETATM   23  C   UNL     1     -39.496  49.872 -53.987  1.00  0.00     0.004 C 
HETATM   24  C   UNL     1     -39.588  49.480 -52.514  1.00  0.00     0.027 C 
HETATM   25  C   UNL     1     -39.591  50.659 -51.582  1.00  0.00    -0.024 C 
ENDBRANCH  19  20
ENDBRANCH  18  19
ENDBRANCH  15  18
ENDBRANCH  11  14
BRANCH  10  26
HETATM   26  N   UNL     1     -43.911  54.818 -55.153  1.00  0.00    -0.383 N 
HETATM   27  H   UNL     1     -43.943  53.888 -54.737  1.00  0.00     0.157 HD
HETATM   28  H   UNL     1     -43.460  54.815 -56.074  1.00  0.00     0.157 HD
ENDBRANCH  10  26
BRANCH   9  29
HETATM   29  N   UNL     1     -44.881  57.537 -55.756  1.00  0.00    -0.176 NA
HETATM   30  C   UNL     1     -44.241  57.877 -56.825  1.00  0.00     0.150 C 
BRANCH  30  31
HETATM   31  C   UNL     1     -44.981  58.218 -58.058  1.00  0.00    -0.014 A 
HETATM   32  C   UNL     1     -44.291  58.689 -59.183  1.00  0.00     0.049 A 
HETATM   33  C   UNL     1     -45.007  59.020 -60.327  1.00  0.00     0.066 A 
HETATM   34  C   UNL     1     -46.389  58.881 -60.368  1.00  0.00     0.036 A 
HETATM   35  C   UNL     1     -47.074  58.408 -59.245  1.00  0.00     0.004 A 
HETATM   36  C   UNL     1     -46.371  58.079 -58.084  1.00  0.00     0.013 A 
BRANCH  33  37
HETATM   37  O   UNL     1     -44.380  59.490 -61.443  1.00  0.00    -0.361 OA
HETATM   38  H   UNL     1     -44.737  60.371 -61.650  1.00  0.00     0.217 HD
ENDBRANCH  33  37
ENDBRANCH  30  31
ENDBRANCH   9  29
TORSDOF 8
ENDMDL
MODEL 9
REMARK VINA RESULT:      -8.6      2.448      7.902
REMARK  8 active torsions:
REMARK  status: ('A' for Active; 'I' for Inactive)
REMARK    1  A    between atoms: N_9  and  N_10 
REMARK    2  A    between atoms: C_11  and  C_12 
REMARK    3  A    between atoms: C_14  and  O_15 
REMARK    4  A    between atoms: C_19  and  N_20 
REMARK    5  A    between atoms: C_21  and  C_22 
REMARK       I    between atoms: C_22  and  N_23 
REMARK    6  A    between atoms: N_23  and  C_24 
REMARK    7  A    between atoms: C_24  and  C_25 
REMARK    8  A    between atoms: C_25  and  C_26 
ROOT
HETATM    1  C   UNL     1     -42.877  61.255 -50.267  1.00  0.00     0.002 A 
HETATM    2  C   UNL     1     -42.655  59.922 -50.620  1.00  0.00     0.034 A 
HETATM    3  C   UNL     1     -42.639  59.512 -51.948  1.00  0.00     0.086 A 
HETATM    4  C   UNL     1     -42.858  60.483 -52.961  1.00  0.00     0.088 A 
HETATM    5  N   UNL     1     -42.854  60.184 -54.267  1.00  0.00    -0.225 NA
HETATM    6  C   UNL     1     -42.601  58.877 -54.512  1.00  0.00     0.183 A 
HETATM    7  C   UNL     1     -42.375  57.910 -53.544  1.00  0.00     0.125 A 
HETATM    8  N   UNL     1     -42.411  58.212 -52.216  1.00  0.00    -0.242 NA
HETATM    9  N   UNL     1     -42.527  58.266 -55.747  1.00  0.00    -0.197 N 
HETATM   10  C   UNL     1     -42.222  56.918 -55.557  1.00  0.00     0.143 A 
HETATM   11  C   UNL     1     -42.169  56.663 -54.190  1.00  0.00     0.110 A 
HETATM   12  C   UNL     1     -43.082  61.804 -52.597  1.00  0.00     0.034 A 
HETATM   13  C   UNL     1     -43.093  62.199 -51.260  1.00  0.00     0.002 A 
ENDROOT
BRANCH  11  14
HETATM   14  C   UNL     1     -42.036  55.340 -53.598  1.00  0.00     0.257 C 
HETATM   15  N   UNL     1     -41.145  55.264 -52.548  1.00  0.00    -0.356 N 
HETATM   16  H   UNL     1     -40.631  56.107 -52.297  1.00  0.00     0.162 HD
HETATM   17  O   UNL     1     -42.744  54.392 -53.931  1.00  0.00    -0.267 OA
BRANCH  15  18
HETATM   18  C   UNL     1     -41.238  54.189 -51.583  1.00  0.00     0.127 C 
BRANCH  18  19
HETATM   19  C   UNL     1     -39.958  53.347 -51.481  1.00  0.00     0.053 C 
BRANCH  19  20
HETATM   20  C   UNL     1     -39.903  52.008 -52.205  1.00  0.00    -0.082 C 
HETATM   21  C   UNL     1     -40.147  52.106 -53.700  1.00  0.00     0.034 C 
HETATM   22  C   UNL     1     -40.411  50.757 -54.376  1.00  0.00     0.005 C 
HETATM   23  C   UNL     1     -39.428  49.702 -53.889  1.00  0.00     0.004 C 
HETATM   24  C   UNL     1     -39.541  49.519 -52.377  1.00  0.00     0.027 C 
HETATM   25  C   UNL     1     -39.665  50.815 -51.627  1.00  0.00    -0.024 C 
ENDBRANCH  19  20
ENDBRANCH  18  19
ENDBRANCH  15  18
ENDBRANCH  11  14
BRANCH  10  26
HETATM   26  N   UNL     1     -42.106  56.046 -56.599  1.00  0.00    -0.383 N 
HETATM   27  H   UNL     1     -42.255  55.052 -56.432  1.00  0.00     0.157 HD
HETATM   28  H   UNL     1     -41.348  56.219 -57.268  1.00  0.00     0.157 HD
ENDBRANCH  10  26
BRANCH   9  29
HETATM   29  N   UNL     1     -42.885  58.873 -56.922  1.00  0.00    -0.176 NA
HETATM   30  C   UNL     1     -41.922  59.472 -57.542  1.00  0.00     0.150 C 
BRANCH  30  31
HETATM   31  C   UNL     1     -42.164  60.109 -58.853  1.00  0.00    -0.014 A 
HETATM   32  C   UNL     1     -43.165  59.614 -59.699  1.00  0.00     0.049 A 
HETATM   33  C   UNL     1     -43.366  60.218 -60.935  1.00  0.00     0.066 A 
HETATM   34  C   UNL     1     -42.595  61.304 -61.332  1.00  0.00     0.036 A 
HETATM   35  C   UNL     1     -41.600  61.797 -60.483  1.00  0.00     0.004 A 
HETATM   36  C   UNL     1     -41.379  61.197 -59.241  1.00  0.00     0.013 A 
BRANCH  33  37
HETATM   37  O   UNL     1     -44.321  59.766 -61.796  1.00  0.00    -0.361 OA
HETATM   38  H   UNL     1     -45.096  60.351 -61.735  1.00  0.00     0.217 HD
ENDBRANCH  33  37
ENDBRANCH  30  31
ENDBRANCH   9  29
TORSDOF 8
ENDMDL
MODEL 10
REMARK VINA RESULT:      -8.5      2.717      8.132
REMARK  8 active torsions:
REMARK  status: ('A' for Active; 'I' for Inactive)
REMARK    1  A    between atoms: N_9  and  N_10 
REMARK    2  A    between atoms: C_11  and  C_12 
REMARK    3  A    between atoms: C_14  and  O_15 
REMARK    4  A    between atoms: C_19  and  N_20 
REMARK    5  A    between atoms: C_21  and  C_22 
REMARK       I    between atoms: C_22  and  N_23 
REMARK    6  A    between atoms: N_23  and  C_24 
REMARK    7  A    between atoms: C_24  and  C_25 
REMARK    8  A    between atoms: C_25  and  C_26 
ROOT
HETATM    1  C   UNL     1     -45.610  59.985 -50.779  1.00  0.00     0.002 A 
HETATM    2  C   UNL     1     -44.870  58.865 -51.164  1.00  0.00     0.034 A 
HETATM    3  C   UNL     1     -44.686  58.537 -52.502  1.00  0.00     0.086 A 
HETATM    4  C   UNL     1     -45.273  59.369 -53.493  1.00  0.00     0.088 A 
HETATM    5  N   UNL     1     -45.144  59.138 -54.805  1.00  0.00    -0.225 NA
HETATM    6  C   UNL     1     -44.387  58.051 -55.081  1.00  0.00     0.183 A 
HETATM    7  C   UNL     1     -43.795  57.226 -54.136  1.00  0.00     0.125 A 
HETATM    8  N   UNL     1     -43.954  57.447 -52.802  1.00  0.00    -0.242 NA
HETATM    9  N   UNL     1     -44.069  57.559 -56.332  1.00  0.00    -0.197 N 
HETATM   10  C   UNL     1     -43.249  56.442 -56.173  1.00  0.00     0.143 A 
HETATM   11  C   UNL     1     -43.103  56.188 -54.813  1.00  0.00     0.110 A 
HETATM   12  C   UNL     1     -46.010  60.478 -53.097  1.00  0.00     0.034 A 
HETATM   13  C   UNL     1     -46.184  60.794 -51.750  1.00  0.00     0.002 A 
ENDROOT
BRANCH  11  14
HETATM   14  C   UNL     1     -42.453  55.012 -54.254  1.00  0.00     0.257 C 
HETATM   15  N   UNL     1     -41.922  55.189 -52.995  1.00  0.00    -0.356 N 
HETATM   16  H   UNL     1     -41.988  56.115 -52.576  1.00  0.00     0.162 HD
HETATM   17  O   UNL     1     -42.473  53.916 -54.812  1.00  0.00    -0.267 OA
BRANCH  15  18
HETATM   18  C   UNL     1     -41.671  54.050 -52.137  1.00  0.00     0.127 C 
BRANCH  18  19
HETATM   19  C   UNL     1     -40.235  53.517 -52.233  1.00  0.00     0.053 C 
BRANCH  19  20
HETATM   20  C   UNL     1     -40.022  52.040 -52.541  1.00  0.00    -0.082 C 
HETATM   21  C   UNL     1     -40.110  51.701 -54.018  1.00  0.00     0.034 C 
HETATM   22  C   UNL     1     -40.218  50.200 -54.306  1.00  0.00     0.005 C 
HETATM   23  C   UNL     1     -39.231  49.411 -53.458  1.00  0.00     0.004 C 
HETATM   24  C   UNL     1     -39.492  49.642 -51.971  1.00  0.00     0.027 C 
HETATM   25  C   UNL     1     -39.775  51.078 -51.631  1.00  0.00    -0.024 C 
ENDBRANCH  19  20
ENDBRANCH  18  19
ENDBRANCH  15  18
ENDBRANCH  11  14
BRANCH  10  26
HETATM   26  N   UNL     1     -42.790  55.723 -57.236  1.00  0.00    -0.383 N 
HETATM   27  H   UNL     1     -42.709  56.177 -58.144  1.00  0.00     0.157 HD
HETATM   28  H   UNL     1     -43.113  54.752 -57.315  1.00  0.00     0.157 HD
ENDBRANCH  10  26
BRANCH   9  29
HETATM   29  N   UNL     1     -44.637  58.008 -57.495  1.00  0.00    -0.176 NA
HETATM   30  C   UNL     1     -45.676  57.347 -57.886  1.00  0.00     0.150 C 
BRANCH  30  31
HETATM   31  C   UNL     1     -46.418  57.771 -59.090  1.00  0.00    -0.014 A 
HETATM   32  C   UNL     1     -46.708  56.845 -60.099  1.00  0.00     0.049 A 
HETATM   33  C   UNL     1     -47.394  57.267 -61.232  1.00  0.00     0.066 A 
HETATM   34  C   UNL     1     -47.798  58.590 -61.367  1.00  0.00     0.036 A 
HETATM   35  C   UNL     1     -47.510  59.512 -60.357  1.00  0.00     0.004 A 
HETATM   36  C   UNL     1     -46.815  59.105 -59.216  1.00  0.00     0.013 A 
BRANCH  33  37
HETATM   37  O   UNL     1     -47.690  56.403 -62.244  1.00  0.00    -0.361 OA
HETATM   38  H   UNL     1     -48.644  56.214 -62.220  1.00  0.00     0.217 HD
ENDBRANCH  33  37
ENDBRANCH  30  31
ENDBRANCH   9  29
TORSDOF 8
ENDMDL
