MODEL 1
REMARK VINA RESULT:      -8.8      0.000      0.000
REMARK  6 active torsions:
REMARK  status: ('A' for Active; 'I' for Inactive)
REMARK    1  A    between atoms: O_2  and  C_3 
REMARK    2  A    between atoms: C_6  and  C_7 
REMARK    3  A    between atoms: C_12  and  C_13 
REMARK       I    between atoms: C_13  and  N_14 
REMARK    4  A    between atoms: N_14  and  C_15 
REMARK    5  A    between atoms: C_15  and  C_16 
REMARK    6  A    between atoms: C_24  and  C_25 
ROOT
HETATM    1  C   UNL     1     -43.446  54.789 -53.961  1.00  0.00     0.118 C 
HETATM    2  N   UNL     1     -43.598  54.789 -55.410  1.00  0.00    -0.366 N 
HETATM    3  C   UNL     1     -43.187  55.818 -56.177  1.00  0.00     0.123 A 
HETATM    4  N   UNL     1     -42.722  56.984 -55.636  1.00  0.00    -0.240 N 
HETATM    5  N   UNL     1     -42.377  57.909 -56.552  1.00  0.00    -0.165 NA
HETATM    6  C   UNL     1     -42.597  57.284 -57.733  1.00  0.00     0.148 A 
HETATM    7  C   UNL     1     -43.119  55.978 -57.534  1.00  0.00     0.088 A 
HETATM    8  C   UNL     1     -42.631  57.248 -54.213  1.00  0.00     0.221 C 
HETATM    9  C   UNL     1     -43.454  56.224 -53.406  1.00  0.00     0.066 C 
HETATM   10  H   UNL     1     -43.792  53.876 -55.824  1.00  0.00     0.161 HD
ENDROOT
BRANCH   6  11
HETATM   11  C   UNL     1     -42.302  57.914 -59.028  1.00  0.00     0.272 C 
HETATM   12  N   UNL     1     -42.808  59.185 -59.146  1.00  0.00    -0.351 N 
HETATM   13  H   UNL     1     -43.335  59.540 -58.353  1.00  0.00     0.163 HD
HETATM   14  O   UNL     1     -41.645  57.354 -59.899  1.00  0.00    -0.266 OA
BRANCH  12  15
HETATM   15  C   UNL     1     -42.589  60.014 -60.304  1.00  0.00     0.161 C 
BRANCH  15  16
HETATM   16  C   UNL     1     -41.614  61.136 -60.044  1.00  0.00    -0.041 A 
HETATM   17  C   UNL     1     -41.140  61.419 -58.753  1.00  0.00     0.009 A 
HETATM   18  C   UNL     1     -40.201  62.431 -58.543  1.00  0.00     0.001 A 
HETATM   19  C   UNL     1     -39.709  63.161 -59.623  1.00  0.00     0.000 A 
HETATM   20  C   UNL     1     -40.154  62.879 -60.912  1.00  0.00     0.001 A 
HETATM   21  C   UNL     1     -41.097  61.870 -61.122  1.00  0.00     0.009 A 
ENDBRANCH  15  16
ENDBRANCH  12  15
ENDBRANCH   6  11
BRANCH   8  22
HETATM   22  C   UNL     1     -41.186  57.354 -53.781  1.00  0.00     0.409 C 
HETATM   23  F   UNL     1     -40.634  58.561 -54.004  1.00  0.00    -0.169 F 
HETATM   24  F   UNL     1     -41.031  57.078 -52.465  1.00  0.00    -0.169 F 
HETATM   25  F   UNL     1     -40.431  56.441 -54.446  1.00  0.00    -0.169 F 
ENDBRANCH   8  22
BRANCH   1  26
HETATM   26  C   UNL     1     -42.286  53.929 -53.494  1.00  0.00    -0.035 A 
HETATM   27  C   UNL     1     -41.525  53.132 -54.361  1.00  0.00     0.012 A 
HETATM   28  C   UNL     1     -40.446  52.373 -53.891  1.00  0.00     0.037 A 
HETATM   29  C   UNL     1     -40.119  52.381 -52.537  1.00  0.00     0.068 A 
HETATM   30  C   UNL     1     -40.892  53.137 -51.657  1.00  0.00     0.037 A 
HETATM   31  C   UNL     1     -41.957  53.910 -52.129  1.00  0.00     0.012 A 
BRANCH  29  32
HETATM   32  O   UNL     1     -39.092  51.688 -51.959  1.00  0.00    -0.356 OA
HETATM   33  C   UNL     1     -39.430  50.438 -51.371  1.00  0.00     0.210 C 
ENDBRANCH  29  32
ENDBRANCH   1  26
TORSDOF 6
ENDMDL
MODEL 2
REMARK VINA RESULT:      -8.4      5.692      9.631
REMARK  6 active torsions:
REMARK  status: ('A' for Active; 'I' for Inactive)
REMARK    1  A    between atoms: O_2  and  C_3 
REMARK    2  A    between atoms: C_6  and  C_7 
REMARK    3  A    between atoms: C_12  and  C_13 
REMARK       I    between atoms: C_13  and  N_14 
REMARK    4  A    between atoms: N_14  and  C_15 
REMARK    5  A    between atoms: C_15  and  C_16 
REMARK    6  A    between atoms: C_24  and  C_25 
ROOT
HETATM    1  C   UNL     1     -43.767  59.871 -51.876  1.00  0.00     0.118 C 
HETATM    2  N   UNL     1     -44.067  58.466 -51.637  1.00  0.00    -0.366 N 
HETATM    3  C   UNL     1     -43.119  57.578 -51.276  1.00  0.00     0.123 A 
HETATM    4  N   UNL     1     -41.793  57.909 -51.241  1.00  0.00    -0.240 N 
HETATM    5  N   UNL     1     -40.987  56.892 -50.881  1.00  0.00    -0.165 NA
HETATM    6  C   UNL     1     -41.849  55.876 -50.637  1.00  0.00     0.148 A 
HETATM    7  C   UNL     1     -43.191  56.268 -50.889  1.00  0.00     0.088 A 
HETATM    8  C   UNL     1     -41.264  59.213 -51.591  1.00  0.00     0.221 C 
HETATM    9  C   UNL     1     -42.313  60.051 -52.349  1.00  0.00     0.066 C 
HETATM   10  H   UNL     1     -45.056  58.252 -51.506  1.00  0.00     0.161 HD
ENDROOT
BRANCH   6  11
HETATM   11  C   UNL     1     -41.403  54.560 -50.158  1.00  0.00     0.272 C 
HETATM   12  N   UNL     1     -40.570  53.911 -51.035  1.00  0.00    -0.351 N 
HETATM   13  H   UNL     1     -40.369  54.390 -51.908  1.00  0.00     0.163 HD
HETATM   14  O   UNL     1     -41.735  54.109 -49.066  1.00  0.00    -0.266 OA
BRANCH  12  15
HETATM   15  C   UNL     1     -39.964  52.636 -50.747  1.00  0.00     0.161 C 
BRANCH  15  16
HETATM   16  C   UNL     1     -39.900  51.733 -51.955  1.00  0.00    -0.041 A 
HETATM   17  C   UNL     1     -39.577  50.371 -51.842  1.00  0.00     0.009 A 
HETATM   18  C   UNL     1     -39.570  49.544 -52.967  1.00  0.00     0.001 A 
HETATM   19  C   UNL     1     -39.904  50.062 -54.217  1.00  0.00     0.000 A 
HETATM   20  C   UNL     1     -40.246  51.406 -54.342  1.00  0.00     0.001 A 
HETATM   21  C   UNL     1     -40.248  52.235 -53.218  1.00  0.00     0.009 A 
ENDBRANCH  15  16
ENDBRANCH  12  15
ENDBRANCH   6  11
BRANCH   8  22
HETATM   22  C   UNL     1     -40.691  59.902 -50.372  1.00  0.00     0.409 C 
HETATM   23  F   UNL     1     -41.218  59.480 -49.207  1.00  0.00    -0.169 F 
HETATM   24  F   UNL     1     -39.349  59.745 -50.287  1.00  0.00    -0.169 F 
HETATM   25  F   UNL     1     -40.907  61.240 -50.447  1.00  0.00    -0.169 F 
ENDBRANCH   8  22
BRANCH   1  26
HETATM   26  C   UNL     1     -44.179  60.764 -50.720  1.00  0.00    -0.035 A 
HETATM   27  C   UNL     1     -43.776  62.102 -50.604  1.00  0.00     0.012 A 
HETATM   28  C   UNL     1     -44.200  62.897 -49.532  1.00  0.00     0.037 A 
HETATM   29  C   UNL     1     -45.022  62.362 -48.543  1.00  0.00     0.068 A 
HETATM   30  C   UNL     1     -45.397  61.022 -48.624  1.00  0.00     0.037 A 
HETATM   31  C   UNL     1     -44.990  60.233 -49.704  1.00  0.00     0.012 A 
BRANCH  29  32
HETATM   32  O   UNL     1     -45.504  63.035 -47.454  1.00  0.00    -0.356 OA
HETATM   33  C   UNL     1     -45.509  62.318 -46.226  1.00  0.00     0.210 C 
ENDBRANCH  29  32
ENDBRANCH   1  26
TORSDOF 6
ENDMDL
MODEL 3
REMARK VINA RESULT:      -8.2      3.285      9.042
REMARK  6 active torsions:
REMARK  status: ('A' for Active; 'I' for Inactive)
REMARK    1  A    between atoms: O_2  and  C_3 
REMARK    2  A    between atoms: C_6  and  C_7 
REMARK    3  A    between atoms: C_12  and  C_13 
REMARK       I    between atoms: C_13  and  N_14 
REMARK    4  A    between atoms: N_14  and  C_15 
REMARK    5  A    between atoms: C_15  and  C_16 
REMARK    6  A    between atoms: C_24  and  C_25 
ROOT
HETATM    1  C   UNL     1     -42.781  57.958 -58.258  1.00  0.00     0.118 C 
HETATM    2  N   UNL     1     -42.083  56.846 -57.627  1.00  0.00    -0.366 N 
HETATM    3  C   UNL     1     -42.230  56.552 -56.319  1.00  0.00     0.123 A 
HETATM    4  N   UNL     1     -42.941  57.356 -55.472  1.00  0.00    -0.240 N 
HETATM    5  N   UNL     1     -42.964  56.918 -54.199  1.00  0.00    -0.165 NA
HETATM    6  C   UNL     1     -42.267  55.759 -54.249  1.00  0.00     0.148 A 
HETATM    7  C   UNL     1     -41.780  55.507 -55.560  1.00  0.00     0.088 A 
HETATM    8  C   UNL     1     -43.589  58.592 -55.866  1.00  0.00     0.221 C 
HETATM    9  C   UNL     1     -43.078  59.072 -57.239  1.00  0.00     0.066 C 
HETATM   10  H   UNL     1     -41.687  56.162 -58.272  1.00  0.00     0.161 HD
ENDROOT
BRANCH   6  11
HETATM   11  C   UNL     1     -42.079  54.898 -53.072  1.00  0.00     0.272 C 
HETATM   12  N   UNL     1     -40.780  54.492 -52.892  1.00  0.00    -0.351 N 
HETATM   13  H   UNL     1     -40.106  54.807 -53.584  1.00  0.00     0.163 HD
HETATM   14  O   UNL     1     -43.001  54.599 -52.320  1.00  0.00    -0.266 OA
BRANCH  12  15
HETATM   15  C   UNL     1     -40.354  53.694 -51.772  1.00  0.00     0.161 C 
BRANCH  15  16
HETATM   16  C   UNL     1     -40.110  52.250 -52.139  1.00  0.00    -0.041 A 
HETATM   17  C   UNL     1     -40.069  51.825 -53.477  1.00  0.00     0.009 A 
HETATM   18  C   UNL     1     -39.795  50.494 -53.795  1.00  0.00     0.001 A 
HETATM   19  C   UNL     1     -39.539  49.573 -52.781  1.00  0.00     0.000 A 
HETATM   20  C   UNL     1     -39.557  49.983 -51.450  1.00  0.00     0.001 A 
HETATM   21  C   UNL     1     -39.836  51.314 -51.131  1.00  0.00     0.009 A 
ENDBRANCH  15  16
ENDBRANCH  12  15
ENDBRANCH   6  11
BRANCH   8  22
HETATM   22  C   UNL     1     -45.093  58.455 -55.783  1.00  0.00     0.409 C 
HETATM   23  F   UNL     1     -45.586  58.577 -54.536  1.00  0.00    -0.169 F 
HETATM   24  F   UNL     1     -45.727  59.368 -56.557  1.00  0.00    -0.169 F 
HETATM   25  F   UNL     1     -45.479  57.238 -56.248  1.00  0.00    -0.169 F 
ENDBRANCH   8  22
BRANCH   1  26
HETATM   26  C   UNL     1     -43.974  57.508 -59.080  1.00  0.00    -0.035 A 
HETATM   27  C   UNL     1     -44.923  58.398 -59.605  1.00  0.00     0.012 A 
HETATM   28  C   UNL     1     -45.997  57.941 -60.380  1.00  0.00     0.037 A 
HETATM   29  C   UNL     1     -46.152  56.580 -60.631  1.00  0.00     0.068 A 
HETATM   30  C   UNL     1     -45.240  55.680 -60.082  1.00  0.00     0.037 A 
HETATM   31  C   UNL     1     -44.158  56.137 -59.324  1.00  0.00     0.012 A 
BRANCH  29  32
HETATM   32  O   UNL     1     -47.152  56.013 -61.372  1.00  0.00    -0.356 OA
HETATM   33  C   UNL     1     -48.238  56.865 -61.717  1.00  0.00     0.210 C 
ENDBRANCH  29  32
ENDBRANCH   1  26
TORSDOF 6
ENDMDL
MODEL 4
REMARK VINA RESULT:      -8.1      1.442      2.410
REMARK  6 active torsions:
REMARK  status: ('A' for Active; 'I' for Inactive)
REMARK    1  A    between atoms: O_2  and  C_3 
REMARK    2  A    between atoms: C_6  and  C_7 
REMARK    3  A    between atoms: C_12  and  C_13 
REMARK       I    between atoms: C_13  and  N_14 
REMARK    4  A    between atoms: N_14  and  C_15 
REMARK    5  A    between atoms: C_15  and  C_16 
REMARK    6  A    between atoms: C_24  and  C_25 
ROOT
HETATM    1  C   UNL     1     -43.519  54.687 -54.077  1.00  0.00     0.118 C 
HETATM    2  N   UNL     1     -43.588  54.586 -55.528  1.00  0.00    -0.366 N 
HETATM    3  C   UNL     1     -43.184  55.583 -56.341  1.00  0.00     0.123 A 
HETATM    4  N   UNL     1     -42.808  56.805 -55.855  1.00  0.00    -0.240 N 
HETATM    5  N   UNL     1     -42.457  57.685 -56.812  1.00  0.00    -0.165 NA
HETATM    6  C   UNL     1     -42.579  56.975 -57.958  1.00  0.00     0.148 A 
HETATM    7  C   UNL     1     -43.047  55.658 -57.700  1.00  0.00     0.088 A 
HETATM    8  C   UNL     1     -42.812  57.165 -54.451  1.00  0.00     0.221 C 
HETATM    9  C   UNL     1     -43.629  56.154 -53.622  1.00  0.00     0.066 C 
HETATM   10  H   UNL     1     -43.713  53.639 -55.890  1.00  0.00     0.161 HD
ENDROOT
BRANCH   6  11
HETATM   11  C   UNL     1     -42.241  57.534 -59.275  1.00  0.00     0.272 C 
HETATM   12  N   UNL     1     -42.317  58.904 -59.323  1.00  0.00    -0.351 N 
HETATM   13  H   UNL     1     -42.607  59.373 -58.470  1.00  0.00     0.163 HD
HETATM   14  O   UNL     1     -41.904  56.832 -60.222  1.00  0.00    -0.266 OA
BRANCH  12  15
HETATM   15  C   UNL     1     -41.971  59.670 -60.493  1.00  0.00     0.161 C 
BRANCH  15  16
HETATM   16  C   UNL     1     -43.180  60.135 -61.267  1.00  0.00    -0.041 A 
HETATM   17  C   UNL     1     -44.485  59.939 -60.787  1.00  0.00     0.009 A 
HETATM   18  C   UNL     1     -45.586  60.420 -61.497  1.00  0.00     0.001 A 
HETATM   19  C   UNL     1     -45.398  61.122 -62.686  1.00  0.00     0.000 A 
HETATM   20  C   UNL     1     -44.109  61.342 -63.165  1.00  0.00     0.001 A 
HETATM   21  C   UNL     1     -43.007  60.856 -62.458  1.00  0.00     0.009 A 
ENDBRANCH  15  16
ENDBRANCH  12  15
ENDBRANCH   6  11
BRANCH   8  22
HETATM   22  C   UNL     1     -41.400  57.374 -53.950  1.00  0.00     0.409 C 
HETATM   23  F   UNL     1     -40.505  56.507 -54.457  1.00  0.00    -0.169 F 
HETATM   24  F   UNL     1     -40.948  58.622 -54.218  1.00  0.00    -0.169 F 
HETATM   25  F   UNL     1     -41.360  57.245 -52.598  1.00  0.00    -0.169 F 
ENDBRANCH   8  22
BRANCH   1  26
HETATM   26  C   UNL     1     -42.347  53.922 -53.491  1.00  0.00    -0.035 A 
HETATM   27  C   UNL     1     -41.972  54.008 -52.143  1.00  0.00     0.012 A 
HETATM   28  C   UNL     1     -40.898  53.263 -51.638  1.00  0.00     0.037 A 
HETATM   29  C   UNL     1     -40.164  52.432 -52.480  1.00  0.00     0.068 A 
HETATM   30  C   UNL     1     -40.499  52.368 -53.832  1.00  0.00     0.037 A 
HETATM   31  C   UNL     1     -41.584  53.095 -54.331  1.00  0.00     0.012 A 
BRANCH  29  32
HETATM   32  O   UNL     1     -39.101  51.656 -52.109  1.00  0.00    -0.356 OA
HETATM   33  C   UNL     1     -39.414  50.441 -51.439  1.00  0.00     0.210 C 
ENDBRANCH  29  32
ENDBRANCH   1  26
TORSDOF 6
ENDMDL
MODEL 5
REMARK VINA RESULT:      -7.9      4.317      8.479
REMARK  6 active torsions:
REMARK  status: ('A' for Active; 'I' for Inactive)
REMARK    1  A    between atoms: O_2  and  C_3 
REMARK    2  A    between atoms: C_6  and  C_7 
REMARK    3  A    between atoms: C_12  and  C_13 
REMARK       I    between atoms: C_13  and  N_14 
REMARK    4  A    between atoms: N_14  and  C_15 
REMARK    5  A    between atoms: C_15  and  C_16 
REMARK    6  A    between atoms: C_24  and  C_25 
ROOT
HETATM    1  C   UNL     1     -43.667  60.351 -53.022  1.00  0.00     0.118 C 
HETATM    2  N   UNL     1     -44.085  59.142 -53.718  1.00  0.00    -0.366 N 
HETATM    3  C   UNL     1     -43.276  58.072 -53.854  1.00  0.00     0.123 A 
HETATM    4  N   UNL     1     -41.966  58.101 -53.463  1.00  0.00    -0.240 N 
HETATM    5  N   UNL     1     -41.304  56.951 -53.694  1.00  0.00    -0.165 NA
HETATM    6  C   UNL     1     -42.251  56.140 -54.221  1.00  0.00     0.148 A 
HETATM    7  C   UNL     1     -43.494  56.816 -54.348  1.00  0.00     0.088 A 
HETATM    8  C   UNL     1     -41.308  59.258 -52.887  1.00  0.00     0.221 C 
HETATM    9  C   UNL     1     -42.141  60.536 -53.108  1.00  0.00     0.066 C 
HETATM   10  H   UNL     1     -45.091  59.055 -53.867  1.00  0.00     0.161 HD
ENDROOT
BRANCH   6  11
HETATM   11  C   UNL     1     -41.981  54.741 -54.583  1.00  0.00     0.272 C 
HETATM   12  N   UNL     1     -40.650  54.407 -54.524  1.00  0.00    -0.351 N 
HETATM   13  H   UNL     1     -40.008  55.148 -54.260  1.00  0.00     0.163 HD
HETATM   14  O   UNL     1     -42.873  53.954 -54.883  1.00  0.00    -0.266 OA
BRANCH  12  15
HETATM   15  C   UNL     1     -40.162  53.076 -54.778  1.00  0.00     0.161 C 
BRANCH  15  16
HETATM   16  C   UNL     1     -39.983  52.267 -53.516  1.00  0.00    -0.041 A 
HETATM   17  C   UNL     1     -40.135  52.841 -52.243  1.00  0.00     0.009 A 
HETATM   18  C   UNL     1     -40.012  52.062 -51.091  1.00  0.00     0.001 A 
HETATM   19  C   UNL     1     -39.755  50.697 -51.195  1.00  0.00     0.000 A 
HETATM   20  C   UNL     1     -39.622  50.109 -52.450  1.00  0.00     0.001 A 
HETATM   21  C   UNL     1     -39.739  50.888 -53.604  1.00  0.00     0.009 A 
ENDBRANCH  15  16
ENDBRANCH  12  15
ENDBRANCH   6  11
BRANCH   8  22
HETATM   22  C   UNL     1     -40.947  59.001 -51.440  1.00  0.00     0.409 C 
HETATM   23  F   UNL     1     -39.771  58.368 -51.273  1.00  0.00    -0.169 F 
HETATM   24  F   UNL     1     -40.893  60.147 -50.722  1.00  0.00    -0.169 F 
HETATM   25  F   UNL     1     -41.900  58.234 -50.850  1.00  0.00    -0.169 F 
ENDBRANCH   8  22
BRANCH   1  26
HETATM   26  C   UNL     1     -44.246  60.452 -51.624  1.00  0.00    -0.035 A 
HETATM   27  C   UNL     1     -43.862  61.439 -50.704  1.00  0.00     0.012 A 
HETATM   28  C   UNL     1     -44.442  61.510 -49.431  1.00  0.00     0.037 A 
HETATM   29  C   UNL     1     -45.406  60.582 -49.046  1.00  0.00     0.068 A 
HETATM   30  C   UNL     1     -45.767  59.571 -49.934  1.00  0.00     0.037 A 
HETATM   31  C   UNL     1     -45.204  59.511 -51.212  1.00  0.00     0.012 A 
BRANCH  29  32
HETATM   32  O   UNL     1     -46.044  60.548 -47.837  1.00  0.00    -0.356 OA
HETATM   33  C   UNL     1     -45.666  61.548 -46.899  1.00  0.00     0.210 C 
ENDBRANCH  29  32
ENDBRANCH   1  26
TORSDOF 6
ENDMDL
MODEL 6
REMARK VINA RESULT:      -7.8      5.465      7.979
REMARK  6 active torsions:
REMARK  status: ('A' for Active; 'I' for Inactive)
REMARK    1  A    between atoms: O_2  and  C_3 
REMARK    2  A    between atoms: C_6  and  C_7 
REMARK    3  A    between atoms: C_12  and  C_13 
REMARK       I    between atoms: C_13  and  N_14 
REMARK    4  A    between atoms: N_14  and  C_15 
REMARK    5  A    between atoms: C_15  and  C_16 
REMARK    6  A    between atoms: C_24  and  C_25 
ROOT
HETATM    1  C   UNL     1     -40.962  57.493 -53.769  1.00  0.00     0.118 C 
HETATM    2  N   UNL     1     -41.274  58.109 -52.486  1.00  0.00    -0.366 N 
HETATM    3  C   UNL     1     -42.516  58.527 -52.171  1.00  0.00     0.123 A 
HETATM    4  N   UNL     1     -43.535  58.521 -53.083  1.00  0.00    -0.240 N 
HETATM    5  N   UNL     1     -44.700  58.993 -52.599  1.00  0.00    -0.165 NA
HETATM    6  C   UNL     1     -44.416  59.275 -51.306  1.00  0.00     0.148 A 
HETATM    7  C   UNL     1     -43.053  59.009 -51.008  1.00  0.00     0.088 A 
HETATM    8  C   UNL     1     -43.400  58.090 -54.461  1.00  0.00     0.221 C 
HETATM    9  C   UNL     1     -41.915  57.995 -54.868  1.00  0.00     0.066 C 
HETATM   10  H   UNL     1     -40.572  57.972 -51.758  1.00  0.00     0.161 HD
ENDROOT
BRANCH   6  11
HETATM   11  C   UNL     1     -45.429  59.776 -50.366  1.00  0.00     0.272 C 
HETATM   12  N   UNL     1     -45.274  61.103 -50.049  1.00  0.00    -0.351 N 
HETATM   13  H   UNL     1     -44.485  61.582 -50.475  1.00  0.00     0.163 HD
HETATM   14  O   UNL     1     -46.334  59.069 -49.933  1.00  0.00    -0.266 OA
BRANCH  12  15
HETATM   15  C   UNL     1     -46.186  61.820 -49.195  1.00  0.00     0.161 C 
BRANCH  15  16
HETATM   16  C   UNL     1     -45.675  61.961 -47.781  1.00  0.00    -0.041 A 
HETATM   17  C   UNL     1     -45.527  63.217 -47.172  1.00  0.00     0.009 A 
HETATM   18  C   UNL     1     -45.099  63.321 -45.847  1.00  0.00     0.001 A 
HETATM   19  C   UNL     1     -44.832  62.171 -45.108  1.00  0.00     0.000 A 
HETATM   20  C   UNL     1     -44.994  60.917 -45.692  1.00  0.00     0.001 A 
HETATM   21  C   UNL     1     -45.417  60.812 -47.019  1.00  0.00     0.009 A 
ENDBRANCH  15  16
ENDBRANCH  12  15
ENDBRANCH   6  11
BRANCH   8  22
HETATM   22  C   UNL     1     -44.186  56.822 -54.703  1.00  0.00     0.409 C 
HETATM   23  F   UNL     1     -43.743  56.093 -55.744  1.00  0.00    -0.169 F 
HETATM   24  F   UNL     1     -44.188  56.013 -53.617  1.00  0.00    -0.169 F 
HETATM   25  F   UNL     1     -45.488  57.119 -54.949  1.00  0.00    -0.169 F 
ENDBRANCH   8  22
BRANCH   1  26
HETATM   26  C   UNL     1     -40.829  55.984 -53.677  1.00  0.00    -0.035 A 
HETATM   27  C   UNL     1     -40.455  55.180 -54.764  1.00  0.00     0.012 A 
HETATM   28  C   UNL     1     -40.320  53.793 -54.628  1.00  0.00     0.037 A 
HETATM   29  C   UNL     1     -40.576  53.179 -53.405  1.00  0.00     0.068 A 
HETATM   30  C   UNL     1     -40.989  53.961 -52.327  1.00  0.00     0.037 A 
HETATM   31  C   UNL     1     -41.105  55.348 -52.456  1.00  0.00     0.012 A 
BRANCH  29  32
HETATM   32  O   UNL     1     -40.478  51.840 -53.146  1.00  0.00    -0.356 OA
HETATM   33  C   UNL     1     -40.079  51.018 -54.236  1.00  0.00     0.210 C 
ENDBRANCH  29  32
ENDBRANCH   1  26
TORSDOF 6
ENDMDL
MODEL 7
REMARK VINA RESULT:      -7.7      3.829      8.942
REMARK  6 active torsions:
REMARK  status: ('A' for Active; 'I' for Inactive)
REMARK    1  A    between atoms: O_2  and  C_3 
REMARK    2  A    between atoms: C_6  and  C_7 
REMARK    3  A    between atoms: C_12  and  C_13 
REMARK       I    between atoms: C_13  and  N_14 
REMARK    4  A    between atoms: N_14  and  C_15 
REMARK    5  A    between atoms: C_15  and  C_16 
REMARK    6  A    between atoms: C_24  and  C_25 
ROOT
HETATM    1  C   UNL     1     -42.705  59.794 -54.728  1.00  0.00     0.118 C 
HETATM    2  N   UNL     1     -41.700  58.768 -54.485  1.00  0.00    -0.366 N 
HETATM    3  C   UNL     1     -41.707  58.001 -53.376  1.00  0.00     0.123 A 
HETATM    4  N   UNL     1     -42.578  58.225 -52.347  1.00  0.00    -0.240 N 
HETATM    5  N   UNL     1     -42.427  57.377 -51.312  1.00  0.00    -0.165 NA
HETATM    6  C   UNL     1     -41.437  56.549 -51.722  1.00  0.00     0.148 A 
HETATM    7  C   UNL     1     -40.953  56.922 -53.005  1.00  0.00     0.088 A 
HETATM    8  C   UNL     1     -43.560  59.292 -52.321  1.00  0.00     0.221 C 
HETATM    9  C   UNL     1     -43.259  60.348 -53.404  1.00  0.00     0.066 C 
HETATM   10  H   UNL     1     -41.156  58.493 -55.303  1.00  0.00     0.161 HD
ENDROOT
BRANCH   6  11
HETATM   11  C   UNL     1     -40.970  55.414 -50.913  1.00  0.00     0.272 C 
HETATM   12  N   UNL     1     -40.584  54.330 -51.662  1.00  0.00    -0.351 N 
HETATM   13  H   UNL     1     -40.677  54.419 -52.670  1.00  0.00     0.163 HD
HETATM   14  O   UNL     1     -40.914  55.457 -49.688  1.00  0.00    -0.266 OA
BRANCH  12  15
HETATM   15  C   UNL     1     -40.035  53.130 -51.084  1.00  0.00     0.161 C 
BRANCH  15  16
HETATM   16  C   UNL     1     -39.982  51.981 -52.061  1.00  0.00    -0.041 A 
HETATM   17  C   UNL     1     -40.234  52.163 -53.430  1.00  0.00     0.009 A 
HETATM   18  C   UNL     1     -40.132  51.095 -54.323  1.00  0.00     0.001 A 
HETATM   19  C   UNL     1     -39.757  49.834 -53.863  1.00  0.00     0.000 A 
HETATM   20  C   UNL     1     -39.484  49.642 -52.511  1.00  0.00     0.001 A 
HETATM   21  C   UNL     1     -39.591  50.709 -51.616  1.00  0.00     0.009 A 
ENDBRANCH  15  16
ENDBRANCH  12  15
ENDBRANCH   6  11
BRANCH   8  22
HETATM   22  C   UNL     1     -44.962  58.728 -52.385  1.00  0.00     0.409 C 
HETATM   23  F   UNL     1     -45.085  57.657 -53.191  1.00  0.00    -0.169 F 
HETATM   24  F   UNL     1     -45.418  58.366 -51.162  1.00  0.00    -0.169 F 
HETATM   25  F   UNL     1     -45.825  59.672 -52.841  1.00  0.00    -0.169 F 
ENDBRANCH   8  22
BRANCH   1  26
HETATM   26  C   UNL     1     -43.758  59.356 -55.729  1.00  0.00    -0.035 A 
HETATM   27  C   UNL     1     -44.942  60.072 -55.959  1.00  0.00     0.012 A 
HETATM   28  C   UNL     1     -45.876  59.644 -56.911  1.00  0.00     0.037 A 
HETATM   29  C   UNL     1     -45.652  58.478 -57.639  1.00  0.00     0.068 A 
HETATM   30  C   UNL     1     -44.500  57.734 -57.392  1.00  0.00     0.037 A 
HETATM   31  C   UNL     1     -43.558  58.171 -56.456  1.00  0.00     0.012 A 
BRANCH  29  32
HETATM   32  O   UNL     1     -46.484  57.960 -58.594  1.00  0.00    -0.356 OA
HETATM   33  C   UNL     1     -45.868  57.560 -59.812  1.00  0.00     0.210 C 
ENDBRANCH  29  32
ENDBRANCH   1  26
TORSDOF 6
ENDMDL
MODEL 8
REMARK VINA RESULT:      -7.7      3.330      4.390
REMARK  6 active torsions:
REMARK  status: ('A' for Active; 'I' for Inactive)
REMARK    1  A    between atoms: O_2  and  C_3 
REMARK    2  A    between atoms: C_6  and  C_7 
REMARK    3  A    between atoms: C_12  and  C_13 
REMARK       I    between atoms: C_13  and  N_14 
REMARK    4  A    between atoms: N_14  and  C_15 
REMARK    5  A    between atoms: C_15  and  C_16 
REMARK    6  A    between atoms: C_24  and  C_25 
ROOT
HETATM    1  C   UNL     1     -43.461  55.983 -52.024  1.00  0.00     0.118 C 
HETATM    2  N   UNL     1     -44.384  56.194 -53.131  1.00  0.00    -0.366 N 
HETATM    3  C   UNL     1     -44.271  57.239 -53.974  1.00  0.00     0.123 A 
HETATM    4  N   UNL     1     -43.364  58.242 -53.767  1.00  0.00    -0.240 N 
HETATM    5  N   UNL     1     -43.407  59.215 -54.697  1.00  0.00    -0.165 NA
HETATM    6  C   UNL     1     -44.360  58.789 -55.558  1.00  0.00     0.148 A 
HETATM    7  C   UNL     1     -44.932  57.562 -55.127  1.00  0.00     0.088 A 
HETATM    8  C   UNL     1     -42.453  58.303 -52.640  1.00  0.00     0.221 C 
HETATM    9  C   UNL     1     -42.877  57.318 -51.531  1.00  0.00     0.066 C 
HETATM   10  H   UNL     1     -44.950  55.383 -53.382  1.00  0.00     0.161 HD
ENDROOT
BRANCH   6  11
HETATM   11  C   UNL     1     -44.711  59.530 -56.778  1.00  0.00     0.272 C 
HETATM   12  N   UNL     1     -45.742  58.963 -57.486  1.00  0.00    -0.351 N 
HETATM   13  H   UNL     1     -46.132  58.104 -57.109  1.00  0.00     0.163 HD
HETATM   14  O   UNL     1     -44.143  60.567 -57.106  1.00  0.00    -0.266 OA
BRANCH  12  15
HETATM   15  C   UNL     1     -46.293  59.551 -58.680  1.00  0.00     0.161 C 
BRANCH  15  16
HETATM   16  C   UNL     1     -46.844  58.522 -59.638  1.00  0.00    -0.041 A 
HETATM   17  C   UNL     1     -47.566  58.893 -60.784  1.00  0.00     0.009 A 
HETATM   18  C   UNL     1     -48.024  57.927 -61.682  1.00  0.00     0.001 A 
HETATM   19  C   UNL     1     -47.751  56.579 -61.457  1.00  0.00     0.000 A 
HETATM   20  C   UNL     1     -47.019  56.198 -60.335  1.00  0.00     0.001 A 
HETATM   21  C   UNL     1     -46.565  57.163 -59.434  1.00  0.00     0.009 A 
ENDBRANCH  15  16
ENDBRANCH  12  15
ENDBRANCH   6  11
BRANCH   8  22
HETATM   22  C   UNL     1     -41.023  58.131 -53.101  1.00  0.00     0.409 C 
HETATM   23  F   UNL     1     -40.871  57.238 -54.096  1.00  0.00    -0.169 F 
HETATM   24  F   UNL     1     -40.484  59.300 -53.523  1.00  0.00    -0.169 F 
HETATM   25  F   UNL     1     -40.246  57.714 -52.067  1.00  0.00    -0.169 F 
ENDBRANCH   8  22
BRANCH   1  26
HETATM   26  C   UNL     1     -42.434  54.904 -52.315  1.00  0.00    -0.035 A 
HETATM   27  C   UNL     1     -42.394  54.188 -53.520  1.00  0.00     0.012 A 
HETATM   28  C   UNL     1     -41.413  53.217 -53.756  1.00  0.00     0.037 A 
HETATM   29  C   UNL     1     -40.461  52.931 -52.782  1.00  0.00     0.068 A 
HETATM   30  C   UNL     1     -40.512  53.605 -51.563  1.00  0.00     0.037 A 
HETATM   31  C   UNL     1     -41.480  54.588 -51.334  1.00  0.00     0.012 A 
BRANCH  29  32
HETATM   32  O   UNL     1     -39.454  52.011 -52.894  1.00  0.00    -0.356 OA
HETATM   33  C   UNL     1     -39.669  50.955 -53.822  1.00  0.00     0.210 C 
ENDBRANCH  29  32
ENDBRANCH   1  26
TORSDOF 6
ENDMDL
MODEL 9
REMARK VINA RESULT:      -7.6     16.517     20.219
REMARK  6 active torsions:
REMARK  status: ('A' for Active; 'I' for Inactive)
REMARK    1  A    between atoms: O_2  and  C_3 
REMARK    2  A    between atoms: C_6  and  C_7 
REMARK    3  A    between atoms: C_12  and  C_13 
REMARK       I    between atoms: C_13  and  N_14 
REMARK    4  A    between atoms: N_14  and  C_15 
REMARK    5  A    between atoms: C_15  and  C_16 
REMARK    6  A    between atoms: C_24  and  C_25 
ROOT
HETATM    1  C   UNL     1     -34.903  42.120 -56.132  1.00  0.00     0.118 C 
HETATM    2  N   UNL     1     -33.893  41.281 -55.500  1.00  0.00    -0.366 N 
HETATM    3  C   UNL     1     -34.116  40.639 -54.336  1.00  0.00     0.123 A 
HETATM    4  N   UNL     1     -35.255  40.838 -53.606  1.00  0.00    -0.240 N 
HETATM    5  N   UNL     1     -35.297  40.131 -52.460  1.00  0.00    -0.165 NA
HETATM    6  C   UNL     1     -34.147  39.418 -52.486  1.00  0.00     0.148 A 
HETATM    7  C   UNL     1     -33.376  39.723 -53.640  1.00  0.00     0.088 A 
HETATM    8  C   UNL     1     -36.319  41.749 -53.980  1.00  0.00     0.221 C 
HETATM    9  C   UNL     1     -35.855  42.721 -55.083  1.00  0.00     0.066 C 
HETATM   10  H   UNL     1     -33.120  41.005 -56.106  1.00  0.00     0.161 HD
ENDROOT
BRANCH   6  11
HETATM   11  C   UNL     1     -33.793  38.451 -51.436  1.00  0.00     0.272 C 
HETATM   12  N   UNL     1     -34.211  38.825 -50.183  1.00  0.00    -0.351 N 
HETATM   13  H   UNL     1     -34.693  39.717 -50.113  1.00  0.00     0.163 HD
HETATM   14  O   UNL     1     -33.202  37.403 -51.677  1.00  0.00    -0.266 OA
BRANCH  12  15
HETATM   15  C   UNL     1     -34.028  38.003 -49.015  1.00  0.00     0.161 C 
BRANCH  15  16
HETATM   16  C   UNL     1     -32.892  38.475 -48.139  1.00  0.00    -0.041 A 
HETATM   17  C   UNL     1     -32.036  39.514 -48.536  1.00  0.00     0.009 A 
HETATM   18  C   UNL     1     -31.022  39.966 -47.689  1.00  0.00     0.001 A 
HETATM   19  C   UNL     1     -30.861  39.398 -46.427  1.00  0.00     0.000 A 
HETATM   20  C   UNL     1     -31.715  38.379 -46.011  1.00  0.00     0.001 A 
HETATM   21  C   UNL     1     -32.727  37.923 -46.860  1.00  0.00     0.009 A 
ENDBRANCH  15  16
ENDBRANCH  12  15
ENDBRANCH   6  11
BRANCH   8  22
HETATM   22  C   UNL     1     -37.579  40.984 -54.323  1.00  0.00     0.409 C 
HETATM   23  F   UNL     1     -38.397  40.778 -53.275  1.00  0.00    -0.169 F 
HETATM   24  F   UNL     1     -38.303  41.609 -55.282  1.00  0.00    -0.169 F 
HETATM   25  F   UNL     1     -37.261  39.765 -54.829  1.00  0.00    -0.169 F 
ENDBRANCH   8  22
BRANCH   1  26
HETATM   26  C   UNL     1     -35.588  41.435 -57.300  1.00  0.00    -0.035 A 
HETATM   27  C   UNL     1     -35.360  40.094 -57.643  1.00  0.00     0.012 A 
HETATM   28  C   UNL     1     -36.033  39.494 -58.714  1.00  0.00     0.037 A 
HETATM   29  C   UNL     1     -36.936  40.230 -59.477  1.00  0.00     0.068 A 
HETATM   30  C   UNL     1     -37.142  41.575 -59.173  1.00  0.00     0.037 A 
HETATM   31  C   UNL     1     -36.485  42.169 -58.092  1.00  0.00     0.012 A 
BRANCH  29  32
HETATM   32  O   UNL     1     -37.654  39.759 -60.540  1.00  0.00    -0.356 OA
HETATM   33  C   UNL     1     -36.936  38.974 -61.485  1.00  0.00     0.210 C 
ENDBRANCH  29  32
ENDBRANCH   1  26
TORSDOF 6
ENDMDL
MODEL 10
REMARK VINA RESULT:      -7.6      4.800      6.691
REMARK  6 active torsions:
REMARK  status: ('A' for Active; 'I' for Inactive)
REMARK    1  A    between atoms: O_2  and  C_3 
REMARK    2  A    between atoms: C_6  and  C_7 
REMARK    3  A    between atoms: C_12  and  C_13 
REMARK       I    between atoms: C_13  and  N_14 
REMARK    4  A    between atoms: N_14  and  C_15 
REMARK    5  A    between atoms: C_15  and  C_16 
REMARK    6  A    between atoms: C_24  and  C_25 
ROOT
HETATM    1  C   UNL     1     -40.657  55.756 -54.125  1.00  0.00     0.118 C 
HETATM    2  N   UNL     1     -40.944  56.726 -53.076  1.00  0.00    -0.366 N 
HETATM    3  C   UNL     1     -42.195  57.151 -52.812  1.00  0.00     0.123 A 
HETATM    4  N   UNL     1     -43.260  56.802 -53.595  1.00  0.00    -0.240 N 
HETATM    5  N   UNL     1     -44.429  57.337 -53.194  1.00  0.00    -0.165 NA
HETATM    6  C   UNL     1     -44.096  58.027 -52.078  1.00  0.00     0.148 A 
HETATM    7  C   UNL     1     -42.702  57.944 -51.819  1.00  0.00     0.088 A 
HETATM    8  C   UNL     1     -43.168  55.968 -54.778  1.00  0.00     0.221 C 
HETATM    9  C   UNL     1     -41.706  55.832 -55.248  1.00  0.00     0.066 C 
HETATM   10  H   UNL     1     -40.194  56.864 -52.399  1.00  0.00     0.161 HD
ENDROOT
BRANCH   6  11
HETATM   11  C   UNL     1     -45.091  58.741 -51.265  1.00  0.00     0.272 C 
HETATM   12  N   UNL     1     -45.309  60.033 -51.676  1.00  0.00    -0.351 N 
HETATM   13  H   UNL     1     -44.761  60.355 -52.469  1.00  0.00     0.163 HD
HETATM   14  O   UNL     1     -45.677  58.212 -50.326  1.00  0.00    -0.266 OA
BRANCH  12  15
HETATM   15  C   UNL     1     -46.284  60.898 -51.065  1.00  0.00     0.161 C 
BRANCH  15  16
HETATM   16  C   UNL     1     -45.675  61.856 -50.069  1.00  0.00    -0.041 A 
HETATM   17  C   UNL     1     -45.509  61.511 -48.719  1.00  0.00     0.009 A 
HETATM   18  C   UNL     1     -44.900  62.394 -47.826  1.00  0.00     0.001 A 
HETATM   19  C   UNL     1     -44.430  63.627 -48.275  1.00  0.00     0.000 A 
HETATM   20  C   UNL     1     -44.570  63.976 -49.616  1.00  0.00     0.001 A 
HETATM   21  C   UNL     1     -45.184  63.095 -50.509  1.00  0.00     0.009 A 
ENDBRANCH  15  16
ENDBRANCH  12  15
ENDBRANCH   6  11
BRANCH   8  22
HETATM   22  C   UNL     1     -43.867  54.645 -54.553  1.00  0.00     0.409 C 
HETATM   23  F   UNL     1     -43.620  53.727 -55.505  1.00  0.00    -0.169 F 
HETATM   24  F   UNL     1     -43.531  54.092 -53.363  1.00  0.00    -0.169 F 
HETATM   25  F   UNL     1     -45.212  54.828 -54.514  1.00  0.00    -0.169 F 
ENDBRANCH   8  22
BRANCH   1  26
HETATM   26  C   UNL     1     -40.403  54.363 -53.580  1.00  0.00    -0.035 A 
HETATM   27  C   UNL     1     -40.183  53.247 -54.401  1.00  0.00     0.012 A 
HETATM   28  C   UNL     1     -39.928  51.983 -53.855  1.00  0.00     0.037 A 
HETATM   29  C   UNL     1     -39.906  51.806 -52.474  1.00  0.00     0.068 A 
HETATM   30  C   UNL     1     -40.164  52.898 -51.646  1.00  0.00     0.037 A 
HETATM   31  C   UNL     1     -40.399  54.164 -52.190  1.00  0.00     0.012 A 
BRANCH  29  32
HETATM   32  O   UNL     1     -39.667  50.628 -51.822  1.00  0.00    -0.356 OA
HETATM   33  C   UNL     1     -39.597  49.463 -52.636  1.00  0.00     0.210 C 
ENDBRANCH  29  32
ENDBRANCH   1  26
TORSDOF 6
ENDMDL
