MODEL 1
REMARK VINA RESULT:      -7.7      0.000      0.000
REMARK  7 active torsions:
REMARK  status: ('A' for Active; 'I' for Inactive)
REMARK    1  A    between atoms: C_2  and  C_3 
REMARK    2  A    between atoms: C_3  and  O_4 
REMARK    3  A    between atoms: O_4  and  C_5 
REMARK    4  A    between atoms: C_8  and  C_9 
REMARK    5  A    between atoms: C_9  and  C_10 
REMARK       I    between atoms: C_10  and  N_11 
REMARK    6  A    between atoms: N_11  and  C_12 
REMARK    7  A    between atoms: C_19  and  C_20 
REMARK       I    between atoms: C_20  and  N_21 
ROOT
HETATM    1  C   UNL     1     -42.375  55.795 -55.609  1.00  0.00     0.226 C 
HETATM    2  N   UNL     1     -41.146  55.233 -55.314  1.00  0.00    -0.327 N 
HETATM    3  O   UNL     1     -43.437  55.525 -55.051  1.00  0.00    -0.273 OA
HETATM    4  H   UNL     1     -40.358  55.551 -55.865  1.00  0.00     0.169 HD
ENDROOT
BRANCH   2   5
HETATM    5  C   UNL     1     -40.829  54.310 -54.295  1.00  0.00     0.035 A 
HETATM    6  C   UNL     1     -41.040  54.542 -52.930  1.00  0.00     0.046 A 
HETATM    7  C   UNL     1     -40.672  53.553 -51.991  1.00  0.00     0.030 A 
HETATM    8  C   UNL     1     -40.106  52.370 -52.449  1.00  0.00     0.063 A 
HETATM    9  C   UNL     1     -40.718  53.412 -50.571  1.00  0.00     0.156 A 
HETATM   10  N   UNL     1     -39.856  51.628 -51.328  1.00  0.00    -0.277 N 
HETATM   11  C   UNL     1     -39.884  52.102 -53.800  1.00  0.00     0.034 A 
HETATM   12  H   UNL     1     -39.441  50.704 -51.285  1.00  0.00     0.189 HD
HETATM   13  N   UNL     1     -40.212  52.220 -50.178  1.00  0.00    -0.168 NA
HETATM   14  C   UNL     1     -40.258  53.098 -54.711  1.00  0.00     0.032 A 
BRANCH   9  15
HETATM   15  C   UNL     1     -41.229  54.378 -49.588  1.00  0.00     0.270 C 
HETATM   16  N   UNL     1     -40.627  54.299 -48.362  1.00  0.00    -0.365 N 
HETATM   17  H   UNL     1     -39.899  53.606 -48.224  1.00  0.00     0.159 HD
HETATM   18  H   UNL     1     -40.912  54.922 -47.625  1.00  0.00     0.159 HD
HETATM   19  O   UNL     1     -42.114  55.198 -49.807  1.00  0.00    -0.266 OA
ENDBRANCH   9  15
ENDBRANCH   2   5
BRANCH   1  20
HETATM   20  C   UNL     1     -42.377  56.793 -56.769  1.00  0.00     0.141 C 
BRANCH  20  21
HETATM   21  C   UNL     1     -43.384  56.534 -57.867  1.00  0.00    -0.049 A 
HETATM   22  C   UNL     1     -43.464  55.276 -58.479  1.00  0.00     0.010 A 
HETATM   23  C   UNL     1     -44.331  55.062 -59.556  1.00  0.00     0.037 A 
HETATM   24  C   UNL     1     -45.124  56.104 -60.035  1.00  0.00     0.068 A 
HETATM   25  C   UNL     1     -45.067  57.350 -59.406  1.00  0.00     0.037 A 
HETATM   26  C   UNL     1     -44.207  57.568 -58.330  1.00  0.00     0.010 A 
BRANCH  24  27
HETATM   27  O   UNL     1     -45.982  56.039 -61.096  1.00  0.00    -0.351 OA
BRANCH  27  28
HETATM   28  C   UNL     1     -47.359  56.319 -60.840  1.00  0.00     0.179 C 
BRANCH  28  29
HETATM   29  C   UNL     1     -47.872  57.368 -61.841  1.00  0.00     0.002 C 
HETATM   30  C   UNL     1     -47.949  58.754 -61.198  1.00  0.00     0.011 C 
HETATM   31  C   UNL     1     -49.238  56.978 -62.408  1.00  0.00     0.011 C 
ENDBRANCH  28  29
ENDBRANCH  27  28
ENDBRANCH  24  27
ENDBRANCH  20  21
ENDBRANCH   1  20
TORSDOF 7
ENDMDL
MODEL 2
REMARK VINA RESULT:      -7.7      1.590      2.604
REMARK  7 active torsions:
REMARK  status: ('A' for Active; 'I' for Inactive)
REMARK    1  A    between atoms: C_2  and  C_3 
REMARK    2  A    between atoms: C_3  and  O_4 
REMARK    3  A    between atoms: O_4  and  C_5 
REMARK    4  A    between atoms: C_8  and  C_9 
REMARK    5  A    between atoms: C_9  and  C_10 
REMARK       I    between atoms: C_10  and  N_11 
REMARK    6  A    between atoms: N_11  and  C_12 
REMARK    7  A    between atoms: C_19  and  C_20 
REMARK       I    between atoms: C_20  and  N_21 
ROOT
HETATM    1  C   UNL     1     -42.403  55.470 -56.247  1.00  0.00     0.226 C 
HETATM    2  N   UNL     1     -41.183  55.270 -55.628  1.00  0.00    -0.327 N 
HETATM    3  O   UNL     1     -43.481  55.021 -55.863  1.00  0.00    -0.273 OA
HETATM    4  H   UNL     1     -40.376  55.698 -56.066  1.00  0.00     0.169 HD
ENDROOT
BRANCH   2   5
HETATM    5  C   UNL     1     -40.916  54.593 -54.419  1.00  0.00     0.035 A 
HETATM    6  C   UNL     1     -40.518  53.252 -54.339  1.00  0.00     0.046 A 
HETATM    7  C   UNL     1     -40.291  52.668 -53.074  1.00  0.00     0.030 A 
HETATM    8  C   UNL     1     -40.469  53.442 -51.934  1.00  0.00     0.063 A 
HETATM    9  C   UNL     1     -39.894  51.385 -52.587  1.00  0.00     0.156 A 
HETATM   10  N   UNL     1     -40.186  52.615 -50.884  1.00  0.00    -0.277 N 
HETATM   11  C   UNL     1     -40.861  54.781 -51.975  1.00  0.00     0.034 A 
HETATM   12  H   UNL     1     -40.216  52.846 -49.897  1.00  0.00     0.189 HD
HETATM   13  N   UNL     1     -39.834  51.369 -51.235  1.00  0.00    -0.168 NA
HETATM   14  C   UNL     1     -41.080  55.337 -53.241  1.00  0.00     0.032 A 
BRANCH   9  15
HETATM   15  C   UNL     1     -39.574  50.185 -53.373  1.00  0.00     0.270 C 
HETATM   16  N   UNL     1     -39.363  49.063 -52.618  1.00  0.00    -0.365 N 
HETATM   17  H   UNL     1     -39.440  49.137 -51.610  1.00  0.00     0.159 HD
HETATM   18  H   UNL     1     -39.139  48.193 -53.070  1.00  0.00     0.159 HD
HETATM   19  O   UNL     1     -39.493  50.150 -54.596  1.00  0.00    -0.266 OA
ENDBRANCH   9  15
ENDBRANCH   2   5
BRANCH   1  20
HETATM   20  C   UNL     1     -42.353  56.277 -57.546  1.00  0.00     0.141 C 
BRANCH  20  21
HETATM   21  C   UNL     1     -43.518  56.088 -58.491  1.00  0.00    -0.049 A 
HETATM   22  C   UNL     1     -43.615  54.934 -59.281  1.00  0.00     0.010 A 
HETATM   23  C   UNL     1     -44.642  54.799 -60.221  1.00  0.00     0.037 A 
HETATM   24  C   UNL     1     -45.579  55.818 -60.387  1.00  0.00     0.068 A 
HETATM   25  C   UNL     1     -45.501  56.955 -59.580  1.00  0.00     0.037 A 
HETATM   26  C   UNL     1     -44.481  57.094 -58.638  1.00  0.00     0.010 A 
BRANCH  24  27
HETATM   27  O   UNL     1     -46.604  55.829 -61.289  1.00  0.00    -0.351 OA
BRANCH  27  28
HETATM   28  C   UNL     1     -47.775  56.567 -60.939  1.00  0.00     0.179 C 
BRANCH  28  29
HETATM   29  C   UNL     1     -48.084  57.604 -62.031  1.00  0.00     0.002 C 
HETATM   30  C   UNL     1     -47.850  59.028 -61.523  1.00  0.00     0.011 C 
HETATM   31  C   UNL     1     -49.516  57.462 -62.548  1.00  0.00     0.011 C 
ENDBRANCH  28  29
ENDBRANCH  27  28
ENDBRANCH  24  27
ENDBRANCH  20  21
ENDBRANCH   1  20
TORSDOF 7
ENDMDL
MODEL 3
REMARK VINA RESULT:      -7.6      3.606      5.118
REMARK  7 active torsions:
REMARK  status: ('A' for Active; 'I' for Inactive)
REMARK    1  A    between atoms: C_2  and  C_3 
REMARK    2  A    between atoms: C_3  and  O_4 
REMARK    3  A    between atoms: O_4  and  C_5 
REMARK    4  A    between atoms: C_8  and  C_9 
REMARK    5  A    between atoms: C_9  and  C_10 
REMARK       I    between atoms: C_10  and  N_11 
REMARK    6  A    between atoms: N_11  and  C_12 
REMARK    7  A    between atoms: C_19  and  C_20 
REMARK       I    between atoms: C_20  and  N_21 
ROOT
HETATM    1  C   UNL     1     -42.765  55.652 -56.329  1.00  0.00     0.226 C 
HETATM    2  N   UNL     1     -41.607  54.945 -56.057  1.00  0.00    -0.327 N 
HETATM    3  O   UNL     1     -43.662  55.891 -55.523  1.00  0.00    -0.273 OA
HETATM    4  H   UNL     1     -40.960  54.821 -56.826  1.00  0.00     0.169 HD
ENDROOT
BRANCH   2   5
HETATM    5  C   UNL     1     -41.173  54.420 -54.822  1.00  0.00     0.035 A 
HETATM    6  C   UNL     1     -40.749  53.098 -54.635  1.00  0.00     0.046 A 
HETATM    7  C   UNL     1     -40.348  52.671 -53.349  1.00  0.00     0.030 A 
HETATM    8  C   UNL     1     -40.385  53.579 -52.298  1.00  0.00     0.063 A 
HETATM    9  C   UNL     1     -39.872  51.456 -52.768  1.00  0.00     0.156 A 
HETATM   10  N   UNL     1     -39.953  52.885 -51.203  1.00  0.00    -0.277 N 
HETATM   11  C   UNL     1     -40.797  54.904 -52.448  1.00  0.00     0.034 A 
HETATM   12  H   UNL     1     -39.855  53.234 -50.256  1.00  0.00     0.189 HD
HETATM   13  N   UNL     1     -39.633  51.604 -51.445  1.00  0.00    -0.168 NA
HETATM   14  C   UNL     1     -41.190  55.302 -53.731  1.00  0.00     0.032 A 
BRANCH   9  15
HETATM   15  C   UNL     1     -39.641  50.169 -53.439  1.00  0.00     0.270 C 
HETATM   16  N   UNL     1     -39.449  49.120 -52.582  1.00  0.00    -0.365 N 
HETATM   17  H   UNL     1     -39.478  49.298 -51.585  1.00  0.00     0.159 HD
HETATM   18  H   UNL     1     -39.285  48.198 -52.952  1.00  0.00     0.159 HD
HETATM   19  O   UNL     1     -39.616  50.007 -54.654  1.00  0.00    -0.266 OA
ENDBRANCH   9  15
ENDBRANCH   2   5
BRANCH   1  20
HETATM   20  C   UNL     1     -42.927  56.110 -57.780  1.00  0.00     0.141 C 
BRANCH  20  21
HETATM   21  C   UNL     1     -42.500  57.528 -58.081  1.00  0.00    -0.049 A 
HETATM   22  C   UNL     1     -42.278  58.442 -57.042  1.00  0.00     0.010 A 
HETATM   23  C   UNL     1     -41.973  59.778 -57.322  1.00  0.00     0.037 A 
HETATM   24  C   UNL     1     -41.891  60.217 -58.643  1.00  0.00     0.068 A 
HETATM   25  C   UNL     1     -42.082  59.301 -59.679  1.00  0.00     0.037 A 
HETATM   26  C   UNL     1     -42.384  57.966 -59.406  1.00  0.00     0.010 A 
BRANCH  24  27
HETATM   27  O   UNL     1     -41.637  61.495 -59.051  1.00  0.00    -0.351 OA
BRANCH  27  28
HETATM   28  C   UNL     1     -41.385  61.699 -60.442  1.00  0.00     0.179 C 
BRANCH  28  29
HETATM   29  C   UNL     1     -40.453  62.907 -60.631  1.00  0.00     0.002 C 
HETATM   30  C   UNL     1     -39.753  62.858 -61.991  1.00  0.00     0.011 C 
HETATM   31  C   UNL     1     -39.416  62.994 -59.511  1.00  0.00     0.011 C 
ENDBRANCH  28  29
ENDBRANCH  27  28
ENDBRANCH  24  27
ENDBRANCH  20  21
ENDBRANCH   1  20
TORSDOF 7
ENDMDL
MODEL 4
REMARK VINA RESULT:      -7.6      3.449      9.082
REMARK  7 active torsions:
REMARK  status: ('A' for Active; 'I' for Inactive)
REMARK    1  A    between atoms: C_2  and  C_3 
REMARK    2  A    between atoms: C_3  and  O_4 
REMARK    3  A    between atoms: O_4  and  C_5 
REMARK    4  A    between atoms: C_8  and  C_9 
REMARK    5  A    between atoms: C_9  and  C_10 
REMARK       I    between atoms: C_10  and  N_11 
REMARK    6  A    between atoms: N_11  and  C_12 
REMARK    7  A    between atoms: C_19  and  C_20 
REMARK       I    between atoms: C_20  and  N_21 
ROOT
HETATM    1  C   UNL     1     -43.876  57.905 -53.920  1.00  0.00     0.226 C 
HETATM    2  N   UNL     1     -42.838  57.543 -54.760  1.00  0.00    -0.327 N 
HETATM    3  O   UNL     1     -44.944  58.399 -54.275  1.00  0.00    -0.273 OA
HETATM    4  H   UNL     1     -42.014  57.153 -54.320  1.00  0.00     0.169 HD
ENDROOT
BRANCH   2   5
HETATM    5  C   UNL     1     -42.797  57.590 -56.169  1.00  0.00     0.035 A 
HETATM    6  C   UNL     1     -43.480  56.696 -57.006  1.00  0.00     0.046 A 
HETATM    7  C   UNL     1     -43.358  56.824 -58.407  1.00  0.00     0.030 A 
HETATM    8  C   UNL     1     -42.560  57.837 -58.922  1.00  0.00     0.063 A 
HETATM    9  C   UNL     1     -43.870  56.141 -59.553  1.00  0.00     0.156 A 
HETATM   10  N   UNL     1     -42.635  57.705 -60.280  1.00  0.00    -0.277 N 
HETATM   11  C   UNL     1     -41.869  58.747 -58.121  1.00  0.00     0.034 A 
HETATM   12  H   UNL     1     -42.172  58.277 -60.978  1.00  0.00     0.189 HD
HETATM   13  N   UNL     1     -43.414  56.696 -60.700  1.00  0.00    -0.168 NA
HETATM   14  C   UNL     1     -42.006  58.600 -56.735  1.00  0.00     0.032 A 
BRANCH   9  15
HETATM   15  C   UNL     1     -44.774  54.983 -59.579  1.00  0.00     0.270 C 
HETATM   16  N   UNL     1     -46.050  55.281 -59.973  1.00  0.00    -0.365 N 
HETATM   17  H   UNL     1     -46.273  56.242 -60.208  1.00  0.00     0.159 HD
HETATM   18  H   UNL     1     -46.740  54.550 -60.022  1.00  0.00     0.159 HD
HETATM   19  O   UNL     1     -44.453  53.837 -59.284  1.00  0.00    -0.266 OA
ENDBRANCH   9  15
ENDBRANCH   2   5
BRANCH   1  20
HETATM   20  C   UNL     1     -43.609  57.705 -52.427  1.00  0.00     0.141 C 
BRANCH  20  21
HETATM   21  C   UNL     1     -42.915  56.418 -52.041  1.00  0.00    -0.049 A 
HETATM   22  C   UNL     1     -41.632  56.442 -51.476  1.00  0.00     0.010 A 
HETATM   23  C   UNL     1     -40.953  55.250 -51.204  1.00  0.00     0.037 A 
HETATM   24  C   UNL     1     -41.545  54.022 -51.499  1.00  0.00     0.068 A 
HETATM   25  C   UNL     1     -42.834  53.997 -52.033  1.00  0.00     0.037 A 
HETATM   26  C   UNL     1     -43.518  55.183 -52.304  1.00  0.00     0.010 A 
BRANCH  24  27
HETATM   27  O   UNL     1     -40.979  52.792 -51.317  1.00  0.00    -0.351 OA
BRANCH  27  28
HETATM   28  C   UNL     1     -39.853  52.464 -52.131  1.00  0.00     0.179 C 
BRANCH  28  29
HETATM   29  C   UNL     1     -40.330  51.998 -53.517  1.00  0.00     0.002 C 
HETATM   30  C   UNL     1     -39.598  50.728 -53.955  1.00  0.00     0.011 C 
HETATM   31  C   UNL     1     -40.151  53.095 -54.567  1.00  0.00     0.011 C 
ENDBRANCH  28  29
ENDBRANCH  27  28
ENDBRANCH  24  27
ENDBRANCH  20  21
ENDBRANCH   1  20
TORSDOF 7
ENDMDL
MODEL 5
REMARK VINA RESULT:      -7.5      3.519      9.954
REMARK  7 active torsions:
REMARK  status: ('A' for Active; 'I' for Inactive)
REMARK    1  A    between atoms: C_2  and  C_3 
REMARK    2  A    between atoms: C_3  and  O_4 
REMARK    3  A    between atoms: O_4  and  C_5 
REMARK    4  A    between atoms: C_8  and  C_9 
REMARK    5  A    between atoms: C_9  and  C_10 
REMARK       I    between atoms: C_10  and  N_11 
REMARK    6  A    between atoms: N_11  and  C_12 
REMARK    7  A    between atoms: C_19  and  C_20 
REMARK       I    between atoms: C_20  and  N_21 
ROOT
HETATM    1  C   UNL     1     -42.890  56.784 -56.075  1.00  0.00     0.226 C 
HETATM    2  N   UNL     1     -42.713  56.762 -57.446  1.00  0.00    -0.327 N 
HETATM    3  O   UNL     1     -43.970  56.708 -55.492  1.00  0.00    -0.273 OA
HETATM    4  H   UNL     1     -41.762  56.841 -57.782  1.00  0.00     0.169 HD
ENDROOT
BRANCH   2   5
HETATM    5  C   UNL     1     -43.687  56.580 -58.451  1.00  0.00     0.035 A 
HETATM    6  C   UNL     1     -44.747  57.465 -58.688  1.00  0.00     0.046 A 
HETATM    7  C   UNL     1     -45.677  57.179 -59.712  1.00  0.00     0.030 A 
HETATM    8  C   UNL     1     -45.515  56.021 -60.462  1.00  0.00     0.063 A 
HETATM    9  C   UNL     1     -46.847  57.801 -60.245  1.00  0.00     0.156 A 
HETATM   10  N   UNL     1     -46.550  56.017 -61.354  1.00  0.00    -0.277 N 
HETATM   11  C   UNL     1     -44.470  55.119 -60.257  1.00  0.00     0.034 A 
HETATM   12  H   UNL     1     -46.749  55.315 -62.058  1.00  0.00     0.189 HD
HETATM   13  N   UNL     1     -47.374  57.072 -61.256  1.00  0.00    -0.168 NA
HETATM   14  C   UNL     1     -43.562  55.425 -59.236  1.00  0.00     0.032 A 
BRANCH   9  15
HETATM   15  C   UNL     1     -47.469  59.061 -59.818  1.00  0.00     0.270 C 
HETATM   16  N   UNL     1     -47.978  59.809 -60.845  1.00  0.00    -0.365 N 
HETATM   17  H   UNL     1     -47.893  59.454 -61.791  1.00  0.00     0.159 HD
HETATM   18  H   UNL     1     -48.425  60.689 -60.647  1.00  0.00     0.159 HD
HETATM   19  O   UNL     1     -47.547  59.445 -58.656  1.00  0.00    -0.266 OA
ENDBRANCH   9  15
ENDBRANCH   2   5
BRANCH   1  20
HETATM   20  C   UNL     1     -41.614  56.975 -55.253  1.00  0.00     0.141 C 
BRANCH  20  21
HETATM   21  C   UNL     1     -41.176  55.791 -54.421  1.00  0.00    -0.049 A 
HETATM   22  C   UNL     1     -40.688  54.630 -55.035  1.00  0.00     0.010 A 
HETATM   23  C   UNL     1     -40.368  53.502 -54.271  1.00  0.00     0.037 A 
HETATM   24  C   UNL     1     -40.538  53.520 -52.887  1.00  0.00     0.068 A 
HETATM   25  C   UNL     1     -40.996  54.687 -52.272  1.00  0.00     0.037 A 
HETATM   26  C   UNL     1     -41.313  55.816 -53.028  1.00  0.00     0.010 A 
BRANCH  24  27
HETATM   27  O   UNL     1     -40.299  52.481 -52.034  1.00  0.00    -0.351 OA
BRANCH  27  28
HETATM   28  C   UNL     1     -39.275  51.556 -52.402  1.00  0.00     0.179 C 
BRANCH  28  29
HETATM   29  C   UNL     1     -39.910  50.247 -52.900  1.00  0.00     0.002 C 
HETATM   30  C   UNL     1     -39.574  49.080 -51.969  1.00  0.00     0.011 C 
HETATM   31  C   UNL     1     -39.469  49.920 -54.327  1.00  0.00     0.011 C 
ENDBRANCH  28  29
ENDBRANCH  27  28
ENDBRANCH  24  27
ENDBRANCH  20  21
ENDBRANCH   1  20
TORSDOF 7
ENDMDL
MODEL 6
REMARK VINA RESULT:      -7.4      3.557      9.561
REMARK  7 active torsions:
REMARK  status: ('A' for Active; 'I' for Inactive)
REMARK    1  A    between atoms: C_2  and  C_3 
REMARK    2  A    between atoms: C_3  and  O_4 
REMARK    3  A    between atoms: O_4  and  C_5 
REMARK    4  A    between atoms: C_8  and  C_9 
REMARK    5  A    between atoms: C_9  and  C_10 
REMARK       I    between atoms: C_10  and  N_11 
REMARK    6  A    between atoms: N_11  and  C_12 
REMARK    7  A    between atoms: C_19  and  C_20 
REMARK       I    between atoms: C_20  and  N_21 
ROOT
HETATM    1  C   UNL     1     -42.000  58.891 -54.996  1.00  0.00     0.226 C 
HETATM    2  N   UNL     1     -43.105  58.105 -55.270  1.00  0.00    -0.327 N 
HETATM    3  O   UNL     1     -41.593  59.820 -55.691  1.00  0.00    -0.273 OA
HETATM    4  H   UNL     1     -43.315  57.370 -54.607  1.00  0.00     0.169 HD
ENDROOT
BRANCH   2   5
HETATM    5  C   UNL     1     -44.027  58.232 -56.331  1.00  0.00     0.035 A 
HETATM    6  C   UNL     1     -44.113  57.341 -57.409  1.00  0.00     0.046 A 
HETATM    7  C   UNL     1     -45.065  57.571 -58.427  1.00  0.00     0.030 A 
HETATM    8  C   UNL     1     -45.894  58.681 -58.333  1.00  0.00     0.063 A 
HETATM    9  C   UNL     1     -45.451  56.926 -59.642  1.00  0.00     0.156 A 
HETATM   10  N   UNL     1     -46.687  58.638 -59.445  1.00  0.00    -0.277 N 
HETATM   11  C   UNL     1     -45.840  59.588 -57.273  1.00  0.00     0.034 A 
HETATM   12  H   UNL     1     -47.412  59.297 -59.707  1.00  0.00     0.189 HD
HETATM   13  N   UNL     1     -46.452  57.596 -60.258  1.00  0.00    -0.168 NA
HETATM   14  C   UNL     1     -44.888  59.338 -56.277  1.00  0.00     0.032 A 
BRANCH   9  15
HETATM   15  C   UNL     1     -44.894  55.697 -60.223  1.00  0.00     0.270 C 
HETATM   16  N   UNL     1     -45.131  54.571 -59.482  1.00  0.00    -0.365 N 
HETATM   17  H   UNL     1     -45.654  54.661 -58.618  1.00  0.00     0.159 HD
HETATM   18  H   UNL     1     -44.787  53.681 -59.803  1.00  0.00     0.159 HD
HETATM   19  O   UNL     1     -44.267  55.641 -61.276  1.00  0.00    -0.266 OA
ENDBRANCH   9  15
ENDBRANCH   2   5
BRANCH   1  20
HETATM   20  C   UNL     1     -41.216  58.501 -53.741  1.00  0.00     0.141 C 
BRANCH  20  21
HETATM   21  C   UNL     1     -41.127  57.021 -53.445  1.00  0.00    -0.049 A 
HETATM   22  C   UNL     1     -41.456  56.528 -52.176  1.00  0.00     0.010 A 
HETATM   23  C   UNL     1     -41.286  55.172 -51.874  1.00  0.00     0.037 A 
HETATM   24  C   UNL     1     -40.781  54.297 -52.834  1.00  0.00     0.068 A 
HETATM   25  C   UNL     1     -40.482  54.782 -54.109  1.00  0.00     0.037 A 
HETATM   26  C   UNL     1     -40.652  56.133 -54.417  1.00  0.00     0.010 A 
BRANCH  24  27
HETATM   27  O   UNL     1     -40.535  52.965 -52.659  1.00  0.00    -0.351 OA
BRANCH  27  28
HETATM   28  C   UNL     1     -40.458  52.155 -53.832  1.00  0.00     0.179 C 
BRANCH  28  29
HETATM   29  C   UNL     1     -39.501  50.977 -53.590  1.00  0.00     0.002 C 
HETATM   30  C   UNL     1     -39.870  49.775 -54.463  1.00  0.00     0.011 C 
HETATM   31  C   UNL     1     -39.480  50.567 -52.117  1.00  0.00     0.011 C 
ENDBRANCH  28  29
ENDBRANCH  27  28
ENDBRANCH  24  27
ENDBRANCH  20  21
ENDBRANCH   1  20
TORSDOF 7
ENDMDL
MODEL 7
REMARK VINA RESULT:      -7.4      3.509     10.108
REMARK  7 active torsions:
REMARK  status: ('A' for Active; 'I' for Inactive)
REMARK    1  A    between atoms: C_2  and  C_3 
REMARK    2  A    between atoms: C_3  and  O_4 
REMARK    3  A    between atoms: O_4  and  C_5 
REMARK    4  A    between atoms: C_8  and  C_9 
REMARK    5  A    between atoms: C_9  and  C_10 
REMARK       I    between atoms: C_10  and  N_11 
REMARK    6  A    between atoms: N_11  and  C_12 
REMARK    7  A    between atoms: C_19  and  C_20 
REMARK       I    between atoms: C_20  and  N_21 
ROOT
HETATM    1  C   UNL     1     -42.879  56.760 -55.333  1.00  0.00     0.226 C 
HETATM    2  N   UNL     1     -42.738  57.519 -56.480  1.00  0.00    -0.327 N 
HETATM    3  O   UNL     1     -43.893  56.147 -55.001  1.00  0.00    -0.273 OA
HETATM    4  H   UNL     1     -41.844  57.973 -56.617  1.00  0.00     0.169 HD
ENDROOT
BRANCH   2   5
HETATM    5  C   UNL     1     -43.664  57.698 -57.530  1.00  0.00     0.035 A 
HETATM    6  C   UNL     1     -43.979  56.714 -58.477  1.00  0.00     0.046 A 
HETATM    7  C   UNL     1     -44.912  57.005 -59.497  1.00  0.00     0.030 A 
HETATM    8  C   UNL     1     -45.496  58.265 -59.535  1.00  0.00     0.063 A 
HETATM    9  C   UNL     1     -45.477  56.305 -60.606  1.00  0.00     0.156 A 
HETATM   10  N   UNL     1     -46.333  58.246 -60.615  1.00  0.00    -0.277 N 
HETATM   11  C   UNL     1     -45.210  59.267 -58.607  1.00  0.00     0.034 A 
HETATM   12  H   UNL     1     -46.921  59.002 -60.947  1.00  0.00     0.189 HD
HETATM   13  N   UNL     1     -46.351  57.084 -61.286  1.00  0.00    -0.168 NA
HETATM   14  C   UNL     1     -44.282  58.955 -57.605  1.00  0.00     0.032 A 
BRANCH   9  15
HETATM   15  C   UNL     1     -45.207  54.924 -61.030  1.00  0.00     0.270 C 
HETATM   16  N   UNL     1     -45.326  53.999 -60.029  1.00  0.00    -0.365 N 
HETATM   17  H   UNL     1     -45.582  54.320 -59.102  1.00  0.00     0.159 HD
HETATM   18  H   UNL     1     -45.160  53.026 -60.226  1.00  0.00     0.159 HD
HETATM   19  O   UNL     1     -44.900  54.588 -62.169  1.00  0.00    -0.266 OA
ENDBRANCH   9  15
ENDBRANCH   2   5
BRANCH   1  20
HETATM   20  C   UNL     1     -41.667  56.753 -54.399  1.00  0.00     0.141 C 
BRANCH  20  21
HETATM   21  C   UNL     1     -41.106  55.394 -54.048  1.00  0.00    -0.049 A 
HETATM   22  C   UNL     1     -40.566  54.567 -55.043  1.00  0.00     0.010 A 
HETATM   23  C   UNL     1     -40.131  53.274 -54.734  1.00  0.00     0.037 A 
HETATM   24  C   UNL     1     -40.234  52.791 -53.430  1.00  0.00     0.068 A 
HETATM   25  C   UNL     1     -40.743  53.625 -52.433  1.00  0.00     0.037 A 
HETATM   26  C   UNL     1     -41.176  54.917 -52.734  1.00  0.00     0.010 A 
BRANCH  24  27
HETATM   27  O   UNL     1     -39.881  51.543 -53.005  1.00  0.00    -0.351 OA
BRANCH  27  28
HETATM   28  C   UNL     1     -39.001  51.459 -51.883  1.00  0.00     0.179 C 
BRANCH  28  29
HETATM   29  C   UNL     1     -39.334  50.210 -51.051  1.00  0.00     0.002 C 
HETATM   30  C   UNL     1     -39.813  49.063 -51.943  1.00  0.00     0.011 C 
HETATM   31  C   UNL     1     -40.383  50.514 -49.981  1.00  0.00     0.011 C 
ENDBRANCH  28  29
ENDBRANCH  27  28
ENDBRANCH  24  27
ENDBRANCH  20  21
ENDBRANCH   1  20
TORSDOF 7
ENDMDL
MODEL 8
REMARK VINA RESULT:      -7.3      3.788      9.515
REMARK  7 active torsions:
REMARK  status: ('A' for Active; 'I' for Inactive)
REMARK    1  A    between atoms: C_2  and  C_3 
REMARK    2  A    between atoms: C_3  and  O_4 
REMARK    3  A    between atoms: O_4  and  C_5 
REMARK    4  A    between atoms: C_8  and  C_9 
REMARK    5  A    between atoms: C_9  and  C_10 
REMARK       I    between atoms: C_10  and  N_11 
REMARK    6  A    between atoms: N_11  and  C_12 
REMARK    7  A    between atoms: C_19  and  C_20 
REMARK       I    between atoms: C_20  and  N_21 
ROOT
HETATM    1  C   UNL     1     -43.700  56.973 -53.931  1.00  0.00     0.226 C 
HETATM    2  N   UNL     1     -42.614  57.692 -54.397  1.00  0.00    -0.327 N 
HETATM    3  O   UNL     1     -44.794  56.891 -54.484  1.00  0.00    -0.273 OA
HETATM    4  H   UNL     1     -41.778  57.671 -53.827  1.00  0.00     0.169 HD
ENDROOT
BRANCH   2   5
HETATM    5  C   UNL     1     -42.495  58.410 -55.606  1.00  0.00     0.035 A 
HETATM    6  C   UNL     1     -42.639  57.838 -56.877  1.00  0.00     0.046 A 
HETATM    7  C   UNL     1     -42.484  58.647 -58.025  1.00  0.00     0.030 A 
HETATM    8  C   UNL     1     -42.192  59.995 -57.862  1.00  0.00     0.063 A 
HETATM    9  C   UNL     1     -42.548  58.453 -59.438  1.00  0.00     0.156 A 
HETATM   10  N   UNL     1     -42.099  60.503 -59.127  1.00  0.00    -0.277 N 
HETATM   11  C   UNL     1     -42.046  60.600 -56.612  1.00  0.00     0.034 A 
HETATM   12  H   UNL     1     -41.894  61.461 -59.390  1.00  0.00     0.189 HD
HETATM   13  N   UNL     1     -42.308  59.607 -60.104  1.00  0.00    -0.168 NA
HETATM   14  C   UNL     1     -42.204  59.777 -55.491  1.00  0.00     0.032 A 
BRANCH   9  15
HETATM   15  C   UNL     1     -42.829  57.206 -60.163  1.00  0.00     0.270 C 
HETATM   16  N   UNL     1     -44.111  57.110 -60.631  1.00  0.00    -0.365 N 
HETATM   17  H   UNL     1     -44.751  57.876 -60.452  1.00  0.00     0.159 HD
HETATM   18  H   UNL     1     -44.396  56.290 -61.141  1.00  0.00     0.159 HD
HETATM   19  O   UNL     1     -42.016  56.309 -60.354  1.00  0.00    -0.266 OA
ENDBRANCH   9  15
ENDBRANCH   2   5
BRANCH   1  20
HETATM   20  C   UNL     1     -43.495  56.280 -52.582  1.00  0.00     0.141 C 
BRANCH  20  21
HETATM   21  C   UNL     1     -42.431  55.206 -52.541  1.00  0.00    -0.049 A 
HETATM   22  C   UNL     1     -42.031  54.553 -53.715  1.00  0.00     0.010 A 
HETATM   23  C   UNL     1     -41.115  53.498 -53.665  1.00  0.00     0.037 A 
HETATM   24  C   UNL     1     -40.592  53.079 -52.442  1.00  0.00     0.068 A 
HETATM   25  C   UNL     1     -40.967  53.748 -51.275  1.00  0.00     0.037 A 
HETATM   26  C   UNL     1     -41.878  54.804 -51.319  1.00  0.00     0.010 A 
BRANCH  24  27
HETATM   27  O   UNL     1     -39.721  52.044 -52.251  1.00  0.00    -0.351 OA
BRANCH  27  28
HETATM   28  C   UNL     1     -39.069  51.518 -53.407  1.00  0.00     0.179 C 
BRANCH  28  29
HETATM   29  C   UNL     1     -39.455  50.043 -53.599  1.00  0.00     0.002 C 
HETATM   30  C   UNL     1     -40.680  49.905 -54.505  1.00  0.00     0.011 C 
HETATM   31  C   UNL     1     -39.717  49.355 -52.258  1.00  0.00     0.011 C 
ENDBRANCH  28  29
ENDBRANCH  27  28
ENDBRANCH  24  27
ENDBRANCH  20  21
ENDBRANCH   1  20
TORSDOF 7
ENDMDL
MODEL 9
REMARK VINA RESULT:      -7.3      5.899      8.651
REMARK  7 active torsions:
REMARK  status: ('A' for Active; 'I' for Inactive)
REMARK    1  A    between atoms: C_2  and  C_3 
REMARK    2  A    between atoms: C_3  and  O_4 
REMARK    3  A    between atoms: O_4  and  C_5 
REMARK    4  A    between atoms: C_8  and  C_9 
REMARK    5  A    between atoms: C_9  and  C_10 
REMARK       I    between atoms: C_10  and  N_11 
REMARK    6  A    between atoms: N_11  and  C_12 
REMARK    7  A    between atoms: C_19  and  C_20 
REMARK       I    between atoms: C_20  and  N_21 
ROOT
HETATM    1  C   UNL     1     -41.529  58.733 -52.512  1.00  0.00     0.226 C 
HETATM    2  N   UNL     1     -42.132  57.691 -51.833  1.00  0.00    -0.327 N 
HETATM    3  O   UNL     1     -40.362  58.754 -52.900  1.00  0.00    -0.273 OA
HETATM    4  H   UNL     1     -43.101  57.820 -51.571  1.00  0.00     0.169 HD
ENDROOT
BRANCH   2   5
HETATM    5  C   UNL     1     -41.588  56.431 -51.504  1.00  0.00     0.035 A 
HETATM    6  C   UNL     1     -41.280  55.438 -52.444  1.00  0.00     0.046 A 
HETATM    7  C   UNL     1     -40.753  54.204 -52.005  1.00  0.00     0.030 A 
HETATM    8  C   UNL     1     -40.552  54.005 -50.645  1.00  0.00     0.063 A 
HETATM    9  C   UNL     1     -40.328  52.987 -52.620  1.00  0.00     0.156 A 
HETATM   10  N   UNL     1     -40.047  52.740 -50.532  1.00  0.00    -0.277 N 
HETATM   11  C   UNL     1     -40.843  54.971 -49.681  1.00  0.00     0.034 A 
HETATM   12  H   UNL     1     -39.785  52.259 -49.679  1.00  0.00     0.189 HD
HETATM   13  N   UNL     1     -39.896  52.094 -51.699  1.00  0.00    -0.168 NA
HETATM   14  C   UNL     1     -41.365  56.186 -50.141  1.00  0.00     0.032 A 
BRANCH   9  15
HETATM   15  C   UNL     1     -40.325  52.657 -54.052  1.00  0.00     0.270 C 
HETATM   16  N   UNL     1     -40.477  51.323 -54.318  1.00  0.00    -0.365 N 
HETATM   17  H   UNL     1     -40.577  50.682 -53.539  1.00  0.00     0.159 HD
HETATM   18  H   UNL     1     -40.487  51.003 -55.272  1.00  0.00     0.159 HD
HETATM   19  O   UNL     1     -40.201  53.473 -54.958  1.00  0.00    -0.266 OA
ENDBRANCH   9  15
ENDBRANCH   2   5
BRANCH   1  20
HETATM   20  C   UNL     1     -42.408  59.966 -52.733  1.00  0.00     0.141 C 
BRANCH  20  21
HETATM   21  C   UNL     1     -43.407  60.274 -51.640  1.00  0.00    -0.049 A 
HETATM   22  C   UNL     1     -43.014  60.978 -50.494  1.00  0.00     0.010 A 
HETATM   23  C   UNL     1     -43.914  61.184 -49.442  1.00  0.00     0.037 A 
HETATM   24  C   UNL     1     -45.213  60.685 -49.523  1.00  0.00     0.068 A 
HETATM   25  C   UNL     1     -45.614  60.010 -50.678  1.00  0.00     0.037 A 
HETATM   26  C   UNL     1     -44.722  59.804 -51.731  1.00  0.00     0.010 A 
BRANCH  24  27
HETATM   27  O   UNL     1     -46.174  60.785 -48.558  1.00  0.00    -0.351 OA
BRANCH  27  28
HETATM   28  C   UNL     1     -45.952  61.729 -47.510  1.00  0.00     0.179 C 
BRANCH  28  29
HETATM   29  C   UNL     1     -46.014  61.021 -46.147  1.00  0.00     0.002 C 
HETATM   30  C   UNL     1     -44.658  61.065 -45.439  1.00  0.00     0.011 C 
HETATM   31  C   UNL     1     -46.482  59.572 -46.291  1.00  0.00     0.011 C 
ENDBRANCH  28  29
ENDBRANCH  27  28
ENDBRANCH  24  27
ENDBRANCH  20  21
ENDBRANCH   1  20
TORSDOF 7
ENDMDL
MODEL 10
REMARK VINA RESULT:      -7.2      5.346      8.224
REMARK  7 active torsions:
REMARK  status: ('A' for Active; 'I' for Inactive)
REMARK    1  A    between atoms: C_2  and  C_3 
REMARK    2  A    between atoms: C_3  and  O_4 
REMARK    3  A    between atoms: O_4  and  C_5 
REMARK    4  A    between atoms: C_8  and  C_9 
REMARK    5  A    between atoms: C_9  and  C_10 
REMARK       I    between atoms: C_10  and  N_11 
REMARK    6  A    between atoms: N_11  and  C_12 
REMARK    7  A    between atoms: C_19  and  C_20 
REMARK       I    between atoms: C_20  and  N_21 
ROOT
HETATM    1  C   UNL     1     -42.068  57.444 -52.541  1.00  0.00     0.226 C 
HETATM    2  N   UNL     1     -41.999  56.566 -53.607  1.00  0.00    -0.327 N 
HETATM    3  O   UNL     1     -41.622  57.237 -51.414  1.00  0.00    -0.273 OA
HETATM    4  H   UNL     1     -42.419  56.873 -54.476  1.00  0.00     0.169 HD
ENDROOT
BRANCH   2   5
HETATM    5  C   UNL     1     -41.359  55.310 -53.665  1.00  0.00     0.035 A 
HETATM    6  C   UNL     1     -41.142  54.486 -52.552  1.00  0.00     0.046 A 
HETATM    7  C   UNL     1     -40.477  53.251 -52.720  1.00  0.00     0.030 A 
HETATM    8  C   UNL     1     -40.053  52.884 -53.991  1.00  0.00     0.063 A 
HETATM    9  C   UNL     1     -40.078  52.172 -51.874  1.00  0.00     0.156 A 
HETATM   10  N   UNL     1     -39.451  51.667 -53.837  1.00  0.00    -0.277 N 
HETATM   11  C   UNL     1     -40.255  53.677 -55.122  1.00  0.00     0.034 A 
HETATM   12  H   UNL     1     -39.021  51.100 -54.559  1.00  0.00     0.189 HD
HETATM   13  N   UNL     1     -39.447  51.203 -52.577  1.00  0.00    -0.168 NA
HETATM   14  C   UNL     1     -40.917  54.895 -54.929  1.00  0.00     0.032 A 
BRANCH   9  15
HETATM   15  C   UNL     1     -40.283  52.043 -50.425  1.00  0.00     0.270 C 
HETATM   16  N   UNL     1     -40.227  53.230 -49.746  1.00  0.00    -0.365 N 
HETATM   17  H   UNL     1     -40.056  54.081 -50.270  1.00  0.00     0.159 HD
HETATM   18  H   UNL     1     -40.357  53.240 -48.747  1.00  0.00     0.159 HD
HETATM   19  O   UNL     1     -40.488  50.987 -49.837  1.00  0.00    -0.266 OA
ENDBRANCH   9  15
ENDBRANCH   2   5
BRANCH   1  20
HETATM   20  C   UNL     1     -42.820  58.748 -52.815  1.00  0.00     0.141 C 
BRANCH  20  21
HETATM   21  C   UNL     1     -43.661  59.283 -51.678  1.00  0.00    -0.049 A 
HETATM   22  C   UNL     1     -44.876  58.670 -51.341  1.00  0.00     0.010 A 
HETATM   23  C   UNL     1     -45.698  59.218 -50.351  1.00  0.00     0.037 A 
HETATM   24  C   UNL     1     -45.319  60.386 -49.691  1.00  0.00     0.068 A 
HETATM   25  C   UNL     1     -44.095  60.980 -50.005  1.00  0.00     0.037 A 
HETATM   26  C   UNL     1     -43.269  60.437 -50.989  1.00  0.00     0.010 A 
BRANCH  24  27
HETATM   27  O   UNL     1     -46.043  61.040 -48.735  1.00  0.00    -0.351 OA
BRANCH  27  28
HETATM   28  C   UNL     1     -45.315  61.813 -47.780  1.00  0.00     0.179 C 
BRANCH  28  29
HETATM   29  C   UNL     1     -45.118  60.999 -46.491  1.00  0.00     0.002 C 
HETATM   30  C   UNL     1     -46.280  60.029 -46.267  1.00  0.00     0.011 C 
HETATM   31  C   UNL     1     -44.955  61.910 -45.274  1.00  0.00     0.011 C 
ENDBRANCH  28  29
ENDBRANCH  27  28
ENDBRANCH  24  27
ENDBRANCH  20  21
ENDBRANCH   1  20
TORSDOF 7
ENDMDL
