MODEL 1
REMARK VINA RESULT:      -8.7      0.000      0.000
REMARK  4 active torsions:
REMARK  status: ('A' for Active; 'I' for Inactive)
REMARK    1  A    between atoms: C_2  and  C_3 
REMARK    2  A    between atoms: C_3  and  C_4 
REMARK       I    between atoms: C_4  and  N_5 
REMARK    3  A    between atoms: N_5  and  C_6 
REMARK    4  A    between atoms: C_13  and  C_14 
REMARK       I    between atoms: C_14  and  N_15 
ROOT
HETATM    1  C   UNL     1     -43.616  55.600 -54.009  1.00  0.00     0.035 A 
HETATM    2  C   UNL     1     -43.332  56.899 -54.431  1.00  0.00     0.046 A 
HETATM    3  C   UNL     1     -42.897  57.133 -55.756  1.00  0.00     0.030 A 
HETATM    4  C   UNL     1     -42.807  56.062 -56.632  1.00  0.00     0.063 A 
HETATM    5  N   UNL     1     -42.356  56.595 -57.809  1.00  0.00    -0.277 N 
HETATM    6  H   UNL     1     -42.171  56.102 -58.676  1.00  0.00     0.189 HD
HETATM    7  N   UNL     1     -42.108  57.916 -57.762  1.00  0.00    -0.168 NA
HETATM    8  C   UNL     1     -42.439  58.262 -56.498  1.00  0.00     0.156 A 
HETATM    9  C   UNL     1     -43.118  54.754 -56.264  1.00  0.00     0.034 A 
HETATM   10  C   UNL     1     -43.502  54.548 -54.930  1.00  0.00     0.032 A 
ENDROOT
BRANCH   1  11
HETATM   11  N   UNL     1     -43.895  55.240 -52.682  1.00  0.00    -0.326 N 
HETATM   12  C   UNL     1     -43.189  54.622 -51.677  1.00  0.00     0.235 C 
HETATM   13  O   UNL     1     -43.822  54.202 -50.706  1.00  0.00    -0.272 OA
HETATM   14  H   UNL     1     -44.844  55.413 -52.371  1.00  0.00     0.169 HD
BRANCH  12  15
HETATM   15  C   UNL     1     -41.679  54.618 -51.620  1.00  0.00     0.068 A 
HETATM   16  C   UNL     1     -40.924  55.466 -50.603  1.00  0.00     0.026 A 
HETATM   17  C   UNL     1     -41.007  55.963 -51.998  1.00  0.00     0.026 A 
BRANCH  15  18
HETATM   18  C   UNL     1     -41.015  53.403 -52.283  1.00  0.00    -0.040 A 
HETATM   19  C   UNL     1     -40.206  52.534 -51.520  1.00  0.00     0.010 A 
HETATM   20  C   UNL     1     -39.579  51.422 -52.089  1.00  0.00     0.024 A 
HETATM   21  C   UNL     1     -39.741  51.164 -53.444  1.00  0.00     0.034 A 
HETATM   22  C   UNL     1     -40.525  52.007 -54.228  1.00  0.00     0.024 A 
HETATM   23 CL   UNL     1     -38.970  49.801 -54.154  1.00  0.00    -0.084 Cl
HETATM   24  C   UNL     1     -41.156  53.116 -53.650  1.00  0.00     0.010 A 
ENDBRANCH  15  18
ENDBRANCH  12  15
ENDBRANCH   1  11
BRANCH   8  25
HETATM   25  C   UNL     1     -42.282  59.640 -56.011  1.00  0.00     0.270 C 
HETATM   26  N   UNL     1     -43.009  60.567 -56.706  1.00  0.00    -0.365 N 
HETATM   27  H   UNL     1     -43.568  60.257 -57.493  1.00  0.00     0.159 HD
HETATM   28  H   UNL     1     -42.930  61.544 -56.472  1.00  0.00     0.159 HD
HETATM   29  O   UNL     1     -41.557  59.965 -55.077  1.00  0.00    -0.266 OA
ENDBRANCH   8  25
TORSDOF 4
ENDMDL
MODEL 2
REMARK VINA RESULT:      -8.5      3.509      6.696
REMARK  4 active torsions:
REMARK  status: ('A' for Active; 'I' for Inactive)
REMARK    1  A    between atoms: C_2  and  C_3 
REMARK    2  A    between atoms: C_3  and  C_4 
REMARK       I    between atoms: C_4  and  N_5 
REMARK    3  A    between atoms: N_5  and  C_6 
REMARK    4  A    between atoms: C_13  and  C_14 
REMARK       I    between atoms: C_14  and  N_15 
ROOT
HETATM    1  C   UNL     1     -40.488  54.135 -54.164  1.00  0.00     0.035 A 
HETATM    2  C   UNL     1     -40.588  54.268 -52.779  1.00  0.00     0.046 A 
HETATM    3  C   UNL     1     -40.367  53.149 -51.943  1.00  0.00     0.030 A 
HETATM    4  C   UNL     1     -40.007  51.941 -52.520  1.00  0.00     0.063 A 
HETATM    5  N   UNL     1     -39.880  51.066 -51.476  1.00  0.00    -0.277 N 
HETATM    6  H   UNL     1     -39.626  50.085 -51.523  1.00  0.00     0.189 HD
HETATM    7  N   UNL     1     -40.165  51.592 -50.271  1.00  0.00    -0.168 NA
HETATM    8  C   UNL     1     -40.468  52.881 -50.546  1.00  0.00     0.156 A 
HETATM    9  C   UNL     1     -39.858  51.773 -53.895  1.00  0.00     0.034 A 
HETATM   10  C   UNL     1     -40.128  52.890 -54.701  1.00  0.00     0.032 A 
ENDROOT
BRANCH   1  11
HETATM   11  N   UNL     1     -40.843  55.133 -55.085  1.00  0.00    -0.326 N 
HETATM   12  C   UNL     1     -41.829  56.088 -55.146  1.00  0.00     0.235 C 
HETATM   13  O   UNL     1     -42.034  56.631 -56.234  1.00  0.00    -0.272 OA
HETATM   14  H   UNL     1     -40.300  55.151 -55.940  1.00  0.00     0.169 HD
BRANCH  12  15
HETATM   15  C   UNL     1     -42.519  56.633 -53.918  1.00  0.00     0.068 A 
HETATM   16  C   UNL     1     -43.826  56.032 -53.412  1.00  0.00     0.026 A 
HETATM   17  C   UNL     1     -43.895  57.298 -54.181  1.00  0.00     0.026 A 
BRANCH  15  18
HETATM   18  C   UNL     1     -41.618  57.457 -52.987  1.00  0.00    -0.040 A 
HETATM   19  C   UNL     1     -41.787  57.383 -51.589  1.00  0.00     0.010 A 
HETATM   20  C   UNL     1     -40.991  58.123 -50.710  1.00  0.00     0.024 A 
HETATM   21  C   UNL     1     -40.012  58.966 -51.219  1.00  0.00     0.034 A 
HETATM   22  C   UNL     1     -39.824  59.070 -52.595  1.00  0.00     0.024 A 
HETATM   23 CL   UNL     1     -39.031  59.884 -50.146  1.00  0.00    -0.084 Cl
HETATM   24  C   UNL     1     -40.621  58.321 -53.470  1.00  0.00     0.010 A 
ENDBRANCH  15  18
ENDBRANCH  12  15
ENDBRANCH   1  11
BRANCH   8  25
HETATM   25  C   UNL     1     -40.878  53.816 -49.489  1.00  0.00     0.270 C 
HETATM   26  N   UNL     1     -39.902  54.089 -48.570  1.00  0.00    -0.365 N 
HETATM   27  H   UNL     1     -39.003  53.628 -48.664  1.00  0.00     0.159 HD
HETATM   28  H   UNL     1     -40.105  54.685 -47.784  1.00  0.00     0.159 HD
HETATM   29  O   UNL     1     -41.996  54.313 -49.401  1.00  0.00    -0.266 OA
ENDBRANCH   8  25
TORSDOF 4
ENDMDL
MODEL 3
REMARK VINA RESULT:      -8.3      2.661      3.704
REMARK  4 active torsions:
REMARK  status: ('A' for Active; 'I' for Inactive)
REMARK    1  A    between atoms: C_2  and  C_3 
REMARK    2  A    between atoms: C_3  and  C_4 
REMARK       I    between atoms: C_4  and  N_5 
REMARK    3  A    between atoms: N_5  and  C_6 
REMARK    4  A    between atoms: C_13  and  C_14 
REMARK       I    between atoms: C_14  and  N_15 
ROOT
HETATM    1  C   UNL     1     -43.214  57.475 -56.017  1.00  0.00     0.035 A 
HETATM    2  C   UNL     1     -43.559  56.485 -56.937  1.00  0.00     0.046 A 
HETATM    3  C   UNL     1     -43.126  56.584 -58.279  1.00  0.00     0.030 A 
HETATM    4  C   UNL     1     -42.321  57.651 -58.648  1.00  0.00     0.063 A 
HETATM    5  N   UNL     1     -42.084  57.480 -59.984  1.00  0.00    -0.277 N 
HETATM    6  H   UNL     1     -41.530  58.074 -60.592  1.00  0.00     0.189 HD
HETATM    7  N   UNL     1     -42.698  56.414 -60.526  1.00  0.00    -0.168 NA
HETATM    8  C   UNL     1     -43.347  55.850 -59.482  1.00  0.00     0.156 A 
HETATM    9  C   UNL     1     -41.920  58.642 -57.754  1.00  0.00     0.034 A 
HETATM   10  C   UNL     1     -42.403  58.540 -56.440  1.00  0.00     0.032 A 
ENDROOT
BRANCH   1  11
HETATM   11  N   UNL     1     -43.721  57.558 -54.712  1.00  0.00    -0.326 N 
HETATM   12  C   UNL     1     -43.293  57.133 -53.477  1.00  0.00     0.235 C 
HETATM   13  O   UNL     1     -44.115  57.122 -52.557  1.00  0.00    -0.272 OA
HETATM   14  H   UNL     1     -44.639  57.979 -54.625  1.00  0.00     0.169 HD
BRANCH  12  15
HETATM   15  C   UNL     1     -41.840  56.875 -53.158  1.00  0.00     0.068 A 
HETATM   16  C   UNL     1     -41.090  57.725 -52.138  1.00  0.00     0.026 A 
HETATM   17  C   UNL     1     -40.867  58.007 -53.578  1.00  0.00     0.026 A 
BRANCH  15  18
HETATM   18  C   UNL     1     -41.337  55.475 -53.539  1.00  0.00    -0.040 A 
HETATM   19  C   UNL     1     -41.438  54.411 -52.619  1.00  0.00     0.010 A 
HETATM   20  C   UNL     1     -40.986  53.125 -52.926  1.00  0.00     0.024 A 
HETATM   21  C   UNL     1     -40.408  52.881 -54.166  1.00  0.00     0.034 A 
HETATM   22  C   UNL     1     -40.284  53.911 -55.095  1.00  0.00     0.024 A 
HETATM   23 CL   UNL     1     -39.844  51.303 -54.551  1.00  0.00    -0.084 Cl
HETATM   24  C   UNL     1     -40.746  55.196 -54.783  1.00  0.00     0.010 A 
ENDBRANCH  15  18
ENDBRANCH  12  15
ENDBRANCH   1  11
BRANCH   8  25
HETATM   25  C   UNL     1     -44.185  54.655 -59.651  1.00  0.00     0.270 C 
HETATM   26  N   UNL     1     -44.854  54.602 -60.843  1.00  0.00    -0.365 N 
HETATM   27  H   UNL     1     -44.747  55.372 -61.495  1.00  0.00     0.159 HD
HETATM   28  H   UNL     1     -45.487  53.842 -61.030  1.00  0.00     0.159 HD
HETATM   29  O   UNL     1     -44.309  53.772 -58.809  1.00  0.00    -0.266 OA
ENDBRANCH   8  25
TORSDOF 4
ENDMDL
MODEL 4
REMARK VINA RESULT:      -8.3      1.618      2.657
REMARK  4 active torsions:
REMARK  status: ('A' for Active; 'I' for Inactive)
REMARK    1  A    between atoms: C_2  and  C_3 
REMARK    2  A    between atoms: C_3  and  C_4 
REMARK       I    between atoms: C_4  and  N_5 
REMARK    3  A    between atoms: N_5  and  C_6 
REMARK    4  A    between atoms: C_13  and  C_14 
REMARK       I    between atoms: C_14  and  N_15 
ROOT
HETATM    1  C   UNL     1     -43.329  56.761 -52.808  1.00  0.00     0.035 A 
HETATM    2  C   UNL     1     -43.167  56.299 -54.113  1.00  0.00     0.046 A 
HETATM    3  C   UNL     1     -42.783  57.194 -55.138  1.00  0.00     0.030 A 
HETATM    4  C   UNL     1     -42.528  58.518 -54.813  1.00  0.00     0.063 A 
HETATM    5  N   UNL     1     -42.199  59.124 -55.994  1.00  0.00    -0.277 N 
HETATM    6  H   UNL     1     -41.951  60.097 -56.138  1.00  0.00     0.189 HD
HETATM    7  N   UNL     1     -42.256  58.316 -57.068  1.00  0.00    -0.168 NA
HETATM    8  C   UNL     1     -42.615  57.119 -56.553  1.00  0.00     0.156 A 
HETATM    9  C   UNL     1     -42.641  59.014 -53.515  1.00  0.00     0.034 A 
HETATM   10  C   UNL     1     -43.067  58.111 -52.528  1.00  0.00     0.032 A 
ENDROOT
BRANCH   1  11
HETATM   11  N   UNL     1     -43.860  55.998 -51.756  1.00  0.00    -0.326 N 
HETATM   12  C   UNL     1     -43.378  55.000 -50.943  1.00  0.00     0.235 C 
HETATM   13  O   UNL     1     -44.196  54.343 -50.295  1.00  0.00    -0.272 OA
HETATM   14  H   UNL     1     -44.840  56.157 -51.552  1.00  0.00     0.169 HD
BRANCH  12  15
HETATM   15  C   UNL     1     -41.906  54.812 -50.663  1.00  0.00     0.068 A 
HETATM   16  C   UNL     1     -41.284  55.279 -49.351  1.00  0.00     0.026 A 
HETATM   17  C   UNL     1     -41.088  56.125 -50.554  1.00  0.00     0.026 A 
BRANCH  15  18
HETATM   18  C   UNL     1     -41.219  53.743 -51.524  1.00  0.00    -0.040 A 
HETATM   19  C   UNL     1     -41.532  53.628 -52.894  1.00  0.00     0.010 A 
HETATM   20  C   UNL     1     -40.933  52.664 -53.709  1.00  0.00     0.024 A 
HETATM   21  C   UNL     1     -40.012  51.781 -53.160  1.00  0.00     0.034 A 
HETATM   22  C   UNL     1     -39.687  51.860 -51.808  1.00  0.00     0.024 A 
HETATM   23 CL   UNL     1     -39.273  50.587 -54.154  1.00  0.00    -0.084 Cl
HETATM   24  C   UNL     1     -40.285  52.834 -50.999  1.00  0.00     0.010 A 
ENDBRANCH  15  18
ENDBRANCH  12  15
ENDBRANCH   1  11
BRANCH   8  25
HETATM   25  C   UNL     1     -42.826  55.944 -57.410  1.00  0.00     0.270 C 
HETATM   26  N   UNL     1     -42.506  56.144 -58.725  1.00  0.00    -0.365 N 
HETATM   27  H   UNL     1     -42.178  57.060 -59.012  1.00  0.00     0.159 HD
HETATM   28  H   UNL     1     -42.659  55.408 -59.396  1.00  0.00     0.159 HD
HETATM   29  O   UNL     1     -43.266  54.869 -57.015  1.00  0.00    -0.266 OA
ENDBRANCH   8  25
TORSDOF 4
ENDMDL
MODEL 5
REMARK VINA RESULT:      -8.3      2.867      4.121
REMARK  4 active torsions:
REMARK  status: ('A' for Active; 'I' for Inactive)
REMARK    1  A    between atoms: C_2  and  C_3 
REMARK    2  A    between atoms: C_3  and  C_4 
REMARK       I    between atoms: C_4  and  N_5 
REMARK    3  A    between atoms: N_5  and  C_6 
REMARK    4  A    between atoms: C_13  and  C_14 
REMARK       I    between atoms: C_14  and  N_15 
ROOT
HETATM    1  C   UNL     1     -42.450  56.415 -52.348  1.00  0.00     0.035 A 
HETATM    2  C   UNL     1     -42.635  57.765 -52.646  1.00  0.00     0.046 A 
HETATM    3  C   UNL     1     -42.201  58.757 -51.736  1.00  0.00     0.030 A 
HETATM    4  C   UNL     1     -41.553  58.365 -50.575  1.00  0.00     0.063 A 
HETATM    5  N   UNL     1     -41.274  59.526 -49.908  1.00  0.00    -0.277 N 
HETATM    6  H   UNL     1     -40.802  59.624 -49.015  1.00  0.00     0.189 HD
HETATM    7  N   UNL     1     -41.720  60.639 -50.517  1.00  0.00    -0.168 NA
HETATM    8  C   UNL     1     -42.296  60.177 -51.650  1.00  0.00     0.156 A 
HETATM    9  C   UNL     1     -41.312  57.030 -50.255  1.00  0.00     0.034 A 
HETATM   10  C   UNL     1     -41.794  56.068 -51.157  1.00  0.00     0.032 A 
ENDROOT
BRANCH   1  11
HETATM   11  N   UNL     1     -42.983  55.356 -53.097  1.00  0.00    -0.326 N 
HETATM   12  C   UNL     1     -42.493  54.509 -54.062  1.00  0.00     0.235 C 
HETATM   13  O   UNL     1     -43.308  53.861 -54.724  1.00  0.00    -0.272 OA
HETATM   14  H   UNL     1     -43.971  55.177 -52.960  1.00  0.00     0.169 HD
BRANCH  12  15
HETATM   15  C   UNL     1     -41.023  54.193 -54.204  1.00  0.00     0.068 A 
HETATM   16  C   UNL     1     -40.037  55.231 -54.729  1.00  0.00     0.026 A 
HETATM   17  C   UNL     1     -40.496  54.173 -55.662  1.00  0.00     0.026 A 
BRANCH  15  18
HETATM   18  C   UNL     1     -40.539  52.997 -53.372  1.00  0.00    -0.040 A 
HETATM   19  C   UNL     1     -40.371  53.126 -51.977  1.00  0.00     0.010 A 
HETATM   20  C   UNL     1     -39.927  52.063 -51.187  1.00  0.00     0.024 A 
HETATM   21  C   UNL     1     -39.629  50.845 -51.784  1.00  0.00     0.034 A 
HETATM   22  C   UNL     1     -39.775  50.685 -53.159  1.00  0.00     0.024 A 
HETATM   23 CL   UNL     1     -39.077  49.532 -50.820  1.00  0.00    -0.084 Cl
HETATM   24  C   UNL     1     -40.228  51.753 -53.944  1.00  0.00     0.010 A 
ENDBRANCH  15  18
ENDBRANCH  12  15
ENDBRANCH   1  11
BRANCH   8  25
HETATM   25  C   UNL     1     -42.951  61.083 -52.604  1.00  0.00     0.270 C 
HETATM   26  N   UNL     1     -42.353  61.133 -53.833  1.00  0.00    -0.365 N 
HETATM   27  H   UNL     1     -41.517  60.579 -53.990  1.00  0.00     0.159 HD
HETATM   28  H   UNL     1     -42.706  61.760 -54.538  1.00  0.00     0.159 HD
HETATM   29  O   UNL     1     -43.939  61.763 -52.346  1.00  0.00    -0.266 OA
ENDBRANCH   8  25
TORSDOF 4
ENDMDL
MODEL 6
REMARK VINA RESULT:      -8.1      3.337      6.412
REMARK  4 active torsions:
REMARK  status: ('A' for Active; 'I' for Inactive)
REMARK    1  A    between atoms: C_2  and  C_3 
REMARK    2  A    between atoms: C_3  and  C_4 
REMARK       I    between atoms: C_4  and  N_5 
REMARK    3  A    between atoms: N_5  and  C_6 
REMARK    4  A    between atoms: C_13  and  C_14 
REMARK       I    between atoms: C_14  and  N_15 
ROOT
HETATM    1  C   UNL     1     -43.009  54.859 -53.683  1.00  0.00     0.035 A 
HETATM    2  C   UNL     1     -42.558  55.003 -52.371  1.00  0.00     0.046 A 
HETATM    3  C   UNL     1     -41.522  54.173 -51.884  1.00  0.00     0.030 A 
HETATM    4  C   UNL     1     -40.937  53.255 -52.743  1.00  0.00     0.063 A 
HETATM    5  N   UNL     1     -39.997  52.605 -51.992  1.00  0.00    -0.277 N 
HETATM    6  H   UNL     1     -39.373  51.864 -52.293  1.00  0.00     0.189 HD
HETATM    7  N   UNL     1     -39.946  52.995 -50.706  1.00  0.00    -0.168 NA
HETATM    8  C   UNL     1     -40.884  53.966 -50.625  1.00  0.00     0.156 A 
HETATM    9  C   UNL     1     -41.330  53.104 -54.072  1.00  0.00     0.034 A 
HETATM   10  C   UNL     1     -42.391  53.911 -54.512  1.00  0.00     0.032 A 
ENDROOT
BRANCH   1  11
HETATM   11  N   UNL     1     -44.131  55.513 -54.213  1.00  0.00    -0.326 N 
HETATM   12  C   UNL     1     -44.419  56.809 -54.568  1.00  0.00     0.235 C 
HETATM   13  O   UNL     1     -45.603  57.106 -54.746  1.00  0.00    -0.272 OA
HETATM   14  H   UNL     1     -44.959  54.939 -54.328  1.00  0.00     0.169 HD
BRANCH  12  15
HETATM   15  C   UNL     1     -43.353  57.813 -54.940  1.00  0.00     0.068 A 
HETATM   16  C   UNL     1     -43.459  58.645 -56.214  1.00  0.00     0.026 A 
HETATM   17  C   UNL     1     -42.551  57.470 -56.222  1.00  0.00     0.026 A 
BRANCH  15  18
HETATM   18  C   UNL     1     -42.463  58.266 -53.774  1.00  0.00    -0.040 A 
HETATM   19  C   UNL     1     -43.045  58.722 -52.573  1.00  0.00     0.010 A 
HETATM   20  C   UNL     1     -42.269  59.149 -51.493  1.00  0.00     0.024 A 
HETATM   21  C   UNL     1     -40.884  59.138 -51.599  1.00  0.00     0.034 A 
HETATM   22  C   UNL     1     -40.276  58.703 -52.774  1.00  0.00     0.024 A 
HETATM   23 CL   UNL     1     -39.920  59.666 -50.277  1.00  0.00    -0.084 Cl
HETATM   24  C   UNL     1     -41.060  58.270 -53.850  1.00  0.00     0.010 A 
ENDBRANCH  15  18
ENDBRANCH  12  15
ENDBRANCH   1  11
BRANCH   8  25
HETATM   25  C   UNL     1     -41.180  54.647 -49.358  1.00  0.00     0.270 C 
HETATM   26  N   UNL     1     -41.450  55.982 -49.487  1.00  0.00    -0.365 N 
HETATM   27  H   UNL     1     -41.409  56.399 -50.410  1.00  0.00     0.159 HD
HETATM   28  H   UNL     1     -41.621  56.540 -48.666  1.00  0.00     0.159 HD
HETATM   29  O   UNL     1     -41.175  54.099 -48.260  1.00  0.00    -0.266 OA
ENDBRANCH   8  25
TORSDOF 4
ENDMDL
MODEL 7
REMARK VINA RESULT:      -8.1      3.195      4.800
REMARK  4 active torsions:
REMARK  status: ('A' for Active; 'I' for Inactive)
REMARK    1  A    between atoms: C_2  and  C_3 
REMARK    2  A    between atoms: C_3  and  C_4 
REMARK       I    between atoms: C_4  and  N_5 
REMARK    3  A    between atoms: N_5  and  C_6 
REMARK    4  A    between atoms: C_13  and  C_14 
REMARK       I    between atoms: C_14  and  N_15 
ROOT
HETATM    1  C   UNL     1     -41.120  54.083 -51.410  1.00  0.00     0.035 A 
HETATM    2  C   UNL     1     -41.032  55.432 -51.751  1.00  0.00     0.046 A 
HETATM    3  C   UNL     1     -42.199  56.229 -51.793  1.00  0.00     0.030 A 
HETATM    4  C   UNL     1     -43.414  55.659 -51.445  1.00  0.00     0.063 A 
HETATM    5  N   UNL     1     -44.338  56.657 -51.594  1.00  0.00    -0.277 N 
HETATM    6  H   UNL     1     -45.337  56.601 -51.427  1.00  0.00     0.189 HD
HETATM    7  N   UNL     1     -43.833  57.819 -52.047  1.00  0.00    -0.168 NA
HETATM    8  C   UNL     1     -42.511  57.568 -52.174  1.00  0.00     0.156 A 
HETATM    9  C   UNL     1     -43.543  54.325 -51.060  1.00  0.00     0.034 A 
HETATM   10  C   UNL     1     -42.373  53.549 -51.072  1.00  0.00     0.032 A 
ENDROOT
BRANCH   1  11
HETATM   11  N   UNL     1     -40.057  53.171 -51.495  1.00  0.00    -0.326 N 
HETATM   12  C   UNL     1     -39.787  52.067 -52.267  1.00  0.00     0.235 C 
HETATM   13  O   UNL     1     -38.880  51.317 -51.899  1.00  0.00    -0.272 OA
HETATM   14  H   UNL     1     -39.320  53.293 -50.810  1.00  0.00     0.169 HD
BRANCH  12  15
HETATM   15  C   UNL     1     -40.408  51.847 -53.627  1.00  0.00     0.068 A 
HETATM   16  C   UNL     1     -40.884  50.467 -54.066  1.00  0.00     0.026 A 
HETATM   17  C   UNL     1     -39.581  50.951 -54.586  1.00  0.00     0.026 A 
BRANCH  15  18
HETATM   18  C   UNL     1     -40.945  53.118 -54.301  1.00  0.00    -0.040 A 
HETATM   19  C   UNL     1     -42.329  53.273 -54.519  1.00  0.00     0.010 A 
HETATM   20  C   UNL     1     -42.855  54.412 -55.135  1.00  0.00     0.024 A 
HETATM   21  C   UNL     1     -41.997  55.418 -55.559  1.00  0.00     0.034 A 
HETATM   22  C   UNL     1     -40.624  55.294 -55.367  1.00  0.00     0.024 A 
HETATM   23 CL   UNL     1     -42.635  56.821 -56.322  1.00  0.00    -0.084 Cl
HETATM   24  C   UNL     1     -40.104  54.153 -54.743  1.00  0.00     0.010 A 
ENDBRANCH  15  18
ENDBRANCH  12  15
ENDBRANCH   1  11
BRANCH   8  25
HETATM   25  C   UNL     1     -41.581  58.585 -52.684  1.00  0.00     0.270 C 
HETATM   26  N   UNL     1     -41.246  59.549 -51.773  1.00  0.00    -0.365 N 
HETATM   27  H   UNL     1     -41.663  59.510 -50.849  1.00  0.00     0.159 HD
HETATM   28  H   UNL     1     -40.649  60.312 -52.047  1.00  0.00     0.159 HD
HETATM   29  O   UNL     1     -41.138  58.605 -53.828  1.00  0.00    -0.266 OA
ENDBRANCH   8  25
TORSDOF 4
ENDMDL
MODEL 8
REMARK VINA RESULT:      -8.0      4.080      6.526
REMARK  4 active torsions:
REMARK  status: ('A' for Active; 'I' for Inactive)
REMARK    1  A    between atoms: C_2  and  C_3 
REMARK    2  A    between atoms: C_3  and  C_4 
REMARK       I    between atoms: C_4  and  N_5 
REMARK    3  A    between atoms: N_5  and  C_6 
REMARK    4  A    between atoms: C_13  and  C_14 
REMARK       I    between atoms: C_14  and  N_15 
ROOT
HETATM    1  C   UNL     1     -43.164  55.238 -50.847  1.00  0.00     0.035 A 
HETATM    2  C   UNL     1     -42.754  54.390 -51.875  1.00  0.00     0.046 A 
HETATM    3  C   UNL     1     -41.489  53.761 -51.812  1.00  0.00     0.030 A 
HETATM    4  C   UNL     1     -40.692  53.965 -50.696  1.00  0.00     0.063 A 
HETATM    5  N   UNL     1     -39.550  53.250 -50.931  1.00  0.00    -0.277 N 
HETATM    6  H   UNL     1     -38.741  53.167 -50.326  1.00  0.00     0.189 HD
HETATM    7  N   UNL     1     -39.518  52.629 -52.124  1.00  0.00    -0.168 NA
HETATM    8  C   UNL     1     -40.712  52.936 -52.679  1.00  0.00     0.156 A 
HETATM    9  C   UNL     1     -41.078  54.773 -49.628  1.00  0.00     0.034 A 
HETATM   10  C   UNL     1     -42.319  55.419 -49.740  1.00  0.00     0.032 A 
ENDROOT
BRANCH   1  11
HETATM   11  N   UNL     1     -44.319  56.033 -50.886  1.00  0.00    -0.326 N 
HETATM   12  C   UNL     1     -44.599  57.315 -51.295  1.00  0.00     0.235 C 
HETATM   13  O   UNL     1     -45.670  57.810 -50.935  1.00  0.00    -0.272 OA
HETATM   14  H   UNL     1     -45.150  55.617 -50.480  1.00  0.00     0.169 HD
BRANCH  12  15
HETATM   15  C   UNL     1     -43.761  58.052 -52.312  1.00  0.00     0.068 A 
HETATM   16  C   UNL     1     -44.394  58.703 -53.537  1.00  0.00     0.026 A 
HETATM   17  C   UNL     1     -43.712  57.397 -53.717  1.00  0.00     0.026 A 
BRANCH  15  18
HETATM   18  C   UNL     1     -42.382  58.498 -51.806  1.00  0.00    -0.040 A 
HETATM   19  C   UNL     1     -42.265  59.184 -50.579  1.00  0.00     0.010 A 
HETATM   20  C   UNL     1     -41.029  59.612 -50.088  1.00  0.00     0.024 A 
HETATM   21  C   UNL     1     -39.878  59.370 -50.828  1.00  0.00     0.034 A 
HETATM   22  C   UNL     1     -39.958  58.703 -52.048  1.00  0.00     0.024 A 
HETATM   23 CL   UNL     1     -38.353  59.897 -50.235  1.00  0.00    -0.084 Cl
HETATM   24  C   UNL     1     -41.200  58.271 -52.530  1.00  0.00     0.010 A 
ENDBRANCH  15  18
ENDBRANCH  12  15
ENDBRANCH   1  11
BRANCH   8  25
HETATM   25  C   UNL     1     -41.076  52.475 -54.026  1.00  0.00     0.270 C 
HETATM   26  N   UNL     1     -40.513  51.279 -54.381  1.00  0.00    -0.365 N 
HETATM   27  H   UNL     1     -39.891  50.820 -53.724  1.00  0.00     0.159 HD
HETATM   28  H   UNL     1     -40.670  50.905 -55.303  1.00  0.00     0.159 HD
HETATM   29  O   UNL     1     -41.803  53.093 -54.796  1.00  0.00    -0.266 OA
ENDBRANCH   8  25
TORSDOF 4
ENDMDL
MODEL 9
REMARK VINA RESULT:      -8.0      3.276      6.359
REMARK  4 active torsions:
REMARK  status: ('A' for Active; 'I' for Inactive)
REMARK    1  A    between atoms: C_2  and  C_3 
REMARK    2  A    between atoms: C_3  and  C_4 
REMARK       I    between atoms: C_4  and  N_5 
REMARK    3  A    between atoms: N_5  and  C_6 
REMARK    4  A    between atoms: C_13  and  C_14 
REMARK       I    between atoms: C_14  and  N_15 
ROOT
HETATM    1  C   UNL     1     -43.114  55.277 -51.947  1.00  0.00     0.035 A 
HETATM    2  C   UNL     1     -42.389  54.386 -52.737  1.00  0.00     0.046 A 
HETATM    3  C   UNL     1     -41.377  53.588 -52.157  1.00  0.00     0.030 A 
HETATM    4  C   UNL     1     -41.154  53.674 -50.792  1.00  0.00     0.063 A 
HETATM    5  N   UNL     1     -40.125  52.809 -50.538  1.00  0.00    -0.277 N 
HETATM    6  H   UNL     1     -39.694  52.612 -49.641  1.00  0.00     0.189 HD
HETATM    7  N   UNL     1     -39.633  52.195 -51.628  1.00  0.00    -0.168 NA
HETATM    8  C   UNL     1     -40.399  52.667 -52.638  1.00  0.00     0.156 A 
HETATM    9  C   UNL     1     -41.880  54.523 -49.958  1.00  0.00     0.034 A 
HETATM   10  C   UNL     1     -42.847  55.335 -50.571  1.00  0.00     0.032 A 
ENDROOT
BRANCH   1  11
HETATM   11  N   UNL     1     -44.020  56.225 -52.446  1.00  0.00    -0.326 N 
HETATM   12  C   UNL     1     -43.914  57.348 -53.231  1.00  0.00     0.235 C 
HETATM   13  O   UNL     1     -44.873  58.123 -53.257  1.00  0.00    -0.272 OA
HETATM   14  H   UNL     1     -44.979  56.119 -52.135  1.00  0.00     0.169 HD
BRANCH  12  15
HETATM   15  C   UNL     1     -42.775  57.565 -54.200  1.00  0.00     0.068 A 
HETATM   16  C   UNL     1     -41.349  57.784 -53.708  1.00  0.00     0.026 A 
HETATM   17  C   UNL     1     -42.126  58.972 -54.141  1.00  0.00     0.026 A 
BRANCH  15  18
HETATM   18  C   UNL     1     -43.051  57.087 -55.632  1.00  0.00    -0.040 A 
HETATM   19  C   UNL     1     -42.587  55.826 -56.060  1.00  0.00     0.010 A 
HETATM   20  C   UNL     1     -42.812  55.358 -57.357  1.00  0.00     0.024 A 
HETATM   21  C   UNL     1     -43.500  56.156 -58.262  1.00  0.00     0.034 A 
HETATM   22  C   UNL     1     -43.964  57.411 -57.876  1.00  0.00     0.024 A 
HETATM   23 CL   UNL     1     -43.778  55.592 -59.862  1.00  0.00    -0.084 Cl
HETATM   24  C   UNL     1     -43.741  57.870 -56.572  1.00  0.00     0.010 A 
ENDBRANCH  15  18
ENDBRANCH  12  15
ENDBRANCH   1  11
BRANCH   8  25
HETATM   25  C   UNL     1     -40.167  52.266 -54.032  1.00  0.00     0.270 C 
HETATM   26  N   UNL     1     -40.003  50.919 -54.210  1.00  0.00    -0.365 N 
HETATM   27  H   UNL     1     -40.030  50.315 -53.396  1.00  0.00     0.159 HD
HETATM   28  H   UNL     1     -39.794  50.556 -55.126  1.00  0.00     0.159 HD
HETATM   29  O   UNL     1     -40.102  53.048 -54.975  1.00  0.00    -0.266 OA
ENDBRANCH   8  25
TORSDOF 4
ENDMDL
MODEL 10
REMARK VINA RESULT:      -7.9      1.583      2.171
REMARK  4 active torsions:
REMARK  status: ('A' for Active; 'I' for Inactive)
REMARK    1  A    between atoms: C_2  and  C_3 
REMARK    2  A    between atoms: C_3  and  C_4 
REMARK       I    between atoms: C_4  and  N_5 
REMARK    3  A    between atoms: N_5  and  C_6 
REMARK    4  A    between atoms: C_13  and  C_14 
REMARK       I    between atoms: C_14  and  N_15 
ROOT
HETATM    1  C   UNL     1     -43.638  56.711 -52.885  1.00  0.00     0.035 A 
HETATM    2  C   UNL     1     -43.486  58.098 -52.871  1.00  0.00     0.046 A 
HETATM    3  C   UNL     1     -42.909  58.757 -53.980  1.00  0.00     0.030 A 
HETATM    4  C   UNL     1     -42.544  58.011 -55.090  1.00  0.00     0.063 A 
HETATM    5  N   UNL     1     -42.014  58.912 -55.973  1.00  0.00    -0.277 N 
HETATM    6  H   UNL     1     -41.641  58.720 -56.897  1.00  0.00     0.189 HD
HETATM    7  N   UNL     1     -41.967  60.176 -55.517  1.00  0.00    -0.168 NA
HETATM    8  C   UNL     1     -42.519  60.095 -54.285  1.00  0.00     0.156 A 
HETATM    9  C   UNL     1     -42.713  56.629 -55.162  1.00  0.00     0.034 A 
HETATM   10  C   UNL     1     -43.247  55.998 -54.028  1.00  0.00     0.032 A 
ENDROOT
BRANCH   1  11
HETATM   11  N   UNL     1     -44.045  55.946 -51.781  1.00  0.00    -0.326 N 
HETATM   12  C   UNL     1     -43.442  55.009 -50.977  1.00  0.00     0.235 C 
HETATM   13  O   UNL     1     -44.168  54.316 -50.260  1.00  0.00    -0.272 OA
HETATM   14  H   UNL     1     -45.019  56.042 -51.518  1.00  0.00     0.169 HD
BRANCH  12  15
HETATM   15  C   UNL     1     -41.945  54.933 -50.788  1.00  0.00     0.068 A 
HETATM   16  C   UNL     1     -41.267  55.563 -49.577  1.00  0.00     0.026 A 
HETATM   17  C   UNL     1     -41.206  56.294 -50.867  1.00  0.00     0.026 A 
BRANCH  15  18
HETATM   18  C   UNL     1     -41.252  53.823 -51.591  1.00  0.00    -0.040 A 
HETATM   19  C   UNL     1     -41.533  53.659 -52.963  1.00  0.00     0.010 A 
HETATM   20  C   UNL     1     -40.928  52.657 -53.725  1.00  0.00     0.024 A 
HETATM   21  C   UNL     1     -40.032  51.785 -53.120  1.00  0.00     0.034 A 
HETATM   22  C   UNL     1     -39.738  51.912 -51.765  1.00  0.00     0.024 A 
HETATM   23 CL   UNL     1     -39.285  50.545 -54.049  1.00  0.00    -0.084 Cl
HETATM   24  C   UNL     1     -40.343  52.924 -51.009  1.00  0.00     0.010 A 
ENDBRANCH  15  18
ENDBRANCH  12  15
ENDBRANCH   1  11
BRANCH   8  25
HETATM   25  C   UNL     1     -42.630  61.273 -53.414  1.00  0.00     0.270 C 
HETATM   26  N   UNL     1     -42.803  62.453 -54.084  1.00  0.00    -0.365 N 
HETATM   27  H   UNL     1     -42.820  62.439 -55.098  1.00  0.00     0.159 HD
HETATM   28  H   UNL     1     -42.845  63.319 -53.571  1.00  0.00     0.159 HD
HETATM   29  O   UNL     1     -42.561  61.237 -52.190  1.00  0.00    -0.266 OA
ENDBRANCH   8  25
TORSDOF 4
ENDMDL
