MODEL 1
REMARK VINA RESULT:      -8.9      0.000      0.000
REMARK  3 active torsions:
REMARK  status: ('A' for Active; 'I' for Inactive)
REMARK    1  A    between atoms: C_9  and  C_10 
REMARK       I    between atoms: C_10  and  N_11 
REMARK    2  A    between atoms: N_11  and  C_12 
REMARK    3  A    between atoms: C_12  and  C_13 
ROOT
HETATM    1  C   UNL     1     -43.128  56.531 -55.315  1.00  0.00     0.273 C 
HETATM    2  N   UNL     1     -42.006  56.107 -54.639  1.00  0.00    -0.347 N 
HETATM    3  O   UNL     1     -44.164  56.885 -54.757  1.00  0.00    -0.266 OA
HETATM    4  H   UNL     1     -41.258  55.751 -55.228  1.00  0.00     0.163 HD
ENDROOT
BRANCH   2   5
HETATM    5  C   UNL     1     -41.945  55.985 -53.201  1.00  0.00     0.114 C 
HETATM    6  C   UNL     1     -41.270  57.215 -52.592  1.00  0.00     0.037 C 
BRANCH   5   7
HETATM    7  C   UNL     1     -41.253  54.697 -52.791  1.00  0.00    -0.034 A 
HETATM    8  C   UNL     1     -41.089  53.666 -53.732  1.00  0.00     0.041 A 
HETATM    9  C   UNL     1     -40.494  52.458 -53.364  1.00  0.00     0.069 A 
HETATM   10  C   UNL     1     -40.038  52.265 -52.061  1.00  0.00     0.096 A 
HETATM   11  N   UNL     1     -40.343  51.451 -54.316  1.00  0.00    -0.323 N 
HETATM   12  O   UNL     1     -39.419  51.124 -51.632  1.00  0.00    -0.340 OA
HETATM   13  C   UNL     1     -40.158  53.294 -51.128  1.00  0.00     0.040 A 
HETATM   14  C   UNL     1     -39.572  50.010 -52.498  1.00  0.00     0.278 C 
HETATM   15  C   UNL     1     -39.842  50.223 -53.987  1.00  0.00     0.246 C 
HETATM   16  O   UNL     1     -39.692  49.343 -54.830  1.00  0.00    -0.271 OA
HETATM   17  C   UNL     1     -40.764  54.500 -51.488  1.00  0.00     0.012 A 
HETATM   18  H   UNL     1     -40.592  51.604 -55.284  1.00  0.00     0.169 HD
ENDBRANCH   5   7
ENDBRANCH   2   5
BRANCH   1  19
HETATM   19  C   UNL     1     -42.945  56.539 -56.776  1.00  0.00     0.157 A 
HETATM   20  C   UNL     1     -42.603  57.650 -57.604  1.00  0.00     0.029 A 
HETATM   21  C   UNL     1     -42.358  59.024 -57.410  1.00  0.00     0.023 A 
HETATM   22  C   UNL     1     -42.510  57.129 -58.888  1.00  0.00     0.063 A 
HETATM   23  C   UNL     1     -42.028  59.831 -58.513  1.00  0.00    -0.061 A 
HETATM   24  C   UNL     1     -41.760  61.297 -58.330  1.00  0.00     0.048 C 
HETATM   25  C   UNL     1     -41.934  59.262 -59.788  1.00  0.00     0.009 A 
HETATM   26  C   UNL     1     -42.174  57.899 -60.004  1.00  0.00     0.032 A 
HETATM   27  N   UNL     1     -42.802  55.799 -58.760  1.00  0.00    -0.277 N 
HETATM   28  H   UNL     1     -42.827  55.105 -59.499  1.00  0.00     0.189 HD
HETATM   29  N   UNL     1     -43.076  55.405 -57.504  1.00  0.00    -0.168 NA
ENDBRANCH   1  19
TORSDOF 3
ENDMDL
MODEL 2
REMARK VINA RESULT:      -8.7      3.021      7.709
REMARK  3 active torsions:
REMARK  status: ('A' for Active; 'I' for Inactive)
REMARK    1  A    between atoms: C_9  and  C_10 
REMARK       I    between atoms: C_10  and  N_11 
REMARK    2  A    between atoms: N_11  and  C_12 
REMARK    3  A    between atoms: C_12  and  C_13 
ROOT
HETATM    1  C   UNL     1     -41.594  56.599 -50.525  1.00  0.00     0.273 C 
HETATM    2  N   UNL     1     -42.857  56.636 -51.075  1.00  0.00    -0.347 N 
HETATM    3  O   UNL     1     -40.910  57.600 -50.327  1.00  0.00    -0.266 OA
HETATM    4  H   UNL     1     -43.266  55.728 -51.272  1.00  0.00     0.163 HD
ENDROOT
BRANCH   2   5
HETATM    5  C   UNL     1     -43.490  57.853 -51.525  1.00  0.00     0.114 C 
HETATM    6  C   UNL     1     -45.001  57.782 -51.293  1.00  0.00     0.037 C 
BRANCH   5   7
HETATM    7  C   UNL     1     -43.152  58.141 -52.977  1.00  0.00    -0.034 A 
HETATM    8  C   UNL     1     -43.590  57.259 -53.979  1.00  0.00     0.041 A 
HETATM    9  C   UNL     1     -43.253  57.482 -55.316  1.00  0.00     0.069 A 
HETATM   10  C   UNL     1     -42.493  58.594 -55.676  1.00  0.00     0.096 A 
HETATM   11  N   UNL     1     -43.699  56.592 -56.293  1.00  0.00    -0.323 N 
HETATM   12  O   UNL     1     -42.148  58.896 -56.964  1.00  0.00    -0.340 OA
HETATM   13  C   UNL     1     -42.086  59.498 -54.696  1.00  0.00     0.040 A 
HETATM   14  C   UNL     1     -42.317  57.829 -57.885  1.00  0.00     0.278 C 
HETATM   15  C   UNL     1     -43.330  56.720 -57.601  1.00  0.00     0.246 C 
HETATM   16  O   UNL     1     -43.738  55.947 -58.464  1.00  0.00    -0.271 OA
HETATM   17  C   UNL     1     -42.410  59.272 -53.356  1.00  0.00     0.012 A 
HETATM   18  H   UNL     1     -44.320  55.828 -56.060  1.00  0.00     0.169 HD
ENDBRANCH   5   7
ENDBRANCH   2   5
BRANCH   1  19
HETATM   19  C   UNL     1     -41.164  55.235 -50.176  1.00  0.00     0.157 A 
HETATM   20  C   UNL     1     -40.797  54.184 -51.068  1.00  0.00     0.029 A 
HETATM   21  C   UNL     1     -40.725  54.015 -52.465  1.00  0.00     0.023 A 
HETATM   22  C   UNL     1     -40.432  53.124 -50.247  1.00  0.00     0.063 A 
HETATM   23  C   UNL     1     -40.292  52.787 -52.993  1.00  0.00    -0.061 A 
HETATM   24  C   UNL     1     -40.206  52.585 -54.479  1.00  0.00     0.048 C 
HETATM   25  C   UNL     1     -39.924  51.749 -52.129  1.00  0.00     0.009 A 
HETATM   26  C   UNL     1     -39.987  51.894 -50.738  1.00  0.00     0.032 A 
HETATM   27  N   UNL     1     -40.609  53.579 -48.970  1.00  0.00    -0.277 N 
HETATM   28  H   UNL     1     -40.437  53.070 -48.110  1.00  0.00     0.189 HD
HETATM   29  N   UNL     1     -41.055  54.845 -48.884  1.00  0.00    -0.168 NA
ENDBRANCH   1  19
TORSDOF 3
ENDMDL
MODEL 3
REMARK VINA RESULT:      -8.7      1.457      2.239
REMARK  3 active torsions:
REMARK  status: ('A' for Active; 'I' for Inactive)
REMARK    1  A    between atoms: C_9  and  C_10 
REMARK       I    between atoms: C_10  and  N_11 
REMARK    2  A    between atoms: N_11  and  C_12 
REMARK    3  A    between atoms: C_12  and  C_13 
ROOT
HETATM    1  C   UNL     1     -43.365  56.964 -54.684  1.00  0.00     0.273 C 
HETATM    2  N   UNL     1     -42.385  56.397 -53.899  1.00  0.00    -0.347 N 
HETATM    3  O   UNL     1     -44.551  57.001 -54.368  1.00  0.00    -0.266 OA
HETATM    4  H   UNL     1     -41.465  56.348 -54.328  1.00  0.00     0.163 HD
ENDROOT
BRANCH   2   5
HETATM    5  C   UNL     1     -42.657  55.740 -52.642  1.00  0.00     0.114 C 
HETATM    6  C   UNL     1     -42.590  56.747 -51.492  1.00  0.00     0.037 C 
BRANCH   5   7
HETATM    7  C   UNL     1     -41.718  54.566 -52.424  1.00  0.00    -0.034 A 
HETATM    8  C   UNL     1     -41.597  53.581 -53.419  1.00  0.00     0.041 A 
HETATM    9  C   UNL     1     -40.772  52.472 -53.221  1.00  0.00     0.069 A 
HETATM   10  C   UNL     1     -40.044  52.337 -52.039  1.00  0.00     0.096 A 
HETATM   11  N   UNL     1     -40.667  51.508 -54.223  1.00  0.00    -0.323 N 
HETATM   12  O   UNL     1     -39.193  51.297 -51.784  1.00  0.00    -0.340 OA
HETATM   13  C   UNL     1     -40.125  53.326 -51.062  1.00  0.00     0.040 A 
HETATM   14  C   UNL     1     -39.352  50.181 -52.646  1.00  0.00     0.278 C 
HETATM   15  C   UNL     1     -39.939  50.366 -54.045  1.00  0.00     0.246 C 
HETATM   16  O   UNL     1     -39.832  49.526 -54.935  1.00  0.00    -0.271 OA
HETATM   17  C   UNL     1     -40.959  54.432 -51.250  1.00  0.00     0.012 A 
HETATM   18  H   UNL     1     -41.122  51.632 -55.118  1.00  0.00     0.169 HD
ENDBRANCH   5   7
ENDBRANCH   2   5
BRANCH   1  19
HETATM   19  C   UNL     1     -42.834  57.542 -55.930  1.00  0.00     0.157 A 
HETATM   20  C   UNL     1     -42.979  57.036 -57.255  1.00  0.00     0.029 A 
HETATM   21  C   UNL     1     -43.582  55.911 -57.853  1.00  0.00     0.023 A 
HETATM   22  C   UNL     1     -42.338  57.962 -58.069  1.00  0.00     0.063 A 
HETATM   23  C   UNL     1     -43.520  55.751 -59.248  1.00  0.00    -0.061 A 
HETATM   24  C   UNL     1     -44.157  54.562 -59.907  1.00  0.00     0.048 C 
HETATM   25  C   UNL     1     -42.873  56.715 -60.031  1.00  0.00     0.009 A 
HETATM   26  C   UNL     1     -42.268  57.840 -59.459  1.00  0.00     0.032 A 
HETATM   27  N   UNL     1     -41.857  58.918 -57.218  1.00  0.00    -0.277 N 
HETATM   28  H   UNL     1     -41.335  59.751 -57.466  1.00  0.00     0.189 HD
HETATM   29  N   UNL     1     -42.130  58.699 -55.919  1.00  0.00    -0.168 NA
ENDBRANCH   1  19
TORSDOF 3
ENDMDL
MODEL 4
REMARK VINA RESULT:      -8.5      3.585      7.890
REMARK  3 active torsions:
REMARK  status: ('A' for Active; 'I' for Inactive)
REMARK    1  A    between atoms: C_9  and  C_10 
REMARK       I    between atoms: C_10  and  N_11 
REMARK    2  A    between atoms: N_11  and  C_12 
REMARK    3  A    between atoms: C_12  and  C_13 
ROOT
HETATM    1  C   UNL     1     -41.660  58.648 -53.891  1.00  0.00     0.273 C 
HETATM    2  N   UNL     1     -42.588  58.517 -54.900  1.00  0.00    -0.347 N 
HETATM    3  O   UNL     1     -40.798  59.522 -53.871  1.00  0.00    -0.266 OA
HETATM    4  H   UNL     1     -43.178  57.693 -54.837  1.00  0.00     0.163 HD
ENDROOT
BRANCH   2   5
HETATM    5  C   UNL     1     -42.613  59.365 -56.069  1.00  0.00     0.114 C 
HETATM    6  C   UNL     1     -43.594  60.521 -55.867  1.00  0.00     0.037 C 
BRANCH   5   7
HETATM    7  C   UNL     1     -42.932  58.562 -57.319  1.00  0.00    -0.034 A 
HETATM    8  C   UNL     1     -44.261  58.189 -57.583  1.00  0.00     0.041 A 
HETATM    9  C   UNL     1     -44.569  57.415 -58.704  1.00  0.00     0.069 A 
HETATM   10  C   UNL     1     -43.565  57.018 -59.585  1.00  0.00     0.096 A 
HETATM   11  N   UNL     1     -45.896  57.058 -58.945  1.00  0.00    -0.323 N 
HETATM   12  O   UNL     1     -43.791  56.286 -60.718  1.00  0.00    -0.340 OA
HETATM   13  C   UNL     1     -42.249  57.415 -59.356  1.00  0.00     0.040 A 
HETATM   14  C   UNL     1     -45.063  55.658 -60.769  1.00  0.00     0.278 C 
HETATM   15  C   UNL     1     -46.239  56.235 -59.980  1.00  0.00     0.246 C 
HETATM   16  O   UNL     1     -47.409  55.935 -60.203  1.00  0.00    -0.271 OA
HETATM   17  C   UNL     1     -41.933  58.179 -58.229  1.00  0.00     0.012 A 
HETATM   18  H   UNL     1     -46.646  57.406 -58.363  1.00  0.00     0.169 HD
ENDBRANCH   5   7
ENDBRANCH   2   5
BRANCH   1  19
HETATM   19  C   UNL     1     -41.830  57.645 -52.826  1.00  0.00     0.157 A 
HETATM   20  C   UNL     1     -41.503  56.257 -52.879  1.00  0.00     0.029 A 
HETATM   21  C   UNL     1     -40.978  55.373 -53.842  1.00  0.00     0.023 A 
HETATM   22  C   UNL     1     -41.811  55.765 -51.616  1.00  0.00     0.063 A 
HETATM   23  C   UNL     1     -40.782  54.022 -53.508  1.00  0.00    -0.061 A 
HETATM   24  C   UNL     1     -40.222  53.061 -54.517  1.00  0.00     0.048 C 
HETATM   25  C   UNL     1     -41.095  53.571 -52.220  1.00  0.00     0.009 A 
HETATM   26  C   UNL     1     -41.617  54.432 -51.247  1.00  0.00     0.032 A 
HETATM   27  N   UNL     1     -42.295  56.837 -50.919  1.00  0.00    -0.277 N 
HETATM   28  H   UNL     1     -42.617  56.847 -49.958  1.00  0.00     0.189 HD
HETATM   29  N   UNL     1     -42.329  57.988 -51.615  1.00  0.00    -0.168 NA
ENDBRANCH   1  19
TORSDOF 3
ENDMDL
MODEL 5
REMARK VINA RESULT:      -8.4      2.522      7.942
REMARK  3 active torsions:
REMARK  status: ('A' for Active; 'I' for Inactive)
REMARK    1  A    between atoms: C_9  and  C_10 
REMARK       I    between atoms: C_10  and  N_11 
REMARK    2  A    between atoms: N_11  and  C_12 
REMARK    3  A    between atoms: C_12  and  C_13 
ROOT
HETATM    1  C   UNL     1     -41.105  55.430 -53.034  1.00  0.00     0.273 C 
HETATM    2  N   UNL     1     -42.389  55.903 -52.874  1.00  0.00    -0.347 N 
HETATM    3  O   UNL     1     -40.314  55.882 -53.857  1.00  0.00    -0.266 OA
HETATM    4  H   UNL     1     -42.965  55.372 -52.227  1.00  0.00     0.163 HD
ENDROOT
BRANCH   2   5
HETATM    5  C   UNL     1     -42.957  56.948 -53.693  1.00  0.00     0.114 C 
HETATM    6  C   UNL     1     -44.376  57.279 -53.224  1.00  0.00     0.037 C 
BRANCH   5   7
HETATM    7  C   UNL     1     -42.920  56.571 -55.164  1.00  0.00    -0.034 A 
HETATM    8  C   UNL     1     -42.533  57.530 -56.116  1.00  0.00     0.041 A 
HETATM    9  C   UNL     1     -42.533  57.216 -57.477  1.00  0.00     0.069 A 
HETATM   10  C   UNL     1     -42.899  55.941 -57.906  1.00  0.00     0.096 A 
HETATM   11  N   UNL     1     -42.145  58.184 -58.403  1.00  0.00    -0.323 N 
HETATM   12  O   UNL     1     -42.896  55.549 -59.216  1.00  0.00    -0.340 OA
HETATM   13  C   UNL     1     -43.246  54.970 -56.970  1.00  0.00     0.040 A 
HETATM   14  C   UNL     1     -42.827  56.616 -60.150  1.00  0.00     0.278 C 
HETATM   15  C   UNL     1     -42.206  57.953 -59.748  1.00  0.00     0.246 C 
HETATM   16  O   UNL     1     -41.847  58.800 -60.562  1.00  0.00    -0.271 OA
HETATM   17  C   UNL     1     -43.260  55.282 -55.607  1.00  0.00     0.012 A 
HETATM   18  H   UNL     1     -41.798  59.085 -58.103  1.00  0.00     0.169 HD
ENDBRANCH   5   7
ENDBRANCH   2   5
BRANCH   1  19
HETATM   19  C   UNL     1     -40.777  54.343 -52.097  1.00  0.00     0.157 A 
HETATM   20  C   UNL     1     -40.417  53.000 -52.414  1.00  0.00     0.029 A 
HETATM   21  C   UNL     1     -40.269  52.238 -53.591  1.00  0.00     0.023 A 
HETATM   22  C   UNL     1     -40.166  52.394 -51.189  1.00  0.00     0.063 A 
HETATM   23  C   UNL     1     -39.876  50.892 -53.499  1.00  0.00    -0.061 A 
HETATM   24  C   UNL     1     -39.710  50.062 -54.739  1.00  0.00     0.048 C 
HETATM   25  C   UNL     1     -39.622  50.325 -52.244  1.00  0.00     0.009 A 
HETATM   26  C   UNL     1     -39.763  51.062 -51.063  1.00  0.00     0.032 A 
HETATM   27  N   UNL     1     -40.394  53.364 -50.253  1.00  0.00    -0.277 N 
HETATM   28  H   UNL     1     -40.306  53.276 -49.247  1.00  0.00     0.189 HD
HETATM   29  N   UNL     1     -40.770  54.552 -50.759  1.00  0.00    -0.168 NA
ENDBRANCH   1  19
TORSDOF 3
ENDMDL
MODEL 6
REMARK VINA RESULT:      -8.4      3.217      8.410
REMARK  3 active torsions:
REMARK  status: ('A' for Active; 'I' for Inactive)
REMARK    1  A    between atoms: C_9  and  C_10 
REMARK       I    between atoms: C_10  and  N_11 
REMARK    2  A    between atoms: N_11  and  C_12 
REMARK    3  A    between atoms: C_12  and  C_13 
ROOT
HETATM    1  C   UNL     1     -41.390  55.256 -53.587  1.00  0.00     0.273 C 
HETATM    2  N   UNL     1     -42.633  54.924 -54.079  1.00  0.00    -0.347 N 
HETATM    3  O   UNL     1     -40.762  56.250 -53.943  1.00  0.00    -0.266 OA
HETATM    4  H   UNL     1     -42.992  54.026 -53.770  1.00  0.00     0.163 HD
ENDROOT
BRANCH   2   5
HETATM    5  C   UNL     1     -43.308  55.684 -55.105  1.00  0.00     0.114 C 
HETATM    6  C   UNL     1     -42.347  55.994 -56.255  1.00  0.00     0.037 C 
BRANCH   5   7
HETATM    7  C   UNL     1     -43.930  56.945 -54.531  1.00  0.00    -0.034 A 
HETATM    8  C   UNL     1     -44.238  57.006 -53.161  1.00  0.00     0.041 A 
HETATM    9  C   UNL     1     -44.850  58.139 -52.622  1.00  0.00     0.069 A 
HETATM   10  C   UNL     1     -45.146  59.234 -53.433  1.00  0.00     0.096 A 
HETATM   11  N   UNL     1     -45.145  58.175 -51.259  1.00  0.00    -0.323 N 
HETATM   12  O   UNL     1     -45.716  60.389 -52.974  1.00  0.00    -0.340 OA
HETATM   13  C   UNL     1     -44.810  59.202 -54.785  1.00  0.00     0.040 A 
HETATM   14  C   UNL     1     -46.305  60.284 -51.687  1.00  0.00     0.278 C 
HETATM   15  C   UNL     1     -45.815  59.225 -50.699  1.00  0.00     0.246 C 
HETATM   16  O   UNL     1     -46.059  59.265 -49.496  1.00  0.00    -0.271 OA
HETATM   17  C   UNL     1     -44.210  58.065 -55.332  1.00  0.00     0.012 A 
HETATM   18  H   UNL     1     -44.861  57.426 -50.642  1.00  0.00     0.169 HD
ENDBRANCH   5   7
ENDBRANCH   2   5
BRANCH   1  19
HETATM   19  C   UNL     1     -40.907  54.307 -52.570  1.00  0.00     0.157 A 
HETATM   20  C   UNL     1     -40.485  52.959 -52.770  1.00  0.00     0.029 A 
HETATM   21  C   UNL     1     -40.388  52.076 -53.864  1.00  0.00     0.023 A 
HETATM   22  C   UNL     1     -40.087  52.515 -51.515  1.00  0.00     0.063 A 
HETATM   23  C   UNL     1     -39.897  50.774 -53.662  1.00  0.00    -0.061 A 
HETATM   24  C   UNL     1     -39.783  49.817 -54.813  1.00  0.00     0.048 C 
HETATM   25  C   UNL     1     -39.497  50.372 -52.382  1.00  0.00     0.009 A 
HETATM   26  C   UNL     1     -39.584  51.233 -51.281  1.00  0.00     0.032 A 
HETATM   27  N   UNL     1     -40.299  53.572 -50.674  1.00  0.00    -0.277 N 
HETATM   28  H   UNL     1     -40.117  53.606 -49.678  1.00  0.00     0.189 HD
HETATM   29  N   UNL     1     -40.799  54.669 -51.270  1.00  0.00    -0.168 NA
ENDBRANCH   1  19
TORSDOF 3
ENDMDL
MODEL 7
REMARK VINA RESULT:      -8.4      3.184      7.510
REMARK  3 active torsions:
REMARK  status: ('A' for Active; 'I' for Inactive)
REMARK    1  A    between atoms: C_9  and  C_10 
REMARK       I    between atoms: C_10  and  N_11 
REMARK    2  A    between atoms: N_11  and  C_12 
REMARK    3  A    between atoms: C_12  and  C_13 
ROOT
HETATM    1  C   UNL     1     -41.320  58.657 -53.078  1.00  0.00     0.273 C 
HETATM    2  N   UNL     1     -42.554  58.944 -53.618  1.00  0.00    -0.347 N 
HETATM    3  O   UNL     1     -40.287  59.241 -53.395  1.00  0.00    -0.266 OA
HETATM    4  H   UNL     1     -43.302  58.318 -53.338  1.00  0.00     0.163 HD
ENDROOT
BRANCH   2   5
HETATM    5  C   UNL     1     -42.755  59.930 -54.654  1.00  0.00     0.114 C 
HETATM    6  C   UNL     1     -44.096  60.640 -54.458  1.00  0.00     0.037 C 
BRANCH   5   7
HETATM    7  C   UNL     1     -42.640  59.305 -56.034  1.00  0.00    -0.034 A 
HETATM    8  C   UNL     1     -43.272  58.077 -56.294  1.00  0.00     0.041 A 
HETATM    9  C   UNL     1     -43.143  57.464 -57.542  1.00  0.00     0.069 A 
HETATM   10  C   UNL     1     -42.400  58.074 -58.553  1.00  0.00     0.096 A 
HETATM   11  N   UNL     1     -43.779  56.246 -57.776  1.00  0.00    -0.323 N 
HETATM   12  O   UNL     1     -42.253  57.552 -59.808  1.00  0.00    -0.340 OA
HETATM   13  C   UNL     1     -41.803  59.310 -58.321  1.00  0.00     0.040 A 
HETATM   14  C   UNL     1     -42.614  56.184 -59.925  1.00  0.00     0.278 C 
HETATM   15  C   UNL     1     -43.618  55.568 -58.950  1.00  0.00     0.246 C 
HETATM   16  O   UNL     1     -44.193  54.503 -59.163  1.00  0.00    -0.271 OA
HETATM   17  C   UNL     1     -41.918  59.922 -57.069  1.00  0.00     0.012 A 
HETATM   18  H   UNL     1     -44.388  55.832 -57.083  1.00  0.00     0.169 HD
ENDBRANCH   5   7
ENDBRANCH   2   5
BRANCH   1  19
HETATM   19  C   UNL     1     -41.377  57.593 -52.061  1.00  0.00     0.157 A 
HETATM   20  C   UNL     1     -41.242  56.187 -52.265  1.00  0.00     0.029 A 
HETATM   21  C   UNL     1     -41.052  55.334 -53.371  1.00  0.00     0.023 A 
HETATM   22  C   UNL     1     -41.327  55.628 -50.996  1.00  0.00     0.063 A 
HETATM   23  C   UNL     1     -40.956  53.947 -53.166  1.00  0.00    -0.061 A 
HETATM   24  C   UNL     1     -40.752  53.019 -54.329  1.00  0.00     0.048 C 
HETATM   25  C   UNL     1     -41.036  53.427 -51.868  1.00  0.00     0.009 A 
HETATM   26  C   UNL     1     -41.224  54.256 -50.756  1.00  0.00     0.032 A 
HETATM   27  N   UNL     1     -41.513  56.685 -50.148  1.00  0.00    -0.277 N 
HETATM   28  H   UNL     1     -41.615  56.649 -49.140  1.00  0.00     0.189 HD
HETATM   29  N   UNL     1     -41.555  57.886 -50.752  1.00  0.00    -0.168 NA
ENDBRANCH   1  19
TORSDOF 3
ENDMDL
MODEL 8
REMARK VINA RESULT:      -8.3      4.135      9.028
REMARK  3 active torsions:
REMARK  status: ('A' for Active; 'I' for Inactive)
REMARK    1  A    between atoms: C_9  and  C_10 
REMARK       I    between atoms: C_10  and  N_11 
REMARK    2  A    between atoms: N_11  and  C_12 
REMARK    3  A    between atoms: C_12  and  C_13 
ROOT
HETATM    1  C   UNL     1     -40.876  55.164 -52.955  1.00  0.00     0.273 C 
HETATM    2  N   UNL     1     -41.464  56.245 -52.337  1.00  0.00    -0.347 N 
HETATM    3  O   UNL     1     -40.595  55.134 -54.150  1.00  0.00    -0.266 OA
HETATM    4  H   UNL     1     -41.730  56.095 -51.369  1.00  0.00     0.163 HD
ENDROOT
BRANCH   2   5
HETATM    5  C   UNL     1     -41.860  57.442 -53.042  1.00  0.00     0.114 C 
HETATM    6  C   UNL     1     -40.658  58.371 -53.227  1.00  0.00     0.037 C 
BRANCH   5   7
HETATM    7  C   UNL     1     -43.010  58.137 -52.335  1.00  0.00    -0.034 A 
HETATM    8  C   UNL     1     -43.032  59.540 -52.259  1.00  0.00     0.041 A 
HETATM    9  C   UNL     1     -44.058  60.197 -51.577  1.00  0.00     0.069 A 
HETATM   10  C   UNL     1     -45.086  59.469 -50.978  1.00  0.00     0.096 A 
HETATM   11  N   UNL     1     -44.058  61.590 -51.515  1.00  0.00    -0.323 N 
HETATM   12  O   UNL     1     -46.139  60.039 -50.320  1.00  0.00    -0.340 OA
HETATM   13  C   UNL     1     -45.097  58.079 -51.081  1.00  0.00     0.040 A 
HETATM   14  C   UNL     1     -45.953  61.405 -49.982  1.00  0.00     0.278 C 
HETATM   15  C   UNL     1     -44.993  62.275 -50.793  1.00  0.00     0.246 C 
HETATM   16  O   UNL     1     -45.003  63.503 -50.754  1.00  0.00    -0.271 OA
HETATM   17  C   UNL     1     -44.066  57.416 -51.751  1.00  0.00     0.012 A 
HETATM   18  H   UNL     1     -43.368  62.136 -52.014  1.00  0.00     0.169 HD
ENDBRANCH   5   7
ENDBRANCH   2   5
BRANCH   1  19
HETATM   19  C   UNL     1     -40.597  54.057 -52.024  1.00  0.00     0.157 A 
HETATM   20  C   UNL     1     -40.268  52.708 -52.349  1.00  0.00     0.029 A 
HETATM   21  C   UNL     1     -40.117  51.956 -53.532  1.00  0.00     0.023 A 
HETATM   22  C   UNL     1     -40.059  52.082 -51.127  1.00  0.00     0.063 A 
HETATM   23  C   UNL     1     -39.764  50.598 -53.448  1.00  0.00    -0.061 A 
HETATM   24  C   UNL     1     -39.595  49.777 -54.694  1.00  0.00     0.048 C 
HETATM   25  C   UNL     1     -39.552  50.010 -52.195  1.00  0.00     0.009 A 
HETATM   26  C   UNL     1     -39.696  50.738 -51.008  1.00  0.00     0.032 A 
HETATM   27  N   UNL     1     -40.280  53.047 -50.184  1.00  0.00    -0.277 N 
HETATM   28  H   UNL     1     -40.215  52.945 -49.178  1.00  0.00     0.189 HD
HETATM   29  N   UNL     1     -40.612  54.251 -50.684  1.00  0.00    -0.168 NA
ENDBRANCH   1  19
TORSDOF 3
ENDMDL
MODEL 9
REMARK VINA RESULT:      -8.2      3.452      5.308
REMARK  3 active torsions:
REMARK  status: ('A' for Active; 'I' for Inactive)
REMARK    1  A    between atoms: C_9  and  C_10 
REMARK       I    between atoms: C_10  and  N_11 
REMARK    2  A    between atoms: N_11  and  C_12 
REMARK    3  A    between atoms: C_12  and  C_13 
ROOT
HETATM    1  C   UNL     1     -41.610  58.122 -53.055  1.00  0.00     0.273 C 
HETATM    2  N   UNL     1     -42.312  56.946 -52.912  1.00  0.00    -0.347 N 
HETATM    3  O   UNL     1     -40.894  58.372 -54.021  1.00  0.00    -0.266 OA
HETATM    4  H   UNL     1     -42.784  56.833 -52.020  1.00  0.00     0.163 HD
ENDROOT
BRANCH   2   5
HETATM    5  C   UNL     1     -42.239  55.858 -53.860  1.00  0.00     0.114 C 
HETATM    6  C   UNL     1     -43.642  55.464 -54.325  1.00  0.00     0.037 C 
BRANCH   5   7
HETATM    7  C   UNL     1     -41.482  54.677 -53.279  1.00  0.00    -0.034 A 
HETATM    8  C   UNL     1     -41.227  53.553 -54.082  1.00  0.00     0.041 A 
HETATM    9  C   UNL     1     -40.570  52.439 -53.555  1.00  0.00     0.069 A 
HETATM   10  C   UNL     1     -40.142  52.436 -52.228  1.00  0.00     0.096 A 
HETATM   11  N   UNL     1     -40.328  51.336 -54.372  1.00  0.00    -0.323 N 
HETATM   12  O   UNL     1     -39.467  51.398 -51.648  1.00  0.00    -0.340 OA
HETATM   13  C   UNL     1     -40.353  53.560 -51.432  1.00  0.00     0.040 A 
HETATM   14  C   UNL     1     -39.525  50.179 -52.374  1.00  0.00     0.278 C 
HETATM   15  C   UNL     1     -39.763  50.192 -53.884  1.00  0.00     0.246 C 
HETATM   16  O   UNL     1     -39.534  49.227 -54.609  1.00  0.00    -0.271 OA
HETATM   17  C   UNL     1     -41.021  54.672 -51.951  1.00  0.00     0.012 A 
HETATM   18  H   UNL     1     -40.557  51.354 -55.357  1.00  0.00     0.169 HD
ENDBRANCH   5   7
ENDBRANCH   2   5
BRANCH   1  19
HETATM   19  C   UNL     1     -41.832  59.058 -51.940  1.00  0.00     0.157 A 
HETATM   20  C   UNL     1     -43.045  59.720 -51.588  1.00  0.00     0.029 A 
HETATM   21  C   UNL     1     -44.358  59.776 -52.099  1.00  0.00     0.023 A 
HETATM   22  C   UNL     1     -42.741  60.450 -50.446  1.00  0.00     0.063 A 
HETATM   23  C   UNL     1     -45.321  60.566 -51.448  1.00  0.00    -0.061 A 
HETATM   24  C   UNL     1     -46.726  60.640 -51.974  1.00  0.00     0.048 C 
HETATM   25  C   UNL     1     -44.973  61.277 -50.293  1.00  0.00     0.009 A 
HETATM   26  C   UNL     1     -43.677  61.235 -49.768  1.00  0.00     0.032 A 
HETATM   27  N   UNL     1     -41.418  60.203 -50.201  1.00  0.00    -0.277 N 
HETATM   28  H   UNL     1     -40.858  60.571 -49.441  1.00  0.00     0.189 HD
HETATM   29  N   UNL     1     -40.832  59.373 -51.083  1.00  0.00    -0.168 NA
ENDBRANCH   1  19
TORSDOF 3
ENDMDL
MODEL 10
REMARK VINA RESULT:      -7.9      2.743      3.696
REMARK  3 active torsions:
REMARK  status: ('A' for Active; 'I' for Inactive)
REMARK    1  A    between atoms: C_9  and  C_10 
REMARK       I    between atoms: C_10  and  N_11 
REMARK    2  A    between atoms: N_11  and  C_12 
REMARK    3  A    between atoms: C_12  and  C_13 
ROOT
HETATM    1  C   UNL     1     -44.233  57.547 -51.969  1.00  0.00     0.273 C 
HETATM    2  N   UNL     1     -42.904  57.222 -52.127  1.00  0.00    -0.347 N 
HETATM    3  O   UNL     1     -44.910  57.189 -51.010  1.00  0.00    -0.266 OA
HETATM    4  H   UNL     1     -42.495  57.502 -53.014  1.00  0.00     0.163 HD
ENDROOT
BRANCH   2   5
HETATM    5  C   UNL     1     -42.178  56.382 -51.203  1.00  0.00     0.114 C 
HETATM    6  C   UNL     1     -41.065  57.179 -50.521  1.00  0.00     0.037 C 
BRANCH   5   7
HETATM    7  C   UNL     1     -41.643  55.141 -51.898  1.00  0.00    -0.034 A 
HETATM    8  C   UNL     1     -41.168  54.065 -51.129  1.00  0.00     0.041 A 
HETATM    9  C   UNL     1     -40.633  52.934 -51.749  1.00  0.00     0.069 A 
HETATM   10  C   UNL     1     -40.580  52.850 -53.140  1.00  0.00     0.096 A 
HETATM   11  N   UNL     1     -40.169  51.879 -50.964  1.00  0.00    -0.323 N 
HETATM   12  O   UNL     1     -40.099  51.765 -53.819  1.00  0.00    -0.340 OA
HETATM   13  C   UNL     1     -41.084  53.893 -53.914  1.00  0.00     0.040 A 
HETATM   14  C   UNL     1     -39.338  50.865 -53.028  1.00  0.00     0.278 C 
HETATM   15  C   UNL     1     -39.563  50.787 -51.518  1.00  0.00     0.246 C 
HETATM   16  O   UNL     1     -39.170  49.850 -50.827  1.00  0.00    -0.271 OA
HETATM   17  C   UNL     1     -41.609  55.033 -53.299  1.00  0.00     0.012 A 
HETATM   18  H   UNL     1     -40.276  51.888 -49.958  1.00  0.00     0.169 HD
ENDBRANCH   5   7
ENDBRANCH   2   5
BRANCH   1  19
HETATM   19  C   UNL     1     -44.747  58.391 -53.061  1.00  0.00     0.157 A 
HETATM   20  C   UNL     1     -44.562  58.208 -54.464  1.00  0.00     0.029 A 
HETATM   21  C   UNL     1     -43.882  57.287 -55.287  1.00  0.00     0.023 A 
HETATM   22  C   UNL     1     -45.276  59.239 -55.061  1.00  0.00     0.063 A 
HETATM   23  C   UNL     1     -43.939  57.434 -56.684  1.00  0.00    -0.061 A 
HETATM   24  C   UNL     1     -43.225  56.465 -57.581  1.00  0.00     0.048 C 
HETATM   25  C   UNL     1     -44.681  58.482 -57.243  1.00  0.00     0.009 A 
HETATM   26  C   UNL     1     -45.363  59.407 -56.445  1.00  0.00     0.032 A 
HETATM   27  N   UNL     1     -45.810  59.955 -54.025  1.00  0.00    -0.277 N 
HETATM   28  H   UNL     1     -46.395  60.780 -54.091  1.00  0.00     0.189 HD
HETATM   29  N   UNL     1     -45.510  59.480 -52.804  1.00  0.00    -0.168 NA
ENDBRANCH   1  19
TORSDOF 3
ENDMDL
