MODEL 1
REMARK VINA RESULT:      -8.0      0.000      0.000
REMARK  5 active torsions:
REMARK  status: ('A' for Active; 'I' for Inactive)
REMARK    1  A    between atoms: C_2  and  N_3 
REMARK    2  A    between atoms: C_6  and  C_7 
REMARK    3  A    between atoms: C_7  and  N_8 
REMARK    4  A    between atoms: C_11  and  O_12 
REMARK    5  A    between atoms: C_13  and  N_14 
ROOT
HETATM    1  N   UNL     1     -43.221  58.015 -52.456  1.00  0.00    -0.065 N 
HETATM    2  H   UNL     1     -43.287  57.805 -51.450  1.00  0.00     0.280 HD
HETATM    3  C   UNL     1     -44.020  56.979 -53.224  1.00  0.00     0.268 C 
HETATM    4  C   UNL     1     -43.445  55.578 -52.957  1.00  0.00     0.174 C 
HETATM    5  C   UNL     1     -41.937  55.561 -53.300  1.00  0.00     0.220 C 
HETATM    6  C   UNL     1     -41.160  56.645 -52.557  1.00  0.00     0.063 C 
HETATM    7  C   UNL     1     -41.763  58.025 -52.836  1.00  0.00     0.237 C 
ENDROOT
BRANCH   1   8
HETATM    8  C   UNL     1     -43.855  59.411 -52.549  1.00  0.00     0.276 C 
BRANCH   8   9
HETATM    9  C   UNL     1     -44.554  59.737 -51.283  1.00  0.00     0.004 A 
HETATM   10  C   UNL     1     -45.642  59.064 -50.699  1.00  0.00     0.149 A 
HETATM   11  N   UNL     1     -45.963  59.558 -49.508  1.00  0.00    -0.180 NA
HETATM   12  N   UNL     1     -45.156  60.629 -49.323  1.00  0.00    -0.245 N 
HETATM   13  C   UNL     1     -44.284  60.761 -50.393  1.00  0.00     0.129 A 
BRANCH  12  14
HETATM   14  C   UNL     1     -45.210  61.404 -48.131  1.00  0.00     0.058 A 
HETATM   15  C   UNL     1     -45.413  60.758 -46.899  1.00  0.00     0.034 A 
HETATM   16  C   UNL     1     -45.438  61.495 -45.713  1.00  0.00     0.044 A 
HETATM   17  C   UNL     1     -45.262  62.872 -45.757  1.00  0.00     0.116 A 
HETATM   18  C   UNL     1     -45.068  63.528 -46.967  1.00  0.00     0.044 A 
HETATM   19  F   UNL     1     -45.275  63.579 -44.621  1.00  0.00    -0.206 F 
HETATM   20  C   UNL     1     -45.045  62.799 -48.160  1.00  0.00     0.034 A 
ENDBRANCH  12  14
ENDBRANCH   8   9
ENDBRANCH   1   8
BRANCH   4  21
HETATM   21  O   UNL     1     -44.058  54.563 -53.748  1.00  0.00    -0.392 OA
HETATM   22  H   UNL     1     -43.664  54.547 -54.647  1.00  0.00     0.210 HD
ENDBRANCH   4  21
BRANCH   5  23
HETATM   23  N   UNL     1     -41.374  54.139 -53.069  1.00  0.00    -0.064 N 
HETATM   24  H   UNL     1     -42.227  53.602 -52.819  1.00  0.00     0.280 HD
HETATM   25  C   UNL     1     -40.879  53.501 -54.355  1.00  0.00     0.235 C 
HETATM   26  C   UNL     1     -40.655  51.998 -54.221  1.00  0.00     0.028 C 
HETATM   27  C   UNL     1     -39.399  51.643 -53.432  1.00  0.00     0.002 C 
HETATM   28  C   UNL     1     -39.597  51.558 -51.923  1.00  0.00     0.002 C 
HETATM   29  C   UNL     1     -40.516  52.599 -51.293  1.00  0.00     0.028 C 
HETATM   30  C   UNL     1     -40.415  53.990 -51.898  1.00  0.00     0.235 C 
ENDBRANCH   5  23
TORSDOF 5
ENDMDL
MODEL 2
REMARK VINA RESULT:      -7.9      5.478      9.039
REMARK  5 active torsions:
REMARK  status: ('A' for Active; 'I' for Inactive)
REMARK    1  A    between atoms: C_2  and  N_3 
REMARK    2  A    between atoms: C_6  and  C_7 
REMARK    3  A    between atoms: C_7  and  N_8 
REMARK    4  A    between atoms: C_11  and  O_12 
REMARK    5  A    between atoms: C_13  and  N_14 
ROOT
HETATM    1  N   UNL     1     -42.300  57.170 -52.792  1.00  0.00    -0.065 N 
HETATM    2  H   UNL     1     -41.763  56.373 -53.162  1.00  0.00     0.280 HD
HETATM    3  C   UNL     1     -43.780  56.888 -52.971  1.00  0.00     0.268 C 
HETATM    4  C   UNL     1     -44.096  56.710 -54.466  1.00  0.00     0.174 C 
HETATM    5  C   UNL     1     -43.613  57.953 -55.251  1.00  0.00     0.220 C 
HETATM    6  C   UNL     1     -42.135  58.251 -55.015  1.00  0.00     0.063 C 
HETATM    7  C   UNL     1     -41.851  58.412 -53.519  1.00  0.00     0.237 C 
ENDROOT
BRANCH   1   8
HETATM    8  C   UNL     1     -41.896  57.186 -51.311  1.00  0.00     0.276 C 
BRANCH   8   9
HETATM    9  C   UNL     1     -41.363  55.860 -50.915  1.00  0.00     0.004 A 
HETATM   10  C   UNL     1     -41.087  55.392 -49.617  1.00  0.00     0.149 A 
HETATM   11  N   UNL     1     -40.715  54.117 -49.607  1.00  0.00    -0.180 NA
HETATM   12  N   UNL     1     -40.642  53.743 -50.907  1.00  0.00    -0.245 N 
HETATM   13  C   UNL     1     -41.033  54.790 -51.728  1.00  0.00     0.129 A 
BRANCH  12  14
HETATM   14  C   UNL     1     -40.283  52.418 -51.281  1.00  0.00     0.058 A 
HETATM   15  C   UNL     1     -39.927  52.152 -52.614  1.00  0.00     0.034 A 
HETATM   16  C   UNL     1     -39.541  50.866 -52.997  1.00  0.00     0.044 A 
HETATM   17  C   UNL     1     -39.511  49.849 -52.052  1.00  0.00     0.116 A 
HETATM   18  C   UNL     1     -39.868  50.092 -50.731  1.00  0.00     0.044 A 
HETATM   19  F   UNL     1     -39.131  48.618 -52.414  1.00  0.00    -0.206 F 
HETATM   20  C   UNL     1     -40.259  51.376 -50.339  1.00  0.00     0.034 A 
ENDBRANCH  12  14
ENDBRANCH   8   9
ENDBRANCH   1   8
BRANCH   4  21
HETATM   21  O   UNL     1     -45.491  56.575 -54.728  1.00  0.00    -0.392 OA
HETATM   22  H   UNL     1     -45.919  56.040 -54.026  1.00  0.00     0.210 HD
ENDBRANCH   4  21
BRANCH   5  23
HETATM   23  N   UNL     1     -43.972  57.787 -56.746  1.00  0.00    -0.064 N 
HETATM   24  H   UNL     1     -44.809  57.174 -56.705  1.00  0.00     0.280 HD
HETATM   25  C   UNL     1     -44.471  59.081 -57.364  1.00  0.00     0.235 C 
HETATM   26  C   UNL     1     -45.156  58.868 -58.711  1.00  0.00     0.028 C 
HETATM   27  C   UNL     1     -44.179  58.573 -59.845  1.00  0.00     0.002 C 
HETATM   28  C   UNL     1     -43.817  57.101 -60.008  1.00  0.00     0.002 C 
HETATM   29  C   UNL     1     -43.622  56.297 -58.727  1.00  0.00     0.028 C 
HETATM   30  C   UNL     1     -42.945  57.054 -57.595  1.00  0.00     0.235 C 
ENDBRANCH   5  23
TORSDOF 5
ENDMDL
MODEL 3
REMARK VINA RESULT:      -7.9      6.149      9.839
REMARK  5 active torsions:
REMARK  status: ('A' for Active; 'I' for Inactive)
REMARK    1  A    between atoms: C_2  and  N_3 
REMARK    2  A    between atoms: C_6  and  C_7 
REMARK    3  A    between atoms: C_7  and  N_8 
REMARK    4  A    between atoms: C_11  and  O_12 
REMARK    5  A    between atoms: C_13  and  N_14 
ROOT
HETATM    1  N   UNL     1     -42.703  57.570 -55.412  1.00  0.00    -0.065 N 
HETATM    2  H   UNL     1     -42.919  56.565 -55.368  1.00  0.00     0.280 HD
HETATM    3  C   UNL     1     -43.954  58.355 -55.065  1.00  0.00     0.268 C 
HETATM    4  C   UNL     1     -45.068  58.027 -56.075  1.00  0.00     0.174 C 
HETATM    5  C   UNL     1     -44.560  58.293 -57.513  1.00  0.00     0.220 C 
HETATM    6  C   UNL     1     -43.271  57.536 -57.822  1.00  0.00     0.063 C 
HETATM    7  C   UNL     1     -42.188  57.876 -56.795  1.00  0.00     0.237 C 
ENDROOT
BRANCH   1   8
HETATM    8  C   UNL     1     -41.615  57.726 -54.339  1.00  0.00     0.276 C 
BRANCH   8   9
HETATM    9  C   UNL     1     -41.419  56.443 -53.624  1.00  0.00     0.004 A 
HETATM   10  C   UNL     1     -41.866  56.094 -52.337  1.00  0.00     0.149 A 
HETATM   11  N   UNL     1     -41.608  54.826 -52.037  1.00  0.00    -0.180 NA
HETATM   12  N   UNL     1     -40.898  54.337 -53.081  1.00  0.00    -0.245 N 
HETATM   13  C   UNL     1     -40.769  55.304 -54.065  1.00  0.00     0.129 A 
BRANCH  12  14
HETATM   14  C   UNL     1     -40.458  52.984 -53.113  1.00  0.00     0.058 A 
HETATM   15  C   UNL     1     -39.924  52.407 -51.948  1.00  0.00     0.034 A 
HETATM   16  C   UNL     1     -39.515  51.071 -51.947  1.00  0.00     0.044 A 
HETATM   17  C   UNL     1     -39.638  50.316 -53.106  1.00  0.00     0.116 A 
HETATM   18  C   UNL     1     -40.156  50.873 -54.269  1.00  0.00     0.044 A 
HETATM   19  F   UNL     1     -39.256  49.033 -53.104  1.00  0.00    -0.206 F 
HETATM   20  C   UNL     1     -40.565  52.210 -54.280  1.00  0.00     0.034 A 
ENDBRANCH  12  14
ENDBRANCH   8   9
ENDBRANCH   1   8
BRANCH   4  21
HETATM   21  O   UNL     1     -46.235  58.826 -55.897  1.00  0.00    -0.392 OA
HETATM   22  H   UNL     1     -46.587  58.716 -54.988  1.00  0.00     0.210 HD
ENDBRANCH   4  21
BRANCH   5  23
HETATM   23  N   UNL     1     -45.697  58.003 -58.520  1.00  0.00    -0.064 N 
HETATM   24  H   UNL     1     -46.458  57.661 -57.901  1.00  0.00     0.280 HD
HETATM   25  C   UNL     1     -46.248  59.271 -59.146  1.00  0.00     0.235 C 
HETATM   26  C   UNL     1     -47.580  59.050 -59.857  1.00  0.00     0.028 C 
HETATM   27  C   UNL     1     -47.438  58.322 -61.189  1.00  0.00     0.002 C 
HETATM   28  C   UNL     1     -47.453  56.801 -61.090  1.00  0.00     0.002 C 
HETATM   29  C   UNL     1     -46.716  56.185 -59.906  1.00  0.00     0.028 C 
HETATM   30  C   UNL     1     -45.425  56.890 -59.520  1.00  0.00     0.235 C 
ENDBRANCH   5  23
TORSDOF 5
ENDMDL
MODEL 4
REMARK VINA RESULT:      -7.9      5.450      9.256
REMARK  5 active torsions:
REMARK  status: ('A' for Active; 'I' for Inactive)
REMARK    1  A    between atoms: C_2  and  N_3 
REMARK    2  A    between atoms: C_6  and  C_7 
REMARK    3  A    between atoms: C_7  and  N_8 
REMARK    4  A    between atoms: C_11  and  O_12 
REMARK    5  A    between atoms: C_13  and  N_14 
ROOT
HETATM    1  N   UNL     1     -42.516  57.757 -53.469  1.00  0.00    -0.065 N 
HETATM    2  H   UNL     1     -41.750  57.152 -53.798  1.00  0.00     0.280 HD
HETATM    3  C   UNL     1     -43.796  57.352 -54.175  1.00  0.00     0.268 C 
HETATM    4  C   UNL     1     -43.627  57.522 -55.695  1.00  0.00     0.174 C 
HETATM    5  C   UNL     1     -43.191  58.972 -56.010  1.00  0.00     0.220 C 
HETATM    6  C   UNL     1     -41.931  59.378 -55.249  1.00  0.00     0.063 C 
HETATM    7  C   UNL     1     -42.128  59.188 -53.743  1.00  0.00     0.237 C 
ENDROOT
BRANCH   1   8
HETATM    8  C   UNL     1     -42.567  57.446 -51.967  1.00  0.00     0.276 C 
BRANCH   8   9
HETATM    9  C   UNL     1     -41.794  56.216 -51.675  1.00  0.00     0.004 A 
HETATM   10  C   UNL     1     -41.184  55.844 -50.463  1.00  0.00     0.149 A 
HETATM   11  N   UNL     1     -40.656  54.626 -50.514  1.00  0.00    -0.180 NA
HETATM   12  N   UNL     1     -40.820  54.205 -51.791  1.00  0.00    -0.245 N 
HETATM   13  C   UNL     1     -41.513  55.157 -52.522  1.00  0.00     0.129 A 
BRANCH  12  14
HETATM   14  C   UNL     1     -40.382  52.918 -52.212  1.00  0.00     0.058 A 
HETATM   15  C   UNL     1     -39.929  51.998 -51.251  1.00  0.00     0.034 A 
HETATM   16  C   UNL     1     -39.524  50.718 -51.638  1.00  0.00     0.044 A 
HETATM   17  C   UNL     1     -39.572  50.361 -52.979  1.00  0.00     0.116 A 
HETATM   18  C   UNL     1     -40.009  51.261 -53.944  1.00  0.00     0.044 A 
HETATM   19  F   UNL     1     -39.194  49.131 -53.351  1.00  0.00    -0.206 F 
HETATM   20  C   UNL     1     -40.413  52.545 -53.565  1.00  0.00     0.034 A 
ENDBRANCH  12  14
ENDBRANCH   8   9
ENDBRANCH   1   8
BRANCH   4  21
HETATM   21  O   UNL     1     -44.832  57.288 -56.419  1.00  0.00    -0.392 OA
HETATM   22  H   UNL     1     -44.649  56.758 -57.224  1.00  0.00     0.210 HD
ENDBRANCH   4  21
BRANCH   5  23
HETATM   23  N   UNL     1     -43.064  59.148 -57.541  1.00  0.00    -0.064 N 
HETATM   24  H   UNL     1     -43.991  58.823 -57.878  1.00  0.00     0.280 HD
HETATM   25  C   UNL     1     -42.995  60.609 -57.948  1.00  0.00     0.235 C 
HETATM   26  C   UNL     1     -43.226  60.819 -59.441  1.00  0.00     0.028 C 
HETATM   27  C   UNL     1     -42.034  60.410 -60.299  1.00  0.00     0.002 C 
HETATM   28  C   UNL     1     -42.012  58.939 -60.700  1.00  0.00     0.002 C 
HETATM   29  C   UNL     1     -42.457  57.934 -59.644  1.00  0.00     0.028 C 
HETATM   30  C   UNL     1     -42.028  58.269 -58.223  1.00  0.00     0.235 C 
ENDBRANCH   5  23
TORSDOF 5
ENDMDL
MODEL 5
REMARK VINA RESULT:      -7.8      4.025     10.017
REMARK  5 active torsions:
REMARK  status: ('A' for Active; 'I' for Inactive)
REMARK    1  A    between atoms: C_2  and  N_3 
REMARK    2  A    between atoms: C_6  and  C_7 
REMARK    3  A    between atoms: C_7  and  N_8 
REMARK    4  A    between atoms: C_11  and  O_12 
REMARK    5  A    between atoms: C_13  and  N_14 
ROOT
HETATM    1  N   UNL     1     -42.027  58.614 -53.183  1.00  0.00    -0.065 N 
HETATM    2  H   UNL     1     -42.917  58.130 -52.999  1.00  0.00     0.280 HD
HETATM    3  C   UNL     1     -41.214  58.645 -51.902  1.00  0.00     0.268 C 
HETATM    4  C   UNL     1     -41.992  59.403 -50.812  1.00  0.00     0.174 C 
HETATM    5  C   UNL     1     -42.370  60.812 -51.328  1.00  0.00     0.220 C 
HETATM    6  C   UNL     1     -43.141  60.760 -52.645  1.00  0.00     0.063 C 
HETATM    7  C   UNL     1     -42.346  59.992 -53.704  1.00  0.00     0.237 C 
ENDROOT
BRANCH   1   8
HETATM    8  C   UNL     1     -41.377  57.724 -54.252  1.00  0.00     0.276 C 
BRANCH   8   9
HETATM    9  C   UNL     1     -41.569  56.295 -53.909  1.00  0.00     0.004 A 
HETATM   10  C   UNL     1     -42.774  55.628 -53.626  1.00  0.00     0.149 A 
HETATM   11  N   UNL     1     -42.603  54.321 -53.458  1.00  0.00    -0.180 NA
HETATM   12  N   UNL     1     -41.267  54.111 -53.531  1.00  0.00    -0.245 N 
HETATM   13  C   UNL     1     -40.611  55.301 -53.807  1.00  0.00     0.129 A 
BRANCH  12  14
HETATM   14  C   UNL     1     -40.711  52.807 -53.410  1.00  0.00     0.058 A 
HETATM   15  C   UNL     1     -40.045  52.450 -52.225  1.00  0.00     0.034 A 
HETATM   16  C   UNL     1     -39.519  51.165 -52.072  1.00  0.00     0.044 A 
HETATM   17  C   UNL     1     -39.657  50.242 -53.100  1.00  0.00     0.116 A 
HETATM   18  C   UNL     1     -40.304  50.580 -54.283  1.00  0.00     0.044 A 
HETATM   19  F   UNL     1     -39.163  49.007 -52.952  1.00  0.00    -0.206 F 
HETATM   20  C   UNL     1     -40.831  51.865 -54.445  1.00  0.00     0.034 A 
ENDBRANCH  12  14
ENDBRANCH   8   9
ENDBRANCH   1   8
BRANCH   4  21
HETATM   21  O   UNL     1     -41.237  59.592 -49.618  1.00  0.00    -0.392 OA
HETATM   22  H   UNL     1     -41.622  59.065 -48.885  1.00  0.00     0.210 HD
ENDBRANCH   4  21
BRANCH   5  23
HETATM   23  N   UNL     1     -43.114  61.584 -50.214  1.00  0.00    -0.064 N 
HETATM   24  H   UNL     1     -42.495  61.437 -49.393  1.00  0.00     0.280 HD
HETATM   25  C   UNL     1     -43.100  63.084 -50.446  1.00  0.00     0.235 C 
HETATM   26  C   UNL     1     -43.505  63.878 -49.208  1.00  0.00     0.028 C 
HETATM   27  C   UNL     1     -45.002  63.825 -48.920  1.00  0.00     0.002 C 
HETATM   28  C   UNL     1     -45.447  62.638 -48.074  1.00  0.00     0.002 C 
HETATM   29  C   UNL     1     -44.769  61.302 -48.358  1.00  0.00     0.028 C 
HETATM   30  C   UNL     1     -44.477  61.033 -49.826  1.00  0.00     0.235 C 
ENDBRANCH   5  23
TORSDOF 5
ENDMDL
MODEL 6
REMARK VINA RESULT:      -7.8      3.933     10.114
REMARK  5 active torsions:
REMARK  status: ('A' for Active; 'I' for Inactive)
REMARK    1  A    between atoms: C_2  and  N_3 
REMARK    2  A    between atoms: C_6  and  C_7 
REMARK    3  A    between atoms: C_7  and  N_8 
REMARK    4  A    between atoms: C_11  and  O_12 
REMARK    5  A    between atoms: C_13  and  N_14 
ROOT
HETATM    1  N   UNL     1     -43.345  58.542 -51.947  1.00  0.00    -0.065 N 
HETATM    2  H   UNL     1     -43.033  57.995 -51.132  1.00  0.00     0.280 HD
HETATM    3  C   UNL     1     -42.727  59.925 -51.872  1.00  0.00     0.268 C 
HETATM    4  C   UNL     1     -43.184  60.628 -50.581  1.00  0.00     0.174 C 
HETATM    5  C   UNL     1     -44.730  60.646 -50.518  1.00  0.00     0.220 C 
HETATM    6  C   UNL     1     -45.333  59.250 -50.650  1.00  0.00     0.063 C 
HETATM    7  C   UNL     1     -44.851  58.575 -51.938  1.00  0.00     0.237 C 
ENDROOT
BRANCH   1   8
HETATM    8  C   UNL     1     -42.789  57.731 -53.127  1.00  0.00     0.276 C 
BRANCH   8   9
HETATM    9  C   UNL     1     -42.135  56.496 -52.631  1.00  0.00     0.004 A 
HETATM   10  C   UNL     1     -41.892  56.122 -51.297  1.00  0.00     0.149 A 
HETATM   11  N   UNL     1     -41.377  54.901 -51.199  1.00  0.00    -0.180 NA
HETATM   12  N   UNL     1     -41.178  54.481 -52.471  1.00  0.00    -0.245 N 
HETATM   13  C   UNL     1     -41.633  55.437 -53.367  1.00  0.00     0.129 A 
BRANCH  12  14
HETATM   14  C   UNL     1     -40.646  53.192 -52.754  1.00  0.00     0.058 A 
HETATM   15  C   UNL     1     -39.976  52.487 -51.739  1.00  0.00     0.034 A 
HETATM   16  C   UNL     1     -39.473  51.207 -51.985  1.00  0.00     0.044 A 
HETATM   17  C   UNL     1     -39.638  50.635 -53.240  1.00  0.00     0.116 A 
HETATM   18  C   UNL     1     -40.291  51.321 -54.257  1.00  0.00     0.044 A 
HETATM   19  F   UNL     1     -39.167  49.405 -53.474  1.00  0.00    -0.206 F 
HETATM   20  C   UNL     1     -40.795  52.604 -54.021  1.00  0.00     0.034 A 
ENDBRANCH  12  14
ENDBRANCH   8   9
ENDBRANCH   1   8
BRANCH   4  21
HETATM   21  O   UNL     1     -42.753  61.984 -50.502  1.00  0.00    -0.392 OA
HETATM   22  H   UNL     1     -42.758  62.289 -49.570  1.00  0.00     0.210 HD
ENDBRANCH   4  21
BRANCH   5  23
HETATM   23  N   UNL     1     -45.183  61.390 -49.241  1.00  0.00    -0.064 N 
HETATM   24  H   UNL     1     -44.338  61.942 -48.996  1.00  0.00     0.280 HD
HETATM   25  C   UNL     1     -46.253  62.428 -49.529  1.00  0.00     0.235 C 
HETATM   26  C   UNL     1     -46.457  63.403 -48.374  1.00  0.00     0.028 C 
HETATM   27  C   UNL     1     -47.208  62.794 -47.195  1.00  0.00     0.002 C 
HETATM   28  C   UNL     1     -46.328  62.071 -46.182  1.00  0.00     0.002 C 
HETATM   29  C   UNL     1     -45.174  61.247 -46.742  1.00  0.00     0.028 C 
HETATM   30  C   UNL     1     -45.484  60.511 -48.037  1.00  0.00     0.235 C 
ENDBRANCH   5  23
TORSDOF 5
ENDMDL
MODEL 7
REMARK VINA RESULT:      -7.5      7.293     10.351
REMARK  5 active torsions:
REMARK  status: ('A' for Active; 'I' for Inactive)
REMARK    1  A    between atoms: C_2  and  N_3 
REMARK    2  A    between atoms: C_6  and  C_7 
REMARK    3  A    between atoms: C_7  and  N_8 
REMARK    4  A    between atoms: C_11  and  O_12 
REMARK    5  A    between atoms: C_13  and  N_14 
ROOT
HETATM    1  N   UNL     1     -42.627  56.597 -57.310  1.00  0.00    -0.065 N 
HETATM    2  H   UNL     1     -41.713  56.762 -56.866  1.00  0.00     0.280 HD
HETATM    3  C   UNL     1     -42.425  56.455 -58.807  1.00  0.00     0.268 C 
HETATM    4  C   UNL     1     -41.808  57.746 -59.372  1.00  0.00     0.174 C 
HETATM    5  C   UNL     1     -42.693  58.956 -58.989  1.00  0.00     0.220 C 
HETATM    6  C   UNL     1     -42.928  59.050 -57.484  1.00  0.00     0.063 C 
HETATM    7  C   UNL     1     -43.533  57.748 -56.952  1.00  0.00     0.237 C 
ENDROOT
BRANCH   1   8
HETATM    8  C   UNL     1     -43.080  55.279 -56.666  1.00  0.00     0.276 C 
BRANCH   8   9
HETATM    9  C   UNL     1     -42.105  54.857 -55.632  1.00  0.00     0.004 A 
HETATM   10  C   UNL     1     -41.113  55.636 -55.011  1.00  0.00     0.149 A 
HETATM   11  N   UNL     1     -40.475  54.974 -54.052  1.00  0.00    -0.180 NA
HETATM   12  N   UNL     1     -40.967  53.712 -54.085  1.00  0.00    -0.245 N 
HETATM   13  C   UNL     1     -41.965  53.613 -55.042  1.00  0.00     0.129 A 
BRANCH  12  14
HETATM   14  C   UNL     1     -40.519  52.715 -53.173  1.00  0.00     0.058 A 
HETATM   15  C   UNL     1     -40.028  51.497 -53.673  1.00  0.00     0.034 A 
HETATM   16  C   UNL     1     -39.554  50.517 -52.798  1.00  0.00     0.044 A 
HETATM   17  C   UNL     1     -39.572  50.753 -51.430  1.00  0.00     0.116 A 
HETATM   18  C   UNL     1     -40.062  51.948 -50.917  1.00  0.00     0.044 A 
HETATM   19  F   UNL     1     -39.109  49.819 -50.590  1.00  0.00    -0.206 F 
HETATM   20  C   UNL     1     -40.541  52.934 -51.786  1.00  0.00     0.034 A 
ENDBRANCH  12  14
ENDBRANCH   8   9
ENDBRANCH   1   8
BRANCH   4  21
HETATM   21  O   UNL     1     -41.710  57.742 -60.794  1.00  0.00    -0.392 OA
HETATM   22  H   UNL     1     -40.981  57.152 -61.083  1.00  0.00     0.210 HD
ENDBRANCH   4  21
BRANCH   5  23
HETATM   23  N   UNL     1     -42.090  60.245 -59.595  1.00  0.00    -0.064 N 
HETATM   24  H   UNL     1     -41.285  59.877 -60.139  1.00  0.00     0.280 HD
HETATM   25  C   UNL     1     -43.003  60.873 -60.633  1.00  0.00     0.235 C 
HETATM   26  C   UNL     1     -42.295  61.921 -61.487  1.00  0.00     0.028 C 
HETATM   27  C   UNL     1     -42.047  63.232 -60.750  1.00  0.00     0.002 C 
HETATM   28  C   UNL     1     -40.750  63.279 -59.950  1.00  0.00     0.002 C 
HETATM   29  C   UNL     1     -40.355  62.007 -59.209  1.00  0.00     0.028 C 
HETATM   30  C   UNL     1     -41.516  61.238 -58.597  1.00  0.00     0.235 C 
ENDBRANCH   5  23
TORSDOF 5
ENDMDL
MODEL 8
REMARK VINA RESULT:      -7.5      4.229     10.094
REMARK  5 active torsions:
REMARK  status: ('A' for Active; 'I' for Inactive)
REMARK    1  A    between atoms: C_2  and  N_3 
REMARK    2  A    between atoms: C_6  and  C_7 
REMARK    3  A    between atoms: C_7  and  N_8 
REMARK    4  A    between atoms: C_11  and  O_12 
REMARK    5  A    between atoms: C_13  and  N_14 
ROOT
HETATM    1  N   UNL     1     -42.636  58.488 -53.670  1.00  0.00    -0.065 N 
HETATM    2  H   UNL     1     -41.949  58.371 -52.911  1.00  0.00     0.280 HD
HETATM    3  C   UNL     1     -42.397  59.826 -54.344  1.00  0.00     0.268 C 
HETATM    4  C   UNL     1     -42.571  60.960 -53.320  1.00  0.00     0.174 C 
HETATM    5  C   UNL     1     -43.964  60.853 -52.656  1.00  0.00     0.220 C 
HETATM    6  C   UNL     1     -44.205  59.481 -52.031  1.00  0.00     0.063 C 
HETATM    7  C   UNL     1     -44.015  58.375 -53.072  1.00  0.00     0.237 C 
ENDROOT
BRANCH   1   8
HETATM    8  C   UNL     1     -42.308  57.311 -54.601  1.00  0.00     0.276 C 
BRANCH   8   9
HETATM    9  C   UNL     1     -41.696  56.205 -53.827  1.00  0.00     0.004 A 
HETATM   10  C   UNL     1     -41.388  56.177 -52.455  1.00  0.00     0.149 A 
HETATM   11  N   UNL     1     -40.940  54.991 -52.060  1.00  0.00    -0.180 NA
HETATM   12  N   UNL     1     -40.850  54.238 -53.182  1.00  0.00    -0.245 N 
HETATM   13  C   UNL     1     -41.307  54.956 -54.276  1.00  0.00     0.129 A 
BRANCH  12  14
HETATM   14  C   UNL     1     -40.415  52.884 -53.136  1.00  0.00     0.058 A 
HETATM   15  C   UNL     1     -39.892  52.370 -51.937  1.00  0.00     0.034 A 
HETATM   16  C   UNL     1     -39.487  51.035 -51.860  1.00  0.00     0.044 A 
HETATM   17  C   UNL     1     -39.604  50.218 -52.977  1.00  0.00     0.116 A 
HETATM   18  C   UNL     1     -40.111  50.712 -54.174  1.00  0.00     0.044 A 
HETATM   19  F   UNL     1     -39.227  48.936 -52.903  1.00  0.00    -0.206 F 
HETATM   20  C   UNL     1     -40.515  52.048 -54.260  1.00  0.00     0.034 A 
ENDBRANCH  12  14
ENDBRANCH   8   9
ENDBRANCH   1   8
BRANCH   4  21
HETATM   21  O   UNL     1     -42.493  62.257 -53.907  1.00  0.00    -0.392 OA
HETATM   22  H   UNL     1     -43.145  62.860 -53.488  1.00  0.00     0.210 HD
ENDBRANCH   4  21
BRANCH   5  23
HETATM   23  N   UNL     1     -44.149  62.020 -51.659  1.00  0.00    -0.064 N 
HETATM   24  H   UNL     1     -44.101  62.851 -52.281  1.00  0.00     0.280 HD
HETATM   25  C   UNL     1     -45.549  62.058 -51.072  1.00  0.00     0.235 C 
HETATM   26  C   UNL     1     -45.862  63.379 -50.376  1.00  0.00     0.028 C 
HETATM   27  C   UNL     1     -45.172  63.528 -49.025  1.00  0.00     0.002 C 
HETATM   28  C   UNL     1     -43.765  64.112 -49.088  1.00  0.00     0.002 C 
HETATM   29  C   UNL     1     -42.885  63.654 -50.246  1.00  0.00     0.028 C 
HETATM   30  C   UNL     1     -43.043  62.191 -50.629  1.00  0.00     0.235 C 
ENDBRANCH   5  23
TORSDOF 5
ENDMDL
MODEL 9
REMARK VINA RESULT:      -7.5      5.259      9.602
REMARK  5 active torsions:
REMARK  status: ('A' for Active; 'I' for Inactive)
REMARK    1  A    between atoms: C_2  and  N_3 
REMARK    2  A    between atoms: C_6  and  C_7 
REMARK    3  A    between atoms: C_7  and  N_8 
REMARK    4  A    between atoms: C_11  and  O_12 
REMARK    5  A    between atoms: C_13  and  N_14 
ROOT
HETATM    1  N   UNL     1     -41.745  57.151 -51.130  1.00  0.00    -0.065 N 
HETATM    2  H   UNL     1     -41.147  56.723 -51.851  1.00  0.00     0.280 HD
HETATM    3  C   UNL     1     -43.196  56.865 -51.465  1.00  0.00     0.268 C 
HETATM    4  C   UNL     1     -43.541  57.469 -52.837  1.00  0.00     0.174 C 
HETATM    5  C   UNL     1     -43.201  58.978 -52.841  1.00  0.00     0.220 C 
HETATM    6  C   UNL     1     -41.751  59.248 -52.449  1.00  0.00     0.063 C 
HETATM    7  C   UNL     1     -41.437  58.626 -51.085  1.00  0.00     0.237 C 
ENDROOT
BRANCH   1   8
HETATM    8  C   UNL     1     -41.298  56.426 -49.852  1.00  0.00     0.276 C 
BRANCH   8   9
HETATM    9  C   UNL     1     -40.831  55.058 -50.181  1.00  0.00     0.004 A 
HETATM   10  C   UNL     1     -40.425  54.047 -49.292  1.00  0.00     0.149 A 
HETATM   11  N   UNL     1     -40.164  52.901 -49.913  1.00  0.00    -0.180 NA
HETATM   12  N   UNL     1     -40.298  53.159 -51.235  1.00  0.00    -0.245 N 
HETATM   13  C   UNL     1     -40.706  54.470 -51.427  1.00  0.00     0.129 A 
BRANCH  12  14
HETATM   14  C   UNL     1     -40.106  52.144 -52.214  1.00  0.00     0.058 A 
HETATM   15  C   UNL     1     -39.664  50.873 -51.809  1.00  0.00     0.034 A 
HETATM   16  C   UNL     1     -39.499  49.852 -52.748  1.00  0.00     0.044 A 
HETATM   17  C   UNL     1     -39.774  50.101 -54.086  1.00  0.00     0.116 A 
HETATM   18  C   UNL     1     -40.204  51.355 -54.506  1.00  0.00     0.044 A 
HETATM   19  F   UNL     1     -39.627  49.122 -54.987  1.00  0.00    -0.206 F 
HETATM   20  C   UNL     1     -40.369  52.383 -53.573  1.00  0.00     0.034 A 
ENDBRANCH  12  14
ENDBRANCH   8   9
ENDBRANCH   1   8
BRANCH   4  21
HETATM   21  O   UNL     1     -44.924  57.358 -53.163  1.00  0.00    -0.392 OA
HETATM   22  H   UNL     1     -45.369  58.226 -53.062  1.00  0.00     0.210 HD
ENDBRANCH   4  21
BRANCH   5  23
HETATM   23  N   UNL     1     -43.589  59.588 -54.208  1.00  0.00    -0.064 N 
HETATM   24  H   UNL     1     -44.059  58.791 -54.679  1.00  0.00     0.280 HD
HETATM   25  C   UNL     1     -44.666  60.651 -54.078  1.00  0.00     0.235 C 
HETATM   26  C   UNL     1     -45.309  61.007 -55.415  1.00  0.00     0.028 C 
HETATM   27  C   UNL     1     -44.416  61.864 -56.305  1.00  0.00     0.002 C 
HETATM   28  C   UNL     1     -43.455  61.077 -57.190  1.00  0.00     0.002 C 
HETATM   29  C   UNL     1     -42.804  59.846 -56.570  1.00  0.00     0.028 C 
HETATM   30  C   UNL     1     -42.429  59.992 -55.104  1.00  0.00     0.235 C 
ENDBRANCH   5  23
TORSDOF 5
ENDMDL
MODEL 10
REMARK VINA RESULT:      -7.3      5.681      8.675
REMARK  5 active torsions:
REMARK  status: ('A' for Active; 'I' for Inactive)
REMARK    1  A    between atoms: C_2  and  N_3 
REMARK    2  A    between atoms: C_6  and  C_7 
REMARK    3  A    between atoms: C_7  and  N_8 
REMARK    4  A    between atoms: C_11  and  O_12 
REMARK    5  A    between atoms: C_13  and  N_14 
ROOT
HETATM    1  N   UNL     1     -43.720  58.416 -53.744  1.00  0.00    -0.065 N 
HETATM    2  H   UNL     1     -43.447  57.857 -54.564  1.00  0.00     0.280 HD
HETATM    3  C   UNL     1     -42.467  58.956 -53.081  1.00  0.00     0.268 C 
HETATM    4  C   UNL     1     -41.576  57.787 -52.627  1.00  0.00     0.174 C 
HETATM    5  C   UNL     1     -42.388  56.838 -51.714  1.00  0.00     0.220 C 
HETATM    6  C   UNL     1     -43.672  56.350 -52.379  1.00  0.00     0.063 C 
HETATM    7  C   UNL     1     -44.530  57.536 -52.827  1.00  0.00     0.237 C 
ENDROOT
BRANCH   1   8
HETATM    8  C   UNL     1     -44.564  59.536 -54.369  1.00  0.00     0.276 C 
BRANCH   8   9
HETATM    9  C   UNL     1     -44.997  59.146 -55.732  1.00  0.00     0.004 A 
HETATM   10  C   UNL     1     -45.782  59.887 -56.635  1.00  0.00     0.149 A 
HETATM   11  N   UNL     1     -45.899  59.287 -57.814  1.00  0.00    -0.180 NA
HETATM   12  N   UNL     1     -45.277  58.091 -57.684  1.00  0.00    -0.245 N 
HETATM   13  C   UNL     1     -44.716  57.980 -56.421  1.00  0.00     0.129 A 
BRANCH  12  14
HETATM   14  C   UNL     1     -45.191  57.176 -58.770  1.00  0.00     0.058 A 
HETATM   15  C   UNL     1     -46.331  56.928 -59.553  1.00  0.00     0.034 A 
HETATM   16  C   UNL     1     -46.261  56.057 -60.643  1.00  0.00     0.044 A 
HETATM   17  C   UNL     1     -45.057  55.436 -60.948  1.00  0.00     0.116 A 
HETATM   18  C   UNL     1     -43.922  55.662 -60.179  1.00  0.00     0.044 A 
HETATM   19  F   UNL     1     -44.986  54.609 -61.998  1.00  0.00    -0.206 F 
HETATM   20  C   UNL     1     -43.984  56.530 -59.084  1.00  0.00     0.034 A 
ENDBRANCH  12  14
ENDBRANCH   8   9
ENDBRANCH   1   8
BRANCH   4  21
HETATM   21  O   UNL     1     -40.441  58.210 -51.876  1.00  0.00    -0.392 OA
HETATM   22  H   UNL     1     -40.686  58.944 -51.273  1.00  0.00     0.210 HD
ENDBRANCH   4  21
BRANCH   5  23
HETATM   23  N   UNL     1     -41.476  55.689 -51.227  1.00  0.00    -0.064 N 
HETATM   24  H   UNL     1     -40.533  56.020 -51.510  1.00  0.00     0.280 HD
HETATM   25  C   UNL     1     -41.417  55.603 -49.712  1.00  0.00     0.235 C 
HETATM   26  C   UNL     1     -40.271  54.729 -49.213  1.00  0.00     0.028 C 
HETATM   27  C   UNL     1     -40.526  53.237 -49.398  1.00  0.00     0.002 C 
HETATM   28  C   UNL     1     -40.109  52.682 -50.755  1.00  0.00     0.002 C 
HETATM   29  C   UNL     1     -40.378  53.565 -51.968  1.00  0.00     0.028 C 
HETATM   30  C   UNL     1     -41.681  54.347 -51.913  1.00  0.00     0.235 C 
ENDBRANCH   5  23
TORSDOF 5
ENDMDL
