MODEL 1
REMARK VINA RESULT:      -8.3      0.000      0.000
REMARK  4 active torsions:
REMARK  status: ('A' for Active; 'I' for Inactive)
REMARK    1  A    between atoms: C_4  and  C_5 
REMARK    2  A    between atoms: C_9  and  C_10 
REMARK       I    between atoms: C_10  and  N_11 
REMARK    3  A    between atoms: N_11  and  C_12 
REMARK    4  A    between atoms: C_13  and  O_14 
ROOT
HETATM    1  C   UNL     1     -41.109  55.625 -54.569  1.00  0.00     0.270 C 
HETATM    2  N   UNL     1     -41.159  54.306 -54.201  1.00  0.00    -0.344 N 
HETATM    3  O   UNL     1     -40.370  56.431 -54.012  1.00  0.00    -0.266 OA
HETATM    4  H   UNL     1     -41.892  53.707 -54.553  1.00  0.00     0.163 HD
ENDROOT
BRANCH   1   5
HETATM    5  C   UNL     1     -42.005  56.003 -55.624  1.00  0.00     0.120 A 
HETATM    6  N   UNL     1     -42.320  57.313 -55.868  1.00  0.00    -0.272 N 
HETATM    7  N   UNL     1     -43.160  57.495 -56.898  1.00  0.00    -0.173 NA
HETATM    8  H   UNL     1     -41.985  58.125 -55.357  1.00  0.00     0.189 HD
HETATM    9  C   UNL     1     -43.375  56.258 -57.365  1.00  0.00     0.096 A 
HETATM   10  C   UNL     1     -42.688  55.291 -56.591  1.00  0.00     0.071 A 
BRANCH   9  11
HETATM   11  C   UNL     1     -44.225  55.997 -58.573  1.00  0.00     0.035 A 
HETATM   12  S   UNL     1     -45.518  56.991 -59.080  1.00  0.00    -0.093 SA
HETATM   13  C   UNL     1     -45.893  55.962 -60.394  1.00  0.00    -0.021 A 
HETATM   14  C   UNL     1     -47.031  56.277 -61.303  1.00  0.00     0.056 C 
HETATM   15  C   UNL     1     -45.027  54.890 -60.459  1.00  0.00     0.015 A 
HETATM   16  C   UNL     1     -44.065  54.910 -59.407  1.00  0.00     0.022 A 
ENDBRANCH   9  11
ENDBRANCH   1   5
BRANCH   2  17
HETATM   17  C   UNL     1     -40.276  53.767 -53.189  1.00  0.00     0.147 C 
HETATM   18  C   UNL     1     -40.833  53.879 -51.737  1.00  0.00     0.149 C 
HETATM   19  C   UNL     1     -40.263  52.674 -50.966  1.00  0.00     0.073 C 
HETATM   20  C   UNL     1     -40.071  51.668 -52.065  1.00  0.00    -0.047 A 
HETATM   21  C   UNL     1     -40.075  52.283 -53.323  1.00  0.00    -0.027 A 
HETATM   22  C   UNL     1     -39.860  50.306 -51.933  1.00  0.00     0.008 A 
HETATM   23  C   UNL     1     -39.853  51.540 -54.474  1.00  0.00     0.010 A 
HETATM   24  C   UNL     1     -39.655  50.163 -54.352  1.00  0.00     0.001 A 
HETATM   25  C   UNL     1     -39.660  49.550 -53.089  1.00  0.00     0.001 A 
BRANCH  18  26
HETATM   26  O   UNL     1     -42.270  53.805 -51.708  1.00  0.00    -0.393 OA
HETATM   27  H   UNL     1     -42.588  54.534 -52.269  1.00  0.00     0.210 HD
ENDBRANCH  18  26
ENDBRANCH   2  17
TORSDOF 4
ENDMDL
MODEL 2
REMARK VINA RESULT:      -8.2      3.073      8.827
REMARK  4 active torsions:
REMARK  status: ('A' for Active; 'I' for Inactive)
REMARK    1  A    between atoms: C_4  and  C_5 
REMARK    2  A    between atoms: C_9  and  C_10 
REMARK       I    between atoms: C_10  and  N_11 
REMARK    3  A    between atoms: N_11  and  C_12 
REMARK    4  A    between atoms: C_13  and  O_14 
ROOT
HETATM    1  C   UNL     1     -42.826  55.947 -56.854  1.00  0.00     0.270 C 
HETATM    2  N   UNL     1     -43.654  55.232 -57.679  1.00  0.00    -0.344 N 
HETATM    3  O   UNL     1     -42.177  56.909 -57.253  1.00  0.00    -0.266 OA
HETATM    4  H   UNL     1     -44.038  54.349 -57.374  1.00  0.00     0.163 HD
ENDROOT
BRANCH   1   5
HETATM    5  C   UNL     1     -42.743  55.469 -55.503  1.00  0.00     0.120 A 
HETATM    6  N   UNL     1     -43.852  55.059 -54.814  1.00  0.00    -0.272 N 
HETATM    7  N   UNL     1     -43.599  54.628 -53.568  1.00  0.00    -0.173 NA
HETATM    8  H   UNL     1     -44.811  55.052 -55.152  1.00  0.00     0.189 HD
HETATM    9  C   UNL     1     -42.269  54.730 -53.453  1.00  0.00     0.096 A 
HETATM   10  C   UNL     1     -41.691  55.267 -54.630  1.00  0.00     0.071 A 
BRANCH   9  11
HETATM   11  C   UNL     1     -41.539  54.294 -52.218  1.00  0.00     0.035 A 
HETATM   12  S   UNL     1     -41.841  54.897 -50.649  1.00  0.00    -0.093 SA
HETATM   13  C   UNL     1     -40.602  53.941 -49.960  1.00  0.00    -0.021 A 
HETATM   14  C   UNL     1     -40.309  54.017 -48.501  1.00  0.00     0.056 C 
HETATM   15  C   UNL     1     -39.985  53.153 -50.910  1.00  0.00     0.015 A 
HETATM   16  C   UNL     1     -40.525  53.358 -52.214  1.00  0.00     0.022 A 
ENDBRANCH   9  11
ENDBRANCH   1   5
BRANCH   2  17
HETATM   17  C   UNL     1     -43.878  55.626 -59.053  1.00  0.00     0.147 C 
HETATM   18  C   UNL     1     -44.290  54.451 -59.991  1.00  0.00     0.149 C 
HETATM   19  C   UNL     1     -45.198  55.065 -61.073  1.00  0.00     0.073 C 
HETATM   20  C   UNL     1     -45.792  56.239 -60.347  1.00  0.00    -0.047 A 
HETATM   21  C   UNL     1     -45.047  56.561 -59.206  1.00  0.00    -0.027 A 
HETATM   22  C   UNL     1     -46.896  56.989 -60.717  1.00  0.00     0.008 A 
HETATM   23  C   UNL     1     -45.390  57.653 -58.422  1.00  0.00     0.010 A 
HETATM   24  C   UNL     1     -46.511  58.406 -58.779  1.00  0.00     0.001 A 
HETATM   25  C   UNL     1     -47.260  58.074 -59.919  1.00  0.00     0.001 A 
BRANCH  18  26
HETATM   26  O   UNL     1     -45.034  53.440 -59.288  1.00  0.00    -0.393 OA
HETATM   27  H   UNL     1     -44.887  53.609 -58.341  1.00  0.00     0.210 HD
ENDBRANCH  18  26
ENDBRANCH   2  17
TORSDOF 4
ENDMDL
MODEL 3
REMARK VINA RESULT:      -7.9      1.580      2.367
REMARK  4 active torsions:
REMARK  status: ('A' for Active; 'I' for Inactive)
REMARK    1  A    between atoms: C_4  and  C_5 
REMARK    2  A    between atoms: C_9  and  C_10 
REMARK       I    between atoms: C_10  and  N_11 
REMARK    3  A    between atoms: N_11  and  C_12 
REMARK    4  A    between atoms: C_13  and  O_14 
ROOT
HETATM    1  C   UNL     1     -42.302  56.848 -55.801  1.00  0.00     0.270 C 
HETATM    2  N   UNL     1     -42.097  55.656 -55.155  1.00  0.00    -0.344 N 
HETATM    3  O   UNL     1     -41.926  57.918 -55.334  1.00  0.00    -0.266 OA
HETATM    4  H   UNL     1     -42.564  54.819 -55.471  1.00  0.00     0.163 HD
ENDROOT
BRANCH   1   5
HETATM    5  C   UNL     1     -43.020  56.758 -57.041  1.00  0.00     0.120 A 
HETATM    6  N   UNL     1     -42.567  55.995 -58.083  1.00  0.00    -0.272 N 
HETATM    7  N   UNL     1     -43.362  56.010 -59.164  1.00  0.00    -0.173 NA
HETATM    8  H   UNL     1     -41.715  55.441 -58.106  1.00  0.00     0.189 HD
HETATM    9  C   UNL     1     -44.391  56.786 -58.799  1.00  0.00     0.096 A 
HETATM   10  C   UNL     1     -44.214  57.291 -57.487  1.00  0.00     0.071 A 
BRANCH   9  11
HETATM   11  C   UNL     1     -45.563  57.032 -59.701  1.00  0.00     0.035 A 
HETATM   12  S   UNL     1     -46.120  58.579 -60.165  1.00  0.00    -0.093 SA
HETATM   13  C   UNL     1     -47.413  57.924 -61.073  1.00  0.00    -0.021 A 
HETATM   14  C   UNL     1     -48.373  58.819 -61.779  1.00  0.00     0.056 C 
HETATM   15  C   UNL     1     -47.404  56.545 -61.044  1.00  0.00     0.015 A 
HETATM   16  C   UNL     1     -46.337  56.030 -60.250  1.00  0.00     0.022 A 
ENDBRANCH   9  11
ENDBRANCH   1   5
BRANCH   2  17
HETATM   17  C   UNL     1     -41.343  55.584 -53.921  1.00  0.00     0.147 C 
HETATM   18  C   UNL     1     -42.196  55.838 -52.641  1.00  0.00     0.149 C 
HETATM   19  C   UNL     1     -41.545  55.005 -51.522  1.00  0.00     0.073 C 
HETATM   20  C   UNL     1     -40.915  53.883 -52.298  1.00  0.00    -0.047 A 
HETATM   21  C   UNL     1     -40.797  54.207 -53.654  1.00  0.00    -0.027 A 
HETATM   22  C   UNL     1     -40.442  52.679 -51.804  1.00  0.00     0.008 A 
HETATM   23  C   UNL     1     -40.187  53.332 -54.541  1.00  0.00     0.010 A 
HETATM   24  C   UNL     1     -39.720  52.108 -54.055  1.00  0.00     0.001 A 
HETATM   25  C   UNL     1     -39.849  51.784 -52.696  1.00  0.00     0.001 A 
BRANCH  18  26
HETATM   26  O   UNL     1     -43.556  55.398 -52.808  1.00  0.00    -0.393 OA
HETATM   27  H   UNL     1     -44.115  56.166 -52.596  1.00  0.00     0.210 HD
ENDBRANCH  18  26
ENDBRANCH   2  17
TORSDOF 4
ENDMDL
MODEL 4
REMARK VINA RESULT:      -7.9     14.002     15.399
REMARK  4 active torsions:
REMARK  status: ('A' for Active; 'I' for Inactive)
REMARK    1  A    between atoms: C_4  and  C_5 
REMARK    2  A    between atoms: C_9  and  C_10 
REMARK       I    between atoms: C_10  and  N_11 
REMARK    3  A    between atoms: N_11  and  C_12 
REMARK    4  A    between atoms: C_13  and  O_14 
ROOT
HETATM    1  C   UNL     1     -35.700  41.980 -53.261  1.00  0.00     0.270 C 
HETATM    2  N   UNL     1     -35.994  40.792 -52.644  1.00  0.00    -0.344 N 
HETATM    3  O   UNL     1     -35.483  43.009 -52.629  1.00  0.00    -0.266 OA
HETATM    4  H   UNL     1     -36.336  40.010 -53.183  1.00  0.00     0.163 HD
ENDROOT
BRANCH   1   5
HETATM    5  C   UNL     1     -35.699  41.943 -54.696  1.00  0.00     0.120 A 
HETATM    6  N   UNL     1     -34.616  42.352 -55.428  1.00  0.00    -0.272 N 
HETATM    7  N   UNL     1     -34.774  42.239 -56.756  1.00  0.00    -0.173 NA
HETATM    8  H   UNL     1     -33.740  42.717 -55.066  1.00  0.00     0.189 HD
HETATM    9  C   UNL     1     -35.994  41.704 -56.894  1.00  0.00     0.096 A 
HETATM   10  C   UNL     1     -36.618  41.517 -55.635  1.00  0.00     0.071 A 
BRANCH   9  11
HETATM   11  C   UNL     1     -36.563  41.349 -58.235  1.00  0.00     0.035 A 
HETATM   12  S   UNL     1     -36.601  39.770 -58.884  1.00  0.00    -0.093 SA
HETATM   13  C   UNL     1     -37.318  40.304 -60.342  1.00  0.00    -0.021 A 
HETATM   14  C   UNL     1     -37.623  39.339 -61.436  1.00  0.00     0.056 C 
HETATM   15  C   UNL     1     -37.550  41.664 -60.322  1.00  0.00     0.015 A 
HETATM   16  C   UNL     1     -37.112  42.268 -59.106  1.00  0.00     0.022 A 
ENDBRANCH   9  11
ENDBRANCH   1   5
BRANCH   2  17
HETATM   17  C   UNL     1     -35.980  40.664 -51.203  1.00  0.00     0.147 C 
HETATM   18  C   UNL     1     -36.968  39.591 -50.652  1.00  0.00     0.149 C 
HETATM   19  C   UNL     1     -36.325  39.038 -49.366  1.00  0.00     0.073 C 
HETATM   20  C   UNL     1     -34.862  39.242 -49.641  1.00  0.00    -0.047 A 
HETATM   21  C   UNL     1     -34.663  40.163 -50.677  1.00  0.00    -0.027 A 
HETATM   22  C   UNL     1     -33.792  38.673 -48.971  1.00  0.00     0.008 A 
HETATM   23  C   UNL     1     -33.381  40.541 -51.051  1.00  0.00     0.010 A 
HETATM   24  C   UNL     1     -32.295  39.961 -50.391  1.00  0.00     0.001 A 
HETATM   25  C   UNL     1     -32.500  39.032 -49.360  1.00  0.00     0.001 A 
BRANCH  18  26
HETATM   26  O   UNL     1     -37.150  38.505 -51.578  1.00  0.00    -0.393 OA
HETATM   27  H   UNL     1     -38.063  38.193 -51.450  1.00  0.00     0.210 HD
ENDBRANCH  18  26
ENDBRANCH   2  17
TORSDOF 4
ENDMDL
MODEL 5
REMARK VINA RESULT:      -7.5      2.934      4.242
REMARK  4 active torsions:
REMARK  status: ('A' for Active; 'I' for Inactive)
REMARK    1  A    between atoms: C_4  and  C_5 
REMARK    2  A    between atoms: C_9  and  C_10 
REMARK       I    between atoms: C_10  and  N_11 
REMARK    3  A    between atoms: N_11  and  C_12 
REMARK    4  A    between atoms: C_13  and  O_14 
ROOT
HETATM    1  C   UNL     1     -42.847  54.557 -55.600  1.00  0.00     0.270 C 
HETATM    2  N   UNL     1     -41.897  54.646 -54.616  1.00  0.00    -0.344 N 
HETATM    3  O   UNL     1     -43.620  53.608 -55.679  1.00  0.00    -0.266 OA
HETATM    4  H   UNL     1     -41.168  55.342 -54.674  1.00  0.00     0.163 HD
ENDROOT
BRANCH   1   5
HETATM    5  C   UNL     1     -42.849  55.633 -56.551  1.00  0.00     0.120 A 
HETATM    6  N   UNL     1     -43.647  55.611 -57.663  1.00  0.00    -0.272 N 
HETATM    7  N   UNL     1     -43.539  56.699 -58.441  1.00  0.00    -0.173 NA
HETATM    8  H   UNL     1     -44.288  54.871 -57.938  1.00  0.00     0.189 HD
HETATM    9  C   UNL     1     -42.661  57.476 -57.792  1.00  0.00     0.096 A 
HETATM   10  C   UNL     1     -42.189  56.844 -56.615  1.00  0.00     0.071 A 
BRANCH   9  11
HETATM   11  C   UNL     1     -42.284  58.840 -58.288  1.00  0.00     0.035 A 
HETATM   12  S   UNL     1     -42.224  59.289 -59.935  1.00  0.00    -0.093 SA
HETATM   13  C   UNL     1     -41.692  60.871 -59.561  1.00  0.00    -0.021 A 
HETATM   14  C   UNL     1     -41.411  61.853 -60.647  1.00  0.00     0.056 C 
HETATM   15  C   UNL     1     -41.589  61.061 -58.199  1.00  0.00     0.015 A 
HETATM   16  C   UNL     1     -41.929  59.887 -57.463  1.00  0.00     0.022 A 
ENDBRANCH   9  11
ENDBRANCH   1   5
BRANCH   2  17
HETATM   17  C   UNL     1     -41.809  53.663 -53.557  1.00  0.00     0.147 C 
HETATM   18  C   UNL     1     -40.773  52.530 -53.828  1.00  0.00     0.149 C 
HETATM   19  C   UNL     1     -40.243  52.097 -52.449  1.00  0.00     0.073 C 
HETATM   20  C   UNL     1     -40.408  53.356 -51.646  1.00  0.00    -0.047 A 
HETATM   21  C   UNL     1     -41.295  54.243 -52.268  1.00  0.00    -0.027 A 
HETATM   22  C   UNL     1     -39.836  53.656 -50.421  1.00  0.00     0.008 A 
HETATM   23  C   UNL     1     -41.636  55.444 -51.662  1.00  0.00     0.010 A 
HETATM   24  C   UNL     1     -41.051  55.762 -50.434  1.00  0.00     0.001 A 
HETATM   25  C   UNL     1     -40.156  54.874 -49.819  1.00  0.00     0.001 A 
BRANCH  18  26
HETATM   26  O   UNL     1     -39.666  52.996 -54.620  1.00  0.00    -0.393 OA
HETATM   27  H   UNL     1     -39.895  53.901 -54.896  1.00  0.00     0.210 HD
ENDBRANCH  18  26
ENDBRANCH   2  17
TORSDOF 4
ENDMDL
MODEL 6
REMARK VINA RESULT:      -7.4      5.293      7.062
REMARK  4 active torsions:
REMARK  status: ('A' for Active; 'I' for Inactive)
REMARK    1  A    between atoms: C_4  and  C_5 
REMARK    2  A    between atoms: C_9  and  C_10 
REMARK       I    between atoms: C_10  and  N_11 
REMARK    3  A    between atoms: N_11  and  C_12 
REMARK    4  A    between atoms: C_13  and  O_14 
ROOT
HETATM    1  C   UNL     1     -42.915  56.664 -52.982  1.00  0.00     0.270 C 
HETATM    2  N   UNL     1     -41.793  55.878 -52.980  1.00  0.00    -0.344 N 
HETATM    3  O   UNL     1     -43.953  56.322 -53.539  1.00  0.00    -0.266 OA
HETATM    4  H   UNL     1     -40.909  56.253 -52.668  1.00  0.00     0.163 HD
ENDROOT
BRANCH   1   5
HETATM    5  C   UNL     1     -42.779  57.930 -52.318  1.00  0.00     0.120 A 
HETATM    6  N   UNL     1     -41.614  58.648 -52.365  1.00  0.00    -0.272 N 
HETATM    7  N   UNL     1     -41.658  59.815 -51.705  1.00  0.00    -0.173 NA
HETATM    8  H   UNL     1     -40.754  58.382 -52.838  1.00  0.00     0.189 HD
HETATM    9  C   UNL     1     -42.912  59.877 -51.238  1.00  0.00     0.096 A 
HETATM   10  C   UNL     1     -43.645  58.714 -51.581  1.00  0.00     0.071 A 
BRANCH   9  11
HETATM   11  C   UNL     1     -43.423  61.063 -50.476  1.00  0.00     0.035 A 
HETATM   12  S   UNL     1     -44.775  61.035 -49.433  1.00  0.00    -0.093 SA
HETATM   13  C   UNL     1     -44.640  62.705 -49.090  1.00  0.00    -0.021 A 
HETATM   14  C   UNL     1     -45.612  63.374 -48.180  1.00  0.00     0.056 C 
HETATM   15  C   UNL     1     -43.561  63.269 -49.741  1.00  0.00     0.015 A 
HETATM   16  C   UNL     1     -42.860  62.321 -50.543  1.00  0.00     0.022 A 
ENDBRANCH   9  11
ENDBRANCH   1   5
BRANCH   2  17
HETATM   17  C   UNL     1     -41.795  54.554 -53.564  1.00  0.00     0.147 C 
HETATM   18  C   UNL     1     -41.047  54.461 -54.929  1.00  0.00     0.149 C 
HETATM   19  C   UNL     1     -40.473  53.034 -55.005  1.00  0.00     0.073 C 
HETATM   20  C   UNL     1     -40.292  52.696 -53.552  1.00  0.00    -0.047 A 
HETATM   21  C   UNL     1     -41.040  53.551 -52.735  1.00  0.00    -0.027 A 
HETATM   22  C   UNL     1     -39.544  51.662 -53.014  1.00  0.00     0.008 A 
HETATM   23  C   UNL     1     -41.062  53.375 -51.358  1.00  0.00     0.010 A 
HETATM   24  C   UNL     1     -40.298  52.344 -50.806  1.00  0.00     0.001 A 
HETATM   25  C   UNL     1     -39.543  51.495 -51.629  1.00  0.00     0.001 A 
BRANCH  18  26
HETATM   26  O   UNL     1     -39.959  55.398 -55.007  1.00  0.00    -0.393 OA
HETATM   27  H   UNL     1     -40.345  56.233 -55.325  1.00  0.00     0.210 HD
ENDBRANCH  18  26
ENDBRANCH   2  17
TORSDOF 4
ENDMDL
MODEL 7
REMARK VINA RESULT:      -7.3      1.793      1.879
REMARK  4 active torsions:
REMARK  status: ('A' for Active; 'I' for Inactive)
REMARK    1  A    between atoms: C_4  and  C_5 
REMARK    2  A    between atoms: C_9  and  C_10 
REMARK       I    between atoms: C_10  and  N_11 
REMARK    3  A    between atoms: N_11  and  C_12 
REMARK    4  A    between atoms: C_13  and  O_14 
ROOT
HETATM    1  C   UNL     1     -41.583  56.327 -53.832  1.00  0.00     0.270 C 
HETATM    2  N   UNL     1     -41.719  55.084 -53.272  1.00  0.00    -0.344 N 
HETATM    3  O   UNL     1     -40.594  57.027 -53.638  1.00  0.00    -0.266 OA
HETATM    4  H   UNL     1     -42.608  54.606 -53.305  1.00  0.00     0.163 HD
ENDROOT
BRANCH   1   5
HETATM    5  C   UNL     1     -42.692  56.767 -54.630  1.00  0.00     0.120 A 
HETATM    6  N   UNL     1     -43.897  57.098 -54.070  1.00  0.00    -0.272 N 
HETATM    7  N   UNL     1     -44.823  57.503 -54.953  1.00  0.00    -0.173 NA
HETATM    8  H   UNL     1     -44.139  57.065 -53.083  1.00  0.00     0.189 HD
HETATM    9  C   UNL     1     -44.186  57.467 -56.130  1.00  0.00     0.096 A 
HETATM   10  C   UNL     1     -42.857  56.997 -55.982  1.00  0.00     0.071 A 
BRANCH   9  11
HETATM   11  C   UNL     1     -44.842  57.904 -57.406  1.00  0.00     0.035 A 
HETATM   12  S   UNL     1     -46.423  58.541 -57.513  1.00  0.00    -0.093 SA
HETATM   13  C   UNL     1     -46.330  58.687 -59.215  1.00  0.00    -0.021 A 
HETATM   14  C   UNL     1     -47.488  59.208 -59.996  1.00  0.00     0.056 C 
HETATM   15  C   UNL     1     -45.100  58.281 -59.690  1.00  0.00     0.015 A 
HETATM   16  C   UNL     1     -44.241  57.827 -58.646  1.00  0.00     0.022 A 
ENDBRANCH   9  11
ENDBRANCH   1   5
BRANCH   2  17
HETATM   17  C   UNL     1     -40.660  54.486 -52.487  1.00  0.00     0.147 C 
HETATM   18  C   UNL     1     -41.022  54.284 -50.984  1.00  0.00     0.149 C 
HETATM   19  C   UNL     1     -40.243  53.039 -50.521  1.00  0.00     0.073 C 
HETATM   20  C   UNL     1     -40.110  52.264 -51.801  1.00  0.00    -0.047 A 
HETATM   21  C   UNL     1     -40.343  53.079 -52.915  1.00  0.00    -0.027 A 
HETATM   22  C   UNL     1     -39.758  50.933 -51.948  1.00  0.00     0.008 A 
HETATM   23  C   UNL     1     -40.212  52.575 -54.201  1.00  0.00     0.010 A 
HETATM   24  C   UNL     1     -39.873  51.229 -54.358  1.00  0.00     0.001 A 
HETATM   25  C   UNL     1     -39.649  50.413 -53.239  1.00  0.00     0.001 A 
BRANCH  18  26
HETATM   26  O   UNL     1     -42.428  54.041 -50.800  1.00  0.00    -0.393 OA
HETATM   27  H   UNL     1     -42.836  54.146 -51.677  1.00  0.00     0.210 HD
ENDBRANCH  18  26
ENDBRANCH   2  17
TORSDOF 4
ENDMDL
MODEL 8
REMARK VINA RESULT:      -7.2      3.749      4.809
REMARK  4 active torsions:
REMARK  status: ('A' for Active; 'I' for Inactive)
REMARK    1  A    between atoms: C_4  and  C_5 
REMARK    2  A    between atoms: C_9  and  C_10 
REMARK       I    between atoms: C_10  and  N_11 
REMARK    3  A    between atoms: N_11  and  C_12 
REMARK    4  A    between atoms: C_13  and  O_14 
ROOT
HETATM    1  C   UNL     1     -42.747  56.798 -55.272  1.00  0.00     0.270 C 
HETATM    2  N   UNL     1     -41.678  56.034 -54.882  1.00  0.00    -0.344 N 
HETATM    3  O   UNL     1     -43.906  56.452 -55.071  1.00  0.00    -0.266 OA
HETATM    4  H   UNL     1     -40.749  56.253 -55.210  1.00  0.00     0.163 HD
ENDROOT
BRANCH   1   5
HETATM    5  C   UNL     1     -42.415  58.011 -55.965  1.00  0.00     0.120 A 
HETATM    6  N   UNL     1     -42.037  59.144 -55.295  1.00  0.00    -0.272 N 
HETATM    7  N   UNL     1     -41.747  60.184 -56.091  1.00  0.00    -0.173 NA
HETATM    8  H   UNL     1     -41.960  59.258 -54.288  1.00  0.00     0.189 HD
HETATM    9  C   UNL     1     -41.909  59.700 -57.330  1.00  0.00     0.096 A 
HETATM   10  C   UNL     1     -42.343  58.352 -57.301  1.00  0.00     0.071 A 
BRANCH   9  11
HETATM   11  C   UNL     1     -41.630  60.524 -58.551  1.00  0.00     0.035 A 
HETATM   12  S   UNL     1     -40.775  62.003 -58.548  1.00  0.00    -0.093 SA
HETATM   13  C   UNL     1     -40.983  62.214 -60.232  1.00  0.00    -0.021 A 
HETATM   14  C   UNL     1     -40.442  63.422 -60.917  1.00  0.00     0.056 C 
HETATM   15  C   UNL     1     -41.670  61.157 -60.793  1.00  0.00     0.015 A 
HETATM   16  C   UNL     1     -42.046  60.182 -59.822  1.00  0.00     0.022 A 
ENDBRANCH   9  11
ENDBRANCH   1   5
BRANCH   2  17
HETATM   17  C   UNL     1     -41.857  54.811 -54.128  1.00  0.00     0.147 C 
HETATM   18  C   UNL     1     -41.047  53.600 -54.683  1.00  0.00     0.149 C 
HETATM   19  C   UNL     1     -40.706  52.720 -53.466  1.00  0.00     0.073 C 
HETATM   20  C   UNL     1     -40.676  53.730 -52.354  1.00  0.00    -0.047 A 
HETATM   21  C   UNL     1     -41.328  54.913 -52.724  1.00  0.00    -0.027 A 
HETATM   22  C   UNL     1     -40.141  53.572 -51.087  1.00  0.00     0.008 A 
HETATM   23  C   UNL     1     -41.467  55.956 -51.819  1.00  0.00     0.010 A 
HETATM   24  C   UNL     1     -40.916  55.812 -50.544  1.00  0.00     0.001 A 
HETATM   25  C   UNL     1     -40.256  54.628 -50.181  1.00  0.00     0.001 A 
BRANCH  18  26
HETATM   26  O   UNL     1     -39.818  54.018 -55.306  1.00  0.00    -0.393 OA
HETATM   27  H   UNL     1     -40.068  54.389 -56.170  1.00  0.00     0.210 HD
ENDBRANCH  18  26
ENDBRANCH   2  17
TORSDOF 4
ENDMDL
MODEL 9
REMARK VINA RESULT:      -7.1     14.506     17.801
REMARK  4 active torsions:
REMARK  status: ('A' for Active; 'I' for Inactive)
REMARK    1  A    between atoms: C_4  and  C_5 
REMARK    2  A    between atoms: C_9  and  C_10 
REMARK       I    between atoms: C_10  and  N_11 
REMARK    3  A    between atoms: N_11  and  C_12 
REMARK    4  A    between atoms: C_13  and  O_14 
ROOT
HETATM    1  C   UNL     1     -35.727  41.561 -54.170  1.00  0.00     0.270 C 
HETATM    2  N   UNL     1     -35.910  40.866 -55.337  1.00  0.00    -0.344 N 
HETATM    3  O   UNL     1     -36.297  42.623 -53.946  1.00  0.00    -0.266 OA
HETATM    4  H   UNL     1     -35.305  40.092 -55.569  1.00  0.00     0.163 HD
ENDROOT
BRANCH   1   5
HETATM    5  C   UNL     1     -34.795  40.976 -53.247  1.00  0.00     0.120 A 
HETATM    6  N   UNL     1     -33.481  40.779 -53.577  1.00  0.00    -0.272 N 
HETATM    7  N   UNL     1     -32.743  40.237 -52.596  1.00  0.00    -0.173 NA
HETATM    8  H   UNL     1     -33.036  41.001 -54.463  1.00  0.00     0.189 HD
HETATM    9  C   UNL     1     -33.602  40.107 -51.577  1.00  0.00     0.096 A 
HETATM   10  C   UNL     1     -34.901  40.539 -51.941  1.00  0.00     0.071 A 
BRANCH   9  11
HETATM   11  C   UNL     1     -33.177  39.584 -50.237  1.00  0.00     0.035 A 
HETATM   12  S   UNL     1     -34.071  38.467 -49.305  1.00  0.00    -0.093 SA
HETATM   13  C   UNL     1     -32.931  38.503 -48.030  1.00  0.00    -0.021 A 
HETATM   14  C   UNL     1     -33.145  37.692 -46.798  1.00  0.00     0.056 C 
HETATM   15  C   UNL     1     -31.870  39.335 -48.324  1.00  0.00     0.015 A 
HETATM   16  C   UNL     1     -32.013  39.961 -49.598  1.00  0.00     0.022 A 
ENDBRANCH   9  11
ENDBRANCH   1   5
BRANCH   2  17
HETATM   17  C   UNL     1     -36.858  41.305 -56.339  1.00  0.00     0.147 C 
HETATM   18  C   UNL     1     -36.299  42.391 -57.308  1.00  0.00     0.149 C 
HETATM   19  C   UNL     1     -37.017  42.174 -58.653  1.00  0.00     0.073 C 
HETATM   20  C   UNL     1     -37.325  40.704 -58.605  1.00  0.00    -0.047 A 
HETATM   21  C   UNL     1     -37.239  40.210 -57.298  1.00  0.00    -0.027 A 
HETATM   22  C   UNL     1     -37.702  39.887 -59.657  1.00  0.00     0.008 A 
HETATM   23  C   UNL     1     -37.544  38.884 -57.021  1.00  0.00     0.010 A 
HETATM   24  C   UNL     1     -37.910  38.049 -58.079  1.00  0.00     0.001 A 
HETATM   25  C   UNL     1     -37.986  38.547 -59.389  1.00  0.00     0.001 A 
BRANCH  18  26
HETATM   26  O   UNL     1     -34.883  42.246 -57.515  1.00  0.00    -0.393 OA
HETATM   27  H   UNL     1     -34.469  42.387 -56.646  1.00  0.00     0.210 HD
ENDBRANCH  18  26
ENDBRANCH   2  17
TORSDOF 4
ENDMDL
MODEL 10
REMARK VINA RESULT:      -7.0      2.212      2.936
REMARK  4 active torsions:
REMARK  status: ('A' for Active; 'I' for Inactive)
REMARK    1  A    between atoms: C_4  and  C_5 
REMARK    2  A    between atoms: C_9  and  C_10 
REMARK       I    between atoms: C_10  and  N_11 
REMARK    3  A    between atoms: N_11  and  C_12 
REMARK    4  A    between atoms: C_13  and  O_14 
ROOT
HETATM    1  C   UNL     1     -42.139  58.291 -54.903  1.00  0.00     0.270 C 
HETATM    2  N   UNL     1     -42.261  57.021 -54.402  1.00  0.00    -0.344 N 
HETATM    3  O   UNL     1     -41.315  59.089 -54.468  1.00  0.00    -0.266 OA
HETATM    4  H   UNL     1     -43.053  56.448 -54.655  1.00  0.00     0.163 HD
ENDROOT
BRANCH   1   5
HETATM    5  C   UNL     1     -43.065  58.632 -55.946  1.00  0.00     0.120 A 
HETATM    6  N   UNL     1     -43.222  59.921 -56.378  1.00  0.00    -0.272 N 
HETATM    7  N   UNL     1     -44.117  60.065 -57.368  1.00  0.00    -0.173 NA
HETATM    8  H   UNL     1     -42.738  60.743 -56.028  1.00  0.00     0.189 HD
HETATM    9  C   UNL     1     -44.534  58.816 -57.613  1.00  0.00     0.096 A 
HETATM   10  C   UNL     1     -43.918  57.888 -56.738  1.00  0.00     0.071 A 
BRANCH   9  11
HETATM   11  C   UNL     1     -45.513  58.502 -58.704  1.00  0.00     0.035 A 
HETATM   12  S   UNL     1     -45.827  56.933 -59.301  1.00  0.00    -0.093 SA
HETATM   13  C   UNL     1     -46.942  57.515 -60.460  1.00  0.00    -0.021 A 
HETATM   14  C   UNL     1     -47.622  56.577 -61.397  1.00  0.00     0.056 C 
HETATM   15  C   UNL     1     -47.093  58.884 -60.374  1.00  0.00     0.015 A 
HETATM   16  C   UNL     1     -46.266  59.454 -59.361  1.00  0.00     0.022 A 
ENDBRANCH   9  11
ENDBRANCH   1   5
BRANCH   2  17
HETATM   17  C   UNL     1     -41.362  56.519 -53.385  1.00  0.00     0.147 C 
HETATM   18  C   UNL     1     -42.003  56.414 -51.968  1.00  0.00     0.149 C 
HETATM   19  C   UNL     1     -41.304  55.233 -51.269  1.00  0.00     0.073 C 
HETATM   20  C   UNL     1     -40.911  54.373 -52.436  1.00  0.00    -0.047 A 
HETATM   21  C   UNL     1     -40.940  55.096 -53.634  1.00  0.00    -0.027 A 
HETATM   22  C   UNL     1     -40.511  53.047 -52.409  1.00  0.00     0.008 A 
HETATM   23  C   UNL     1     -40.554  54.505 -54.828  1.00  0.00     0.010 A 
HETATM   24  C   UNL     1     -40.164  53.163 -54.812  1.00  0.00     0.001 A 
HETATM   25  C   UNL     1     -40.145  52.439 -53.611  1.00  0.00     0.001 A 
BRANCH  18  26
HETATM   26  O   UNL     1     -43.413  56.136 -52.037  1.00  0.00    -0.393 OA
HETATM   27  H   UNL     1     -43.624  55.618 -51.241  1.00  0.00     0.210 HD
ENDBRANCH  18  26
ENDBRANCH   2  17
TORSDOF 4
ENDMDL
