MODEL 1
REMARK VINA RESULT:      -8.5      0.000      0.000
REMARK  5 active torsions:
REMARK  status: ('A' for Active; 'I' for Inactive)
REMARK    1  A    between atoms: C_4  and  N_5 
REMARK       I    between atoms: N_5  and  C_6 
REMARK       I    between atoms: C_6  and  N_7 
REMARK    2  A    between atoms: N_7  and  C_8 
REMARK    3  A    between atoms: C_8  and  C_9 
REMARK       I    between atoms: C_9  and  N_10 
REMARK    4  A    between atoms: N_10  and  C_11 
REMARK    5  A    between atoms: C_16  and  C_17 
ROOT
HETATM    1  C   UNL     1     -43.095  56.968 -52.855  1.00  0.00     0.239 C 
HETATM    2  N   UNL     1     -42.197  56.669 -53.865  1.00  0.00    -0.325 N 
HETATM    3  O   UNL     1     -44.142  57.600 -52.961  1.00  0.00    -0.271 OA
HETATM    4  H   UNL     1     -41.268  56.399 -53.539  1.00  0.00     0.169 HD
ENDROOT
BRANCH   1   5
HETATM    5  C   UNL     1     -42.611  56.485 -51.484  1.00  0.00     0.227 C 
BRANCH   5   6
HETATM    6  N   UNL     1     -41.438  55.636 -51.592  1.00  0.00    -0.334 N 
HETATM    7  C   UNL     1     -41.590  54.270 -51.694  1.00  0.00     0.321 C 
HETATM    8  N   UNL     1     -40.368  53.643 -51.707  1.00  0.00    -0.309 N 
HETATM    9  O   UNL     1     -42.697  53.748 -51.741  1.00  0.00    -0.247 OA
HETATM   10  H   UNL     1     -39.607  54.191 -51.332  1.00  0.00     0.170 HD
HETATM   11  H   UNL     1     -40.657  56.024 -52.104  1.00  0.00     0.164 HD
BRANCH   8  12
HETATM   12  C   UNL     1     -40.113  52.277 -51.931  1.00  0.00     0.036 A 
HETATM   13  C   UNL     1     -39.995  51.714 -53.205  1.00  0.00     0.036 A 
HETATM   14  C   UNL     1     -39.702  50.350 -53.363  1.00  0.00    -0.060 A 
HETATM   15  C   UNL     1     -39.593  49.755 -54.736  1.00  0.00     0.048 C 
HETATM   16  C   UNL     1     -39.565  49.543 -52.229  1.00  0.00     0.007 A 
HETATM   17  C   UNL     1     -39.677  50.098 -50.955  1.00  0.00     0.003 A 
HETATM   18  C   UNL     1     -39.938  51.461 -50.808  1.00  0.00     0.029 A 
ENDBRANCH   8  12
ENDBRANCH   5   6
ENDBRANCH   1   5
BRANCH   2  19
HETATM   19  C   UNL     1     -42.374  56.804 -55.259  1.00  0.00     0.041 A 
HETATM   20  C   UNL     1     -42.765  55.671 -56.005  1.00  0.00    -0.035 A 
HETATM   21  C   UNL     1     -42.951  54.315 -55.376  1.00  0.00     0.050 C 
HETATM   22  C   UNL     1     -42.984  55.799 -57.385  1.00  0.00     0.010 A 
HETATM   23  C   UNL     1     -42.829  57.030 -58.023  1.00  0.00     0.016 A 
HETATM   24  C   UNL     1     -42.447  58.163 -57.298  1.00  0.00     0.019 A 
HETATM   25  C   UNL     1     -42.220  58.032 -55.917  1.00  0.00     0.046 A 
BRANCH  24  26
HETATM   26  C   UNL     1     -42.294  59.468 -57.939  1.00  0.00     0.179 A 
HETATM   27  O   UNL     1     -41.210  60.223 -57.557  1.00  0.00    -0.302 OA
HETATM   28  C   UNL     1     -41.311  61.356 -58.305  1.00  0.00     0.163 A 
HETATM   29  C   UNL     1     -42.428  61.248 -59.091  1.00  0.00     0.144 A 
HETATM   30  N   UNL     1     -43.046  60.046 -58.858  1.00  0.00    -0.234 NA
ENDBRANCH  24  26
ENDBRANCH   2  19
TORSDOF 5
ENDMDL
MODEL 2
REMARK VINA RESULT:      -8.4      2.134      3.471
REMARK  5 active torsions:
REMARK  status: ('A' for Active; 'I' for Inactive)
REMARK    1  A    between atoms: C_4  and  N_5 
REMARK       I    between atoms: N_5  and  C_6 
REMARK       I    between atoms: C_6  and  N_7 
REMARK    2  A    between atoms: N_7  and  C_8 
REMARK    3  A    between atoms: C_8  and  C_9 
REMARK       I    between atoms: C_9  and  N_10 
REMARK    4  A    between atoms: N_10  and  C_11 
REMARK    5  A    between atoms: C_16  and  C_17 
ROOT
HETATM    1  C   UNL     1     -43.738  57.162 -53.915  1.00  0.00     0.239 C 
HETATM    2  N   UNL     1     -42.778  57.445 -54.873  1.00  0.00    -0.325 N 
HETATM    3  O   UNL     1     -44.950  57.323 -54.014  1.00  0.00    -0.271 OA
HETATM    4  H   UNL     1     -41.827  57.519 -54.510  1.00  0.00     0.169 HD
ENDROOT
BRANCH   1   5
HETATM    5  C   UNL     1     -43.120  56.670 -52.602  1.00  0.00     0.227 C 
BRANCH   5   6
HETATM    6  N   UNL     1     -41.907  55.905 -52.827  1.00  0.00    -0.334 N 
HETATM    7  C   UNL     1     -41.933  54.531 -52.715  1.00  0.00     0.321 C 
HETATM    8  N   UNL     1     -40.677  54.004 -52.887  1.00  0.00    -0.309 N 
HETATM    9  O   UNL     1     -42.970  53.926 -52.473  1.00  0.00    -0.247 OA
HETATM   10  H   UNL     1     -39.921  54.657 -52.746  1.00  0.00     0.170 HD
HETATM   11  H   UNL     1     -41.279  56.270 -53.530  1.00  0.00     0.164 HD
BRANCH   8  12
HETATM   12  C   UNL     1     -40.328  52.642 -52.974  1.00  0.00     0.036 A 
HETATM   13  C   UNL     1     -39.949  51.872 -51.871  1.00  0.00     0.036 A 
HETATM   14  C   UNL     1     -39.648  50.508 -52.017  1.00  0.00    -0.060 A 
HETATM   15  C   UNL     1     -39.229  49.696 -50.828  1.00  0.00     0.048 C 
HETATM   16  C   UNL     1     -39.694  49.929 -53.290  1.00  0.00     0.007 A 
HETATM   17  C   UNL     1     -40.076  50.690 -54.394  1.00  0.00     0.003 A 
HETATM   18  C   UNL     1     -40.403  52.037 -54.234  1.00  0.00     0.029 A 
ENDBRANCH   8  12
ENDBRANCH   5   6
ENDBRANCH   1   5
BRANCH   2  19
HETATM   19  C   UNL     1     -42.971  57.755 -56.237  1.00  0.00     0.041 A 
HETATM   20  C   UNL     1     -42.606  59.037 -56.699  1.00  0.00    -0.035 A 
HETATM   21  C   UNL     1     -42.068  60.103 -55.780  1.00  0.00     0.050 C 
HETATM   22  C   UNL     1     -42.753  59.346 -58.060  1.00  0.00     0.010 A 
HETATM   23  C   UNL     1     -43.244  58.399 -58.959  1.00  0.00     0.016 A 
HETATM   24  C   UNL     1     -43.605  57.122 -58.519  1.00  0.00     0.019 A 
HETATM   25  C   UNL     1     -43.465  56.816 -57.154  1.00  0.00     0.046 A 
BRANCH  24  26
HETATM   26  C   UNL     1     -44.106  56.105 -59.443  1.00  0.00     0.179 A 
HETATM   27  O   UNL     1     -44.317  54.849 -58.927  1.00  0.00    -0.302 OA
HETATM   28  C   UNL     1     -44.784  54.127 -59.983  1.00  0.00     0.163 A 
HETATM   29  C   UNL     1     -44.834  54.954 -61.073  1.00  0.00     0.144 A 
HETATM   30  N   UNL     1     -44.406  56.210 -60.725  1.00  0.00    -0.234 NA
ENDBRANCH  24  26
ENDBRANCH   2  19
TORSDOF 5
ENDMDL
MODEL 3
REMARK VINA RESULT:      -8.3      2.533      8.329
REMARK  5 active torsions:
REMARK  status: ('A' for Active; 'I' for Inactive)
REMARK    1  A    between atoms: C_4  and  N_5 
REMARK       I    between atoms: N_5  and  C_6 
REMARK       I    between atoms: C_6  and  N_7 
REMARK    2  A    between atoms: N_7  and  C_8 
REMARK    3  A    between atoms: C_8  and  C_9 
REMARK       I    between atoms: C_9  and  N_10 
REMARK    4  A    between atoms: N_10  and  C_11 
REMARK    5  A    between atoms: C_16  and  C_17 
ROOT
HETATM    1  C   UNL     1     -41.330  57.571 -53.470  1.00  0.00     0.239 C 
HETATM    2  N   UNL     1     -41.907  56.445 -52.909  1.00  0.00    -0.325 N 
HETATM    3  O   UNL     1     -40.167  57.945 -53.348  1.00  0.00    -0.271 OA
HETATM    4  H   UNL     1     -42.927  56.459 -52.884  1.00  0.00     0.169 HD
ENDROOT
BRANCH   1   5
HETATM    5  C   UNL     1     -42.343  58.418 -54.246  1.00  0.00     0.227 C 
BRANCH   5   6
HETATM    6  N   UNL     1     -42.309  58.135 -55.670  1.00  0.00    -0.334 N 
HETATM    7  C   UNL     1     -43.328  57.409 -56.248  1.00  0.00     0.321 C 
HETATM    8  N   UNL     1     -43.072  57.184 -57.578  1.00  0.00    -0.309 N 
HETATM    9  O   UNL     1     -44.295  57.028 -55.599  1.00  0.00    -0.247 OA
HETATM   10  H   UNL     1     -42.103  57.279 -57.845  1.00  0.00     0.170 HD
HETATM   11  H   UNL     1     -41.906  58.856 -56.254  1.00  0.00     0.164 HD
BRANCH   8  12
HETATM   12  C   UNL     1     -43.934  56.598 -58.525  1.00  0.00     0.036 A 
HETATM   13  C   UNL     1     -45.059  57.244 -59.046  1.00  0.00     0.036 A 
HETATM   14  C   UNL     1     -45.860  56.621 -60.017  1.00  0.00    -0.060 A 
HETATM   15  C   UNL     1     -47.072  57.320 -60.557  1.00  0.00     0.048 C 
HETATM   16  C   UNL     1     -45.544  55.325 -60.436  1.00  0.00     0.007 A 
HETATM   17  C   UNL     1     -44.421  54.676 -59.924  1.00  0.00     0.003 A 
HETATM   18  C   UNL     1     -43.614  55.315 -58.982  1.00  0.00     0.029 A 
ENDBRANCH   8  12
ENDBRANCH   5   6
ENDBRANCH   1   5
BRANCH   2  19
HETATM   19  C   UNL     1     -41.265  55.357 -52.277  1.00  0.00     0.041 A 
HETATM   20  C   UNL     1     -40.943  55.465 -50.907  1.00  0.00    -0.035 A 
HETATM   21  C   UNL     1     -41.213  56.714 -50.110  1.00  0.00     0.050 C 
HETATM   22  C   UNL     1     -40.342  54.378 -50.254  1.00  0.00     0.010 A 
HETATM   23  C   UNL     1     -40.069  53.194 -50.940  1.00  0.00     0.016 A 
HETATM   24  C   UNL     1     -40.386  53.069 -52.296  1.00  0.00     0.019 A 
HETATM   25  C   UNL     1     -40.981  54.161 -52.951  1.00  0.00     0.046 A 
BRANCH  24  26
HETATM   26  C   UNL     1     -40.127  51.833 -53.034  1.00  0.00     0.179 A 
HETATM   27  O   UNL     1     -39.680  50.757 -52.304  1.00  0.00    -0.302 OA
HETATM   28  C   UNL     1     -39.536  49.765 -53.225  1.00  0.00     0.163 A 
HETATM   29  C   UNL     1     -39.891  50.267 -54.449  1.00  0.00     0.144 A 
HETATM   30  N   UNL     1     -40.269  51.579 -54.322  1.00  0.00    -0.234 NA
ENDBRANCH  24  26
ENDBRANCH   2  19
TORSDOF 5
ENDMDL
MODEL 4
REMARK VINA RESULT:      -8.1      4.648      9.483
REMARK  5 active torsions:
REMARK  status: ('A' for Active; 'I' for Inactive)
REMARK    1  A    between atoms: C_4  and  N_5 
REMARK       I    between atoms: N_5  and  C_6 
REMARK       I    between atoms: C_6  and  N_7 
REMARK    2  A    between atoms: N_7  and  C_8 
REMARK    3  A    between atoms: C_8  and  C_9 
REMARK       I    between atoms: C_9  and  N_10 
REMARK    4  A    between atoms: N_10  and  C_11 
REMARK    5  A    between atoms: C_16  and  C_17 
ROOT
HETATM    1  C   UNL     1     -42.999  56.788 -52.056  1.00  0.00     0.239 C 
HETATM    2  N   UNL     1     -43.181  55.713 -52.910  1.00  0.00    -0.325 N 
HETATM    3  O   UNL     1     -41.967  57.099 -51.470  1.00  0.00    -0.271 OA
HETATM    4  H   UNL     1     -44.157  55.455 -53.064  1.00  0.00     0.169 HD
ENDROOT
BRANCH   1   5
HETATM    5  C   UNL     1     -44.295  57.569 -51.820  1.00  0.00     0.227 C 
BRANCH   5   6
HETATM    6  N   UNL     1     -44.093  58.698 -50.930  1.00  0.00    -0.334 N 
HETATM    7  C   UNL     1     -45.172  59.260 -50.281  1.00  0.00     0.321 C 
HETATM    8  N   UNL     1     -44.785  60.358 -49.553  1.00  0.00    -0.309 N 
HETATM    9  O   UNL     1     -46.302  58.803 -50.399  1.00  0.00    -0.247 OA
HETATM   10  H   UNL     1     -43.907  60.767 -49.837  1.00  0.00     0.170 HD
HETATM   11  H   UNL     1     -43.226  58.701 -50.411  1.00  0.00     0.164 HD
BRANCH   8  12
HETATM   12  C   UNL     1     -45.572  61.109 -48.659  1.00  0.00     0.036 A 
HETATM   13  C   UNL     1     -46.438  62.128 -49.065  1.00  0.00     0.036 A 
HETATM   14  C   UNL     1     -47.226  62.817 -48.129  1.00  0.00    -0.060 A 
HETATM   15  C   UNL     1     -48.140  63.918 -48.576  1.00  0.00     0.048 C 
HETATM   16  C   UNL     1     -47.110  62.500 -46.771  1.00  0.00     0.007 A 
HETATM   17  C   UNL     1     -46.251  61.482 -46.359  1.00  0.00     0.003 A 
HETATM   18  C   UNL     1     -45.495  60.782 -47.301  1.00  0.00     0.029 A 
ENDBRANCH   8  12
ENDBRANCH   5   6
ENDBRANCH   1   5
BRANCH   2  19
HETATM   19  C   UNL     1     -42.198  54.878 -53.485  1.00  0.00     0.041 A 
HETATM   20  C   UNL     1     -41.665  55.226 -54.744  1.00  0.00    -0.035 A 
HETATM   21  C   UNL     1     -42.144  56.426 -55.519  1.00  0.00     0.050 C 
HETATM   22  C   UNL     1     -40.659  54.429 -55.310  1.00  0.00     0.010 A 
HETATM   23  C   UNL     1     -40.175  53.306 -54.640  1.00  0.00     0.016 A 
HETATM   24  C   UNL     1     -40.687  52.949 -53.388  1.00  0.00     0.019 A 
HETATM   25  C   UNL     1     -41.701  53.744 -52.826  1.00  0.00     0.046 A 
BRANCH  24  26
HETATM   26  C   UNL     1     -40.185  51.787 -52.656  1.00  0.00     0.179 A 
HETATM   27  O   UNL     1     -39.999  50.632 -53.378  1.00  0.00    -0.302 OA
HETATM   28  C   UNL     1     -39.526  49.739 -52.466  1.00  0.00     0.163 A 
HETATM   29  C   UNL     1     -39.448  50.372 -51.253  1.00  0.00     0.144 A 
HETATM   30  N   UNL     1     -39.864  51.673 -51.380  1.00  0.00    -0.234 NA
ENDBRANCH  24  26
ENDBRANCH   2  19
TORSDOF 5
ENDMDL
MODEL 5
REMARK VINA RESULT:      -8.0      1.724      2.346
REMARK  5 active torsions:
REMARK  status: ('A' for Active; 'I' for Inactive)
REMARK    1  A    between atoms: C_4  and  N_5 
REMARK       I    between atoms: N_5  and  C_6 
REMARK       I    between atoms: C_6  and  N_7 
REMARK    2  A    between atoms: N_7  and  C_8 
REMARK    3  A    between atoms: C_8  and  C_9 
REMARK       I    between atoms: C_9  and  N_10 
REMARK    4  A    between atoms: N_10  and  C_11 
REMARK    5  A    between atoms: C_16  and  C_17 
ROOT
HETATM    1  C   UNL     1     -43.863  57.606 -55.559  1.00  0.00     0.239 C 
HETATM    2  N   UNL     1     -42.754  57.423 -56.367  1.00  0.00    -0.325 N 
HETATM    3  O   UNL     1     -44.857  58.280 -55.811  1.00  0.00    -0.271 OA
HETATM    4  H   UNL     1     -41.926  57.079 -55.878  1.00  0.00     0.169 HD
ENDROOT
BRANCH   1   5
HETATM    5  C   UNL     1     -43.711  56.918 -54.198  1.00  0.00     0.227 C 
BRANCH   5   6
HETATM    6  N   UNL     1     -42.412  56.286 -54.053  1.00  0.00    -0.334 N 
HETATM    7  C   UNL     1     -42.326  55.006 -53.547  1.00  0.00     0.321 C 
HETATM    8  N   UNL     1     -41.015  54.621 -53.417  1.00  0.00    -0.309 N 
HETATM    9  O   UNL     1     -43.327  54.362 -53.256  1.00  0.00    -0.247 OA
HETATM   10  H   UNL     1     -40.351  55.380 -53.390  1.00  0.00     0.170 HD
HETATM   11  H   UNL     1     -41.726  56.520 -54.758  1.00  0.00     0.164 HD
BRANCH   8  12
HETATM   12  C   UNL     1     -40.532  53.346 -53.063  1.00  0.00     0.036 A 
HETATM   13  C   UNL     1     -40.357  52.307 -53.980  1.00  0.00     0.036 A 
HETATM   14  C   UNL     1     -39.836  51.068 -53.572  1.00  0.00    -0.060 A 
HETATM   15  C   UNL     1     -39.665  49.956 -54.564  1.00  0.00     0.048 C 
HETATM   16  C   UNL     1     -39.526  50.867 -52.222  1.00  0.00     0.007 A 
HETATM   17  C   UNL     1     -39.695  51.901 -51.302  1.00  0.00     0.003 A 
HETATM   18  C   UNL     1     -40.185  53.138 -51.723  1.00  0.00     0.029 A 
ENDBRANCH   8  12
ENDBRANCH   5   6
ENDBRANCH   1   5
BRANCH   2  19
HETATM   19  C   UNL     1     -42.600  57.759 -57.730  1.00  0.00     0.041 A 
HETATM   20  C   UNL     1     -42.937  56.798 -58.707  1.00  0.00    -0.035 A 
HETATM   21  C   UNL     1     -43.404  55.411 -58.348  1.00  0.00     0.050 C 
HETATM   22  C   UNL     1     -42.829  57.131 -60.066  1.00  0.00     0.010 A 
HETATM   23  C   UNL     1     -42.404  58.400 -60.459  1.00  0.00     0.016 A 
HETATM   24  C   UNL     1     -42.071  59.366 -59.504  1.00  0.00     0.019 A 
HETATM   25  C   UNL     1     -42.172  59.029 -58.143  1.00  0.00     0.046 A 
BRANCH  24  26
HETATM   26  C   UNL     1     -41.639  60.709 -59.889  1.00  0.00     0.179 A 
HETATM   27  O   UNL     1     -41.126  61.505 -58.892  1.00  0.00    -0.302 OA
HETATM   28  C   UNL     1     -40.803  62.667 -59.524  1.00  0.00     0.163 A 
HETATM   29  C   UNL     1     -41.127  62.534 -60.848  1.00  0.00     0.144 A 
HETATM   30  N   UNL     1     -41.654  61.288 -61.076  1.00  0.00    -0.234 NA
ENDBRANCH  24  26
ENDBRANCH   2  19
TORSDOF 5
ENDMDL
MODEL 6
REMARK VINA RESULT:      -7.8      1.643      2.949
REMARK  5 active torsions:
REMARK  status: ('A' for Active; 'I' for Inactive)
REMARK    1  A    between atoms: C_4  and  N_5 
REMARK       I    between atoms: N_5  and  C_6 
REMARK       I    between atoms: C_6  and  N_7 
REMARK    2  A    between atoms: N_7  and  C_8 
REMARK    3  A    between atoms: C_8  and  C_9 
REMARK       I    between atoms: C_9  and  N_10 
REMARK    4  A    between atoms: N_10  and  C_11 
REMARK    5  A    between atoms: C_16  and  C_17 
ROOT
HETATM    1  C   UNL     1     -43.483  57.480 -52.288  1.00  0.00     0.239 C 
HETATM    2  N   UNL     1     -42.427  57.905 -53.078  1.00  0.00    -0.325 N 
HETATM    3  O   UNL     1     -44.668  57.765 -52.425  1.00  0.00    -0.271 OA
HETATM    4  H   UNL     1     -41.508  57.805 -52.646  1.00  0.00     0.169 HD
ENDROOT
BRANCH   1   5
HETATM    5  C   UNL     1     -43.016  56.631 -51.102  1.00  0.00     0.227 C 
BRANCH   5   6
HETATM    6  N   UNL     1     -41.793  55.907 -51.401  1.00  0.00    -0.334 N 
HETATM    7  C   UNL     1     -41.848  54.557 -51.677  1.00  0.00     0.321 C 
HETATM    8  N   UNL     1     -40.586  54.045 -51.856  1.00  0.00    -0.309 N 
HETATM    9  O   UNL     1     -42.912  53.953 -51.721  1.00  0.00    -0.247 OA
HETATM   10  H   UNL     1     -39.843  54.603 -51.462  1.00  0.00     0.170 HD
HETATM   11  H   UNL     1     -41.086  56.424 -51.906  1.00  0.00     0.164 HD
BRANCH   8  12
HETATM   12  C   UNL     1     -40.245  52.746 -52.279  1.00  0.00     0.036 A 
HETATM   13  C   UNL     1     -39.853  51.729 -51.404  1.00  0.00     0.036 A 
HETATM   14  C   UNL     1     -39.561  50.442 -51.885  1.00  0.00    -0.060 A 
HETATM   15  C   UNL     1     -39.128  49.363 -50.937  1.00  0.00     0.048 C 
HETATM   16  C   UNL     1     -39.629  50.192 -53.259  1.00  0.00     0.007 A 
HETATM   17  C   UNL     1     -40.023  51.201 -54.137  1.00  0.00     0.003 A 
HETATM   18  C   UNL     1     -40.341  52.468 -53.647  1.00  0.00     0.029 A 
ENDBRANCH   8  12
ENDBRANCH   5   6
ENDBRANCH   1   5
BRANCH   2  19
HETATM   19  C   UNL     1     -42.480  58.553 -54.331  1.00  0.00     0.041 A 
HETATM   20  C   UNL     1     -42.483  59.964 -54.365  1.00  0.00    -0.035 A 
HETATM   21  C   UNL     1     -42.484  60.801 -53.112  1.00  0.00     0.050 C 
HETATM   22  C   UNL     1     -42.494  60.623 -55.603  1.00  0.00     0.010 A 
HETATM   23  C   UNL     1     -42.491  59.901 -56.797  1.00  0.00     0.016 A 
HETATM   24  C   UNL     1     -42.483  58.503 -56.782  1.00  0.00     0.019 A 
HETATM   25  C   UNL     1     -42.480  57.844 -55.541  1.00  0.00     0.046 A 
BRANCH  24  26
HETATM   26  C   UNL     1     -42.463  57.723 -58.019  1.00  0.00     0.179 A 
HETATM   27  O   UNL     1     -43.116  56.513 -57.999  1.00  0.00    -0.302 OA
HETATM   28  C   UNL     1     -42.948  56.020 -59.257  1.00  0.00     0.163 A 
HETATM   29  C   UNL     1     -42.214  56.929 -59.973  1.00  0.00     0.144 A 
HETATM   30  N   UNL     1     -41.912  58.009 -59.184  1.00  0.00    -0.234 NA
ENDBRANCH  24  26
ENDBRANCH   2  19
TORSDOF 5
ENDMDL
MODEL 7
REMARK VINA RESULT:      -7.6      5.694      8.282
REMARK  5 active torsions:
REMARK  status: ('A' for Active; 'I' for Inactive)
REMARK    1  A    between atoms: C_4  and  N_5 
REMARK       I    between atoms: N_5  and  C_6 
REMARK       I    between atoms: C_6  and  N_7 
REMARK    2  A    between atoms: N_7  and  C_8 
REMARK    3  A    between atoms: C_8  and  C_9 
REMARK       I    between atoms: C_9  and  N_10 
REMARK    4  A    between atoms: N_10  and  C_11 
REMARK    5  A    between atoms: C_16  and  C_17 
ROOT
HETATM    1  C   UNL     1     -45.620  59.143 -51.017  1.00  0.00     0.239 C 
HETATM    2  N   UNL     1     -45.053  60.366 -50.700  1.00  0.00    -0.325 N 
HETATM    3  O   UNL     1     -46.518  58.567 -50.412  1.00  0.00    -0.271 OA
HETATM    4  H   UNL     1     -44.146  60.538 -51.135  1.00  0.00     0.169 HD
ENDROOT
BRANCH   1   5
HETATM    5  C   UNL     1     -44.939  58.481 -52.219  1.00  0.00     0.227 C 
BRANCH   5   6
HETATM    6  N   UNL     1     -44.723  57.061 -52.005  1.00  0.00    -0.334 N 
HETATM    7  C   UNL     1     -43.473  56.519 -52.216  1.00  0.00     0.321 C 
HETATM    8  N   UNL     1     -43.495  55.158 -52.036  1.00  0.00    -0.309 N 
HETATM    9  O   UNL     1     -42.518  57.215 -52.539  1.00  0.00    -0.247 OA
HETATM   10  H   UNL     1     -44.410  54.737 -52.102  1.00  0.00     0.170 HD
HETATM   11  H   UNL     1     -45.256  56.642 -51.255  1.00  0.00     0.164 HD
BRANCH   8  12
HETATM   12  C   UNL     1     -42.394  54.281 -52.034  1.00  0.00     0.036 A 
HETATM   13  C   UNL     1     -41.846  53.729 -53.196  1.00  0.00     0.036 A 
HETATM   14  C   UNL     1     -40.723  52.888 -53.131  1.00  0.00    -0.060 A 
HETATM   15  C   UNL     1     -40.153  52.292 -54.384  1.00  0.00     0.048 C 
HETATM   16  C   UNL     1     -40.174  52.574 -51.883  1.00  0.00     0.007 A 
HETATM   17  C   UNL     1     -40.713  53.123 -50.721  1.00  0.00     0.003 A 
HETATM   18  C   UNL     1     -41.810  53.982 -50.798  1.00  0.00     0.029 A 
ENDBRANCH   8  12
ENDBRANCH   5   6
ENDBRANCH   1   5
BRANCH   2  19
HETATM   19  C   UNL     1     -45.514  61.329 -49.776  1.00  0.00     0.041 A 
HETATM   20  C   UNL     1     -46.479  62.268 -50.201  1.00  0.00    -0.035 A 
HETATM   21  C   UNL     1     -46.994  62.312 -51.616  1.00  0.00     0.050 C 
HETATM   22  C   UNL     1     -46.977  63.206 -49.284  1.00  0.00     0.010 A 
HETATM   23  C   UNL     1     -46.538  63.214 -47.960  1.00  0.00     0.016 A 
HETATM   24  C   UNL     1     -45.587  62.287 -47.521  1.00  0.00     0.019 A 
HETATM   25  C   UNL     1     -45.083  61.353 -48.443  1.00  0.00     0.046 A 
BRANCH  24  26
HETATM   26  C   UNL     1     -45.123  62.262 -46.134  1.00  0.00     0.179 A 
HETATM   27  O   UNL     1     -44.620  61.069 -45.671  1.00  0.00    -0.302 OA
HETATM   28  C   UNL     1     -44.262  61.334 -44.384  1.00  0.00     0.163 A 
HETATM   29  C   UNL     1     -44.557  62.646 -44.123  1.00  0.00     0.144 A 
HETATM   30  N   UNL     1     -45.100  63.231 -45.239  1.00  0.00    -0.234 NA
ENDBRANCH  24  26
ENDBRANCH   2  19
TORSDOF 5
ENDMDL
MODEL 8
REMARK VINA RESULT:      -7.6      2.591      4.020
REMARK  5 active torsions:
REMARK  status: ('A' for Active; 'I' for Inactive)
REMARK    1  A    between atoms: C_4  and  N_5 
REMARK       I    between atoms: N_5  and  C_6 
REMARK       I    between atoms: C_6  and  N_7 
REMARK    2  A    between atoms: N_7  and  C_8 
REMARK    3  A    between atoms: C_8  and  C_9 
REMARK       I    between atoms: C_9  and  N_10 
REMARK    4  A    between atoms: N_10  and  C_11 
REMARK    5  A    between atoms: C_16  and  C_17 
ROOT
HETATM    1  C   UNL     1     -44.773  59.025 -54.550  1.00  0.00     0.239 C 
HETATM    2  N   UNL     1     -43.749  58.448 -55.282  1.00  0.00    -0.325 N 
HETATM    3  O   UNL     1     -45.581  59.861 -54.943  1.00  0.00    -0.271 OA
HETATM    4  H   UNL     1     -43.020  58.008 -54.718  1.00  0.00     0.169 HD
ENDROOT
BRANCH   1   5
HETATM    5  C   UNL     1     -44.772  58.567 -53.088  1.00  0.00     0.227 C 
BRANCH   5   6
HETATM    6  N   UNL     1     -44.624  57.127 -52.972  1.00  0.00    -0.334 N 
HETATM    7  C   UNL     1     -43.375  56.582 -52.768  1.00  0.00     0.321 C 
HETATM    8  N   UNL     1     -43.437  55.210 -52.764  1.00  0.00    -0.309 N 
HETATM    9  O   UNL     1     -42.380  57.285 -52.637  1.00  0.00    -0.247 OA
HETATM   10  H   UNL     1     -44.257  54.822 -53.208  1.00  0.00     0.170 HD
HETATM   11  H   UNL     1     -45.388  56.640 -52.522  1.00  0.00     0.164 HD
BRANCH   8  12
HETATM   12  C   UNL     1     -42.399  54.310 -52.456  1.00  0.00     0.036 A 
HETATM   13  C   UNL     1     -41.710  53.570 -53.421  1.00  0.00     0.036 A 
HETATM   14  C   UNL     1     -40.657  52.715 -53.054  1.00  0.00    -0.060 A 
HETATM   15  C   UNL     1     -39.936  51.916 -54.098  1.00  0.00     0.048 C 
HETATM   16  C   UNL     1     -40.324  52.580 -51.702  1.00  0.00     0.007 A 
HETATM   17  C   UNL     1     -41.004  53.319 -50.735  1.00  0.00     0.003 A 
HETATM   18  C   UNL     1     -42.028  54.188 -51.112  1.00  0.00     0.029 A 
ENDBRANCH   8  12
ENDBRANCH   5   6
ENDBRANCH   1   5
BRANCH   2  19
HETATM   19  C   UNL     1     -43.537  58.498 -56.677  1.00  0.00     0.041 A 
HETATM   20  C   UNL     1     -42.646  59.463 -57.193  1.00  0.00    -0.035 A 
HETATM   21  C   UNL     1     -41.955  60.474 -56.316  1.00  0.00     0.050 C 
HETATM   22  C   UNL     1     -42.394  59.499 -58.573  1.00  0.00     0.010 A 
HETATM   23  C   UNL     1     -43.003  58.587 -59.435  1.00  0.00     0.016 A 
HETATM   24  C   UNL     1     -43.884  57.620 -58.940  1.00  0.00     0.019 A 
HETATM   25  C   UNL     1     -44.142  57.591 -57.559  1.00  0.00     0.046 A 
BRANCH  24  26
HETATM   26  C   UNL     1     -44.523  56.642 -59.819  1.00  0.00     0.179 A 
HETATM   27  O   UNL     1     -45.894  56.552 -59.754  1.00  0.00    -0.302 OA
HETATM   28  C   UNL     1     -46.210  55.593 -60.666  1.00  0.00     0.163 A 
HETATM   29  C   UNL     1     -45.046  55.147 -61.235  1.00  0.00     0.144 A 
HETATM   30  N   UNL     1     -43.979  55.819 -60.697  1.00  0.00    -0.234 NA
ENDBRANCH  24  26
ENDBRANCH   2  19
TORSDOF 5
ENDMDL
MODEL 9
REMARK VINA RESULT:      -7.3     14.667     18.053
REMARK  5 active torsions:
REMARK  status: ('A' for Active; 'I' for Inactive)
REMARK    1  A    between atoms: C_4  and  N_5 
REMARK       I    between atoms: N_5  and  C_6 
REMARK       I    between atoms: C_6  and  N_7 
REMARK    2  A    between atoms: N_7  and  C_8 
REMARK    3  A    between atoms: C_8  and  C_9 
REMARK       I    between atoms: C_9  and  N_10 
REMARK    4  A    between atoms: N_10  and  C_11 
REMARK    5  A    between atoms: C_16  and  C_17 
ROOT
HETATM    1  C   UNL     1     -36.042  41.742 -52.619  1.00  0.00     0.239 C 
HETATM    2  N   UNL     1     -35.640  40.420 -52.536  1.00  0.00    -0.325 N 
HETATM    3  O   UNL     1     -35.342  42.738 -52.462  1.00  0.00    -0.271 OA
HETATM    4  H   UNL     1     -36.403  39.753 -52.409  1.00  0.00     0.169 HD
ENDROOT
BRANCH   1   5
HETATM    5  C   UNL     1     -37.549  41.878 -52.861  1.00  0.00     0.227 C 
BRANCH   5   6
HETATM    6  N   UNL     1     -37.985  41.104 -54.008  1.00  0.00    -0.334 N 
HETATM    7  C   UNL     1     -37.576  41.465 -55.274  1.00  0.00     0.321 C 
HETATM    8  N   UNL     1     -38.156  40.659 -56.222  1.00  0.00    -0.309 N 
HETATM    9  O   UNL     1     -36.810  42.403 -55.458  1.00  0.00    -0.247 OA
HETATM   10  H   UNL     1     -38.989  40.177 -55.917  1.00  0.00     0.170 HD
HETATM   11  H   UNL     1     -38.093  40.110 -53.855  1.00  0.00     0.164 HD
BRANCH   8  12
HETATM   12  C   UNL     1     -37.882  40.634 -57.603  1.00  0.00     0.036 A 
HETATM   13  C   UNL     1     -37.754  41.787 -58.384  1.00  0.00     0.036 A 
HETATM   14  C   UNL     1     -37.443  41.697 -59.751  1.00  0.00    -0.060 A 
HETATM   15  C   UNL     1     -37.323  42.941 -60.580  1.00  0.00     0.048 C 
HETATM   16  C   UNL     1     -37.299  40.436 -60.339  1.00  0.00     0.007 A 
HETATM   17  C   UNL     1     -37.421  39.283 -59.566  1.00  0.00     0.003 A 
HETATM   18  C   UNL     1     -37.700  39.383 -58.202  1.00  0.00     0.029 A 
ENDBRANCH   8  12
ENDBRANCH   5   6
ENDBRANCH   1   5
BRANCH   2  19
HETATM   19  C   UNL     1     -34.325  39.907 -52.489  1.00  0.00     0.041 A 
HETATM   20  C   UNL     1     -33.857  39.353 -51.279  1.00  0.00    -0.035 A 
HETATM   21  C   UNL     1     -34.689  39.336 -50.024  1.00  0.00     0.050 C 
HETATM   22  C   UNL     1     -32.567  38.803 -51.228  1.00  0.00     0.010 A 
HETATM   23  C   UNL     1     -31.750  38.789 -52.359  1.00  0.00     0.016 A 
HETATM   24  C   UNL     1     -32.201  39.329 -53.568  1.00  0.00     0.019 A 
HETATM   25  C   UNL     1     -33.490  39.887 -53.616  1.00  0.00     0.046 A 
BRANCH  24  26
HETATM   26  C   UNL     1     -31.372  39.312 -54.772  1.00  0.00     0.179 A 
HETATM   27  O   UNL     1     -30.482  38.271 -54.897  1.00  0.00    -0.302 OA
HETATM   28  C   UNL     1     -29.866  38.499 -56.090  1.00  0.00     0.163 A 
HETATM   29  C   UNL     1     -30.394  39.643 -56.628  1.00  0.00     0.144 A 
HETATM   30  N   UNL     1     -31.351  40.153 -55.790  1.00  0.00    -0.234 NA
ENDBRANCH  24  26
ENDBRANCH   2  19
TORSDOF 5
ENDMDL
MODEL 10
REMARK VINA RESULT:      -7.3     15.877     19.738
REMARK  5 active torsions:
REMARK  status: ('A' for Active; 'I' for Inactive)
REMARK    1  A    between atoms: C_4  and  N_5 
REMARK       I    between atoms: N_5  and  C_6 
REMARK       I    between atoms: C_6  and  N_7 
REMARK    2  A    between atoms: N_7  and  C_8 
REMARK    3  A    between atoms: C_8  and  C_9 
REMARK       I    between atoms: C_9  and  N_10 
REMARK    4  A    between atoms: N_10  and  C_11 
REMARK    5  A    between atoms: C_16  and  C_17 
ROOT
HETATM    1  C   UNL     1     -31.986  39.382 -52.952  1.00  0.00     0.239 C 
HETATM    2  N   UNL     1     -32.416  40.092 -51.844  1.00  0.00    -0.325 N 
HETATM    3  O   UNL     1     -31.554  38.233 -52.971  1.00  0.00    -0.271 OA
HETATM    4  H   UNL     1     -32.461  41.103 -51.981  1.00  0.00     0.169 HD
ENDROOT
BRANCH   1   5
HETATM    5  C   UNL     1     -32.019  40.224 -54.232  1.00  0.00     0.227 C 
BRANCH   5   6
HETATM    6  N   UNL     1     -33.332  40.796 -54.470  1.00  0.00    -0.334 N 
HETATM    7  C   UNL     1     -33.986  40.538 -55.655  1.00  0.00     0.321 C 
HETATM    8  N   UNL     1     -35.171  41.229 -55.718  1.00  0.00    -0.309 N 
HETATM    9  O   UNL     1     -33.509  39.796 -56.504  1.00  0.00    -0.247 OA
HETATM   10  H   UNL     1     -35.232  42.022 -55.096  1.00  0.00     0.170 HD
HETATM   11  H   UNL     1     -33.927  40.889 -53.657  1.00  0.00     0.164 HD
BRANCH   8  12
HETATM   12  C   UNL     1     -36.170  41.121 -56.705  1.00  0.00     0.036 A 
HETATM   13  C   UNL     1     -36.202  41.909 -57.859  1.00  0.00     0.036 A 
HETATM   14  C   UNL     1     -37.205  41.728 -58.825  1.00  0.00    -0.060 A 
HETATM   15  C   UNL     1     -37.235  42.590 -60.052  1.00  0.00     0.048 C 
HETATM   16  C   UNL     1     -38.202  40.772 -58.605  1.00  0.00     0.007 A 
HETATM   17  C   UNL     1     -38.175  39.980 -57.458  1.00  0.00     0.003 A 
HETATM   18  C   UNL     1     -37.156  40.146 -56.519  1.00  0.00     0.029 A 
ENDBRANCH   8  12
ENDBRANCH   5   6
ENDBRANCH   1   5
BRANCH   2  19
HETATM   19  C   UNL     1     -32.680  39.608 -50.544  1.00  0.00     0.041 A 
HETATM   20  C   UNL     1     -33.933  39.012 -50.284  1.00  0.00    -0.035 A 
HETATM   21  C   UNL     1     -35.016  38.922 -51.328  1.00  0.00     0.050 C 
HETATM   22  C   UNL     1     -34.195  38.490 -49.009  1.00  0.00     0.010 A 
HETATM   23  C   UNL     1     -33.230  38.543 -48.002  1.00  0.00     0.016 A 
HETATM   24  C   UNL     1     -31.982  39.125 -48.244  1.00  0.00     0.019 A 
HETATM   25  C   UNL     1     -31.723  39.655 -49.520  1.00  0.00     0.046 A 
BRANCH  24  26
HETATM   26  C   UNL     1     -30.947  39.178 -47.213  1.00  0.00     0.179 A 
HETATM   27  O   UNL     1     -29.720  39.670 -47.590  1.00  0.00    -0.302 OA
HETATM   28  C   UNL     1     -28.973  39.616 -46.453  1.00  0.00     0.163 A 
HETATM   29  C   UNL     1     -29.758  39.104 -45.454  1.00  0.00     0.144 A 
HETATM   30  N   UNL     1     -31.011  38.831 -45.940  1.00  0.00    -0.234 NA
ENDBRANCH  24  26
ENDBRANCH   2  19
TORSDOF 5
ENDMDL
