MODEL 1
REMARK VINA RESULT:      -7.8      0.000      0.000
REMARK  5 active torsions:
REMARK  status: ('A' for Active; 'I' for Inactive)
REMARK    1  A    between atoms: C_4  and  N_5 
REMARK       I    between atoms: N_5  and  C_6 
REMARK    2  A    between atoms: C_6  and  C_7 
REMARK    3  A    between atoms: C_7  and  N_8 
REMARK    4  A    between atoms: N_8  and  C_11 
REMARK    5  A    between atoms: C_11  and  C_12 
ROOT
HETATM    1  N   UNL     1     -41.227  54.794 -54.773  1.00  0.00    -0.324 N 
HETATM    2  C   UNL     1     -42.386  54.861 -55.497  1.00  0.00     0.248 C 
HETATM    3  O   UNL     1     -43.251  53.994 -55.614  1.00  0.00    -0.271 OA
HETATM    4  H   UNL     1     -40.539  55.550 -54.809  1.00  0.00     0.169 HD
ENDROOT
BRANCH   1   5
HETATM    5  C   UNL     1     -40.746  53.720 -53.978  1.00  0.00     0.065 A 
HETATM    6  C   UNL     1     -40.350  52.483 -54.497  1.00  0.00     0.038 A 
HETATM    7  C   UNL     1     -39.886  51.477 -53.642  1.00  0.00    -0.059 A 
HETATM    8  C   UNL     1     -39.460  50.141 -54.180  1.00  0.00     0.048 C 
HETATM    9  C   UNL     1     -39.817  51.728 -52.268  1.00  0.00     0.020 A 
HETATM   10  C   UNL     1     -40.213  52.969 -51.744  1.00  0.00    -0.005 A 
HETATM   11  C   UNL     1     -40.689  53.980 -52.601  1.00  0.00     0.093 A 
HETATM   12  C   UNL     1     -40.148  53.244 -50.372  1.00  0.00     0.015 A 
HETATM   13  N   UNL     1     -41.083  55.195 -52.141  1.00  0.00    -0.258 NA
HETATM   14  C   UNL     1     -41.002  55.418 -50.809  1.00  0.00     0.117 A 
HETATM   15  C   UNL     1     -40.547  54.486 -49.895  1.00  0.00     0.020 A 
ENDBRANCH   1   5
BRANCH   2  16
HETATM   16  C   UNL     1     -42.569  56.177 -56.255  1.00  0.00     0.335 C 
BRANCH  16  17
HETATM   17  N   UNL     1     -43.775  56.112 -57.165  1.00  0.00    -0.059 N 
HETATM   18  H   UNL     1     -44.073  55.139 -57.323  1.00  0.00     0.278 HD
HETATM   19  H   UNL     1     -44.550  56.580 -56.658  1.00  0.00     0.278 HD
BRANCH  17  20
HETATM   20  C   UNL     1     -43.622  56.840 -58.499  1.00  0.00     0.349 C 
BRANCH  20  21
HETATM   21  C   UNL     1     -43.392  55.856 -59.652  1.00  0.00     0.411 C 
HETATM   22  F   UNL     1     -44.053  56.296 -60.748  1.00  0.00    -0.169 F 
HETATM   23  F   UNL     1     -42.079  55.810 -59.962  1.00  0.00    -0.169 F 
HETATM   24  F   UNL     1     -43.820  54.621 -59.353  1.00  0.00    -0.169 F 
ENDBRANCH  20  21
ENDBRANCH  17  20
ENDBRANCH  16  17
ENDBRANCH   2  16
TORSDOF 5
ENDMDL
MODEL 2
REMARK VINA RESULT:      -7.2      3.087      3.559
REMARK  5 active torsions:
REMARK  status: ('A' for Active; 'I' for Inactive)
REMARK    1  A    between atoms: C_4  and  N_5 
REMARK       I    between atoms: N_5  and  C_6 
REMARK    2  A    between atoms: C_6  and  C_7 
REMARK    3  A    between atoms: C_7  and  N_8 
REMARK    4  A    between atoms: N_8  and  C_11 
REMARK    5  A    between atoms: C_11  and  C_12 
ROOT
HETATM    1  N   UNL     1     -41.048  54.819 -54.671  1.00  0.00    -0.324 N 
HETATM    2  C   UNL     1     -42.183  54.971 -55.421  1.00  0.00     0.248 C 
HETATM    3  O   UNL     1     -43.078  54.149 -55.604  1.00  0.00    -0.271 OA
HETATM    4  H   UNL     1     -40.329  55.547 -54.651  1.00  0.00     0.169 HD
ENDROOT
BRANCH   1   5
HETATM    5  C   UNL     1     -40.633  53.687 -53.921  1.00  0.00     0.065 A 
HETATM    6  C   UNL     1     -40.263  52.466 -54.493  1.00  0.00     0.038 A 
HETATM    7  C   UNL     1     -39.864  51.399 -53.680  1.00  0.00    -0.059 A 
HETATM    8  C   UNL     1     -39.467  50.079 -54.276  1.00  0.00     0.048 C 
HETATM    9  C   UNL     1     -39.834  51.573 -52.293  1.00  0.00     0.020 A 
HETATM   10  C   UNL     1     -40.205  52.798 -51.715  1.00  0.00    -0.005 A 
HETATM   11  C   UNL     1     -40.614  53.871 -52.530  1.00  0.00     0.093 A 
HETATM   12  C   UNL     1     -40.178  52.996 -50.329  1.00  0.00     0.015 A 
HETATM   13  N   UNL     1     -40.981  55.073 -52.018  1.00  0.00    -0.258 NA
HETATM   14  C   UNL     1     -40.939  55.221 -50.673  1.00  0.00     0.117 A 
HETATM   15  C   UNL     1     -40.550  54.225 -49.798  1.00  0.00     0.020 A 
ENDBRANCH   1   5
BRANCH   2  16
HETATM   16  C   UNL     1     -42.292  56.330 -56.113  1.00  0.00     0.335 C 
BRANCH  16  17
HETATM   17  N   UNL     1     -42.924  57.354 -55.198  1.00  0.00    -0.059 N 
HETATM   18  H   UNL     1     -43.862  57.623 -55.529  1.00  0.00     0.278 HD
HETATM   19  H   UNL     1     -43.057  56.884 -54.282  1.00  0.00     0.278 HD
BRANCH  17  20
HETATM   20  C   UNL     1     -42.080  58.599 -54.934  1.00  0.00     0.349 C 
BRANCH  20  21
HETATM   21  C   UNL     1     -41.398  58.534 -53.562  1.00  0.00     0.411 C 
HETATM   22  F   UNL     1     -41.111  59.791 -53.151  1.00  0.00    -0.169 F 
HETATM   23  F   UNL     1     -42.240  57.993 -52.656  1.00  0.00    -0.169 F 
HETATM   24  F   UNL     1     -40.265  57.819 -53.596  1.00  0.00    -0.169 F 
ENDBRANCH  20  21
ENDBRANCH  17  20
ENDBRANCH  16  17
ENDBRANCH   2  16
TORSDOF 5
ENDMDL
MODEL 3
REMARK VINA RESULT:      -7.2      3.944      4.464
REMARK  5 active torsions:
REMARK  status: ('A' for Active; 'I' for Inactive)
REMARK    1  A    between atoms: C_4  and  N_5 
REMARK       I    between atoms: N_5  and  C_6 
REMARK    2  A    between atoms: C_6  and  C_7 
REMARK    3  A    between atoms: C_7  and  N_8 
REMARK    4  A    between atoms: N_8  and  C_11 
REMARK    5  A    between atoms: C_11  and  C_12 
ROOT
HETATM    1  N   UNL     1     -42.707  54.718 -53.685  1.00  0.00    -0.324 N 
HETATM    2  C   UNL     1     -42.543  55.767 -54.549  1.00  0.00     0.248 C 
HETATM    3  O   UNL     1     -41.496  56.173 -55.048  1.00  0.00    -0.271 OA
HETATM    4  H   UNL     1     -43.620  54.515 -53.270  1.00  0.00     0.169 HD
ENDROOT
BRANCH   1   5
HETATM    5  C   UNL     1     -41.717  53.844 -53.164  1.00  0.00     0.065 A 
HETATM    6  C   UNL     1     -41.148  52.790 -53.887  1.00  0.00     0.038 A 
HETATM    7  C   UNL     1     -40.175  51.977 -53.297  1.00  0.00    -0.059 A 
HETATM    8  C   UNL     1     -39.555  50.838 -54.056  1.00  0.00     0.048 C 
HETATM    9  C   UNL     1     -39.776  52.234 -51.981  1.00  0.00     0.020 A 
HETATM   10  C   UNL     1     -40.345  53.291 -51.253  1.00  0.00    -0.005 A 
HETATM   11  C   UNL     1     -41.330  54.107 -51.841  1.00  0.00     0.093 A 
HETATM   12  C   UNL     1     -39.957  53.571 -49.936  1.00  0.00     0.015 A 
HETATM   13  N   UNL     1     -41.909  55.140 -51.177  1.00  0.00    -0.258 NA
HETATM   14  C   UNL     1     -41.503  55.375 -49.907  1.00  0.00     0.117 A 
HETATM   15  C   UNL     1     -40.544  54.628 -49.252  1.00  0.00     0.020 A 
ENDBRANCH   1   5
BRANCH   2  16
HETATM   16  C   UNL     1     -43.841  56.505 -54.882  1.00  0.00     0.335 C 
BRANCH  16  17
HETATM   17  N   UNL     1     -44.704  56.661 -53.650  1.00  0.00    -0.059 N 
HETATM   18  H   UNL     1     -45.692  56.456 -53.857  1.00  0.00     0.278 HD
HETATM   19  H   UNL     1     -44.386  55.938 -52.977  1.00  0.00     0.278 HD
BRANCH  17  20
HETATM   20  C   UNL     1     -44.582  58.006 -52.938  1.00  0.00     0.349 C 
BRANCH  20  21
HETATM   21  C   UNL     1     -44.521  57.832 -51.415  1.00  0.00     0.411 C 
HETATM   22  F   UNL     1     -44.747  56.534 -51.109  1.00  0.00    -0.169 F 
HETATM   23  F   UNL     1     -43.287  58.147 -50.967  1.00  0.00    -0.169 F 
HETATM   24  F   UNL     1     -45.429  58.592 -50.785  1.00  0.00    -0.169 F 
ENDBRANCH  20  21
ENDBRANCH  17  20
ENDBRANCH  16  17
ENDBRANCH   2  16
TORSDOF 5
ENDMDL
MODEL 4
REMARK VINA RESULT:      -7.1      0.988      1.189
REMARK  5 active torsions:
REMARK  status: ('A' for Active; 'I' for Inactive)
REMARK    1  A    between atoms: C_4  and  N_5 
REMARK       I    between atoms: N_5  and  C_6 
REMARK    2  A    between atoms: C_6  and  C_7 
REMARK    3  A    between atoms: C_7  and  N_8 
REMARK    4  A    between atoms: N_8  and  C_11 
REMARK    5  A    between atoms: C_11  and  C_12 
ROOT
HETATM    1  N   UNL     1     -41.282  54.881 -54.784  1.00  0.00    -0.324 N 
HETATM    2  C   UNL     1     -42.436  54.889 -55.522  1.00  0.00     0.248 C 
HETATM    3  O   UNL     1     -43.271  53.992 -55.619  1.00  0.00    -0.271 OA
HETATM    4  H   UNL     1     -40.618  55.658 -54.838  1.00  0.00     0.169 HD
ENDROOT
BRANCH   1   5
HETATM    5  C   UNL     1     -40.776  53.848 -53.953  1.00  0.00     0.065 A 
HETATM    6  C   UNL     1     -40.362  52.598 -54.426  1.00  0.00     0.038 A 
HETATM    7  C   UNL     1     -39.873  51.635 -53.537  1.00  0.00    -0.059 A 
HETATM    8  C   UNL     1     -39.428  50.286 -54.026  1.00  0.00     0.048 C 
HETATM    9  C   UNL     1     -39.797  51.940 -52.175  1.00  0.00     0.020 A 
HETATM   10  C   UNL     1     -40.211  53.194 -51.696  1.00  0.00    -0.005 A 
HETATM   11  C   UNL     1     -40.712  54.162 -52.587  1.00  0.00     0.093 A 
HETATM   12  C   UNL     1     -40.140  53.524 -50.337  1.00  0.00     0.015 A 
HETATM   13  N   UNL     1     -41.123  55.387 -52.172  1.00  0.00    -0.258 NA
HETATM   14  C   UNL     1     -41.036  55.663 -50.850  1.00  0.00     0.117 A 
HETATM   15  C   UNL     1     -40.557  54.777 -49.905  1.00  0.00     0.020 A 
ENDBRANCH   1   5
BRANCH   2  16
HETATM   16  C   UNL     1     -42.653  56.175 -56.321  1.00  0.00     0.335 C 
BRANCH  16  17
HETATM   17  N   UNL     1     -43.663  55.960 -57.424  1.00  0.00    -0.059 N 
HETATM   18  H   UNL     1     -44.116  55.038 -57.343  1.00  0.00     0.278 HD
HETATM   19  H   UNL     1     -44.408  56.669 -57.281  1.00  0.00     0.278 HD
BRANCH  17  20
HETATM   20  C   UNL     1     -43.132  56.164 -58.841  1.00  0.00     0.349 C 
BRANCH  20  21
HETATM   21  C   UNL     1     -43.525  57.538 -59.397  1.00  0.00     0.411 C 
HETATM   22  F   UNL     1     -44.757  57.863 -58.944  1.00  0.00    -0.169 F 
HETATM   23  F   UNL     1     -42.666  58.477 -58.947  1.00  0.00    -0.169 F 
HETATM   24  F   UNL     1     -43.536  57.554 -60.737  1.00  0.00    -0.169 F 
ENDBRANCH  20  21
ENDBRANCH  17  20
ENDBRANCH  16  17
ENDBRANCH   2  16
TORSDOF 5
ENDMDL
MODEL 5
REMARK VINA RESULT:      -7.1      1.236      3.027
REMARK  5 active torsions:
REMARK  status: ('A' for Active; 'I' for Inactive)
REMARK    1  A    between atoms: C_4  and  N_5 
REMARK       I    between atoms: N_5  and  C_6 
REMARK    2  A    between atoms: C_6  and  C_7 
REMARK    3  A    between atoms: C_7  and  N_8 
REMARK    4  A    between atoms: N_8  and  C_11 
REMARK    5  A    between atoms: C_11  and  C_12 
ROOT
HETATM    1  N   UNL     1     -42.401  54.677 -53.662  1.00  0.00    -0.324 N 
HETATM    2  C   UNL     1     -42.023  55.644 -54.554  1.00  0.00     0.248 C 
HETATM    3  O   UNL     1     -40.976  56.288 -54.566  1.00  0.00    -0.271 OA
HETATM    4  H   UNL     1     -43.335  54.259 -53.703  1.00  0.00     0.169 HD
ENDROOT
BRANCH   1   5
HETATM    5  C   UNL     1     -41.679  54.178 -52.546  1.00  0.00     0.065 A 
HETATM    6  C   UNL     1     -41.694  54.771 -51.279  1.00  0.00     0.038 A 
HETATM    7  C   UNL     1     -40.954  54.213 -50.232  1.00  0.00    -0.059 A 
HETATM    8  C   UNL     1     -40.953  54.838 -48.866  1.00  0.00     0.048 C 
HETATM    9  C   UNL     1     -40.207  53.054 -50.466  1.00  0.00     0.020 A 
HETATM   10  C   UNL     1     -40.190  52.455 -51.736  1.00  0.00    -0.005 A 
HETATM   11  C   UNL     1     -40.928  53.020 -52.795  1.00  0.00     0.093 A 
HETATM   12  C   UNL     1     -39.455  51.292 -51.993  1.00  0.00     0.015 A 
HETATM   13  N   UNL     1     -40.943  52.477 -54.039  1.00  0.00    -0.258 NA
HETATM   14  C   UNL     1     -40.219  51.352 -54.242  1.00  0.00     0.117 A 
HETATM   15  C   UNL     1     -39.468  50.730 -53.263  1.00  0.00     0.020 A 
ENDBRANCH   1   5
BRANCH   2  16
HETATM   16  C   UNL     1     -43.072  55.943 -55.627  1.00  0.00     0.335 C 
BRANCH  16  17
HETATM   17  N   UNL     1     -42.455  55.916 -57.007  1.00  0.00    -0.059 N 
HETATM   18  H   UNL     1     -41.465  56.199 -56.979  1.00  0.00     0.278 HD
HETATM   19  H   UNL     1     -42.471  54.925 -57.315  1.00  0.00     0.278 HD
BRANCH  17  20
HETATM   20  C   UNL     1     -43.204  56.718 -58.069  1.00  0.00     0.349 C 
BRANCH  20  21
HETATM   21  C   UNL     1     -43.320  55.937 -59.384  1.00  0.00     0.411 C 
HETATM   22  F   UNL     1     -44.134  56.610 -60.228  1.00  0.00    -0.169 F 
HETATM   23  F   UNL     1     -42.108  55.849 -59.972  1.00  0.00    -0.169 F 
HETATM   24  F   UNL     1     -43.811  54.704 -59.195  1.00  0.00    -0.169 F 
ENDBRANCH  20  21
ENDBRANCH  17  20
ENDBRANCH  16  17
ENDBRANCH   2  16
TORSDOF 5
ENDMDL
MODEL 6
REMARK VINA RESULT:      -6.7     13.998     16.291
REMARK  5 active torsions:
REMARK  status: ('A' for Active; 'I' for Inactive)
REMARK    1  A    between atoms: C_4  and  N_5 
REMARK       I    between atoms: N_5  and  C_6 
REMARK    2  A    between atoms: C_6  and  C_7 
REMARK    3  A    between atoms: C_7  and  N_8 
REMARK    4  A    between atoms: N_8  and  C_11 
REMARK    5  A    between atoms: C_11  and  C_12 
ROOT
HETATM    1  N   UNL     1     -36.918  41.474 -55.894  1.00  0.00    -0.324 N 
HETATM    2  C   UNL     1     -35.908  42.144 -55.256  1.00  0.00     0.248 C 
HETATM    3  O   UNL     1     -34.926  42.682 -55.763  1.00  0.00    -0.271 OA
HETATM    4  H   UNL     1     -37.651  40.997 -55.362  1.00  0.00     0.169 HD
ENDROOT
BRANCH   1   5
HETATM    5  C   UNL     1     -37.081  41.245 -57.285  1.00  0.00     0.065 A 
HETATM    6  C   UNL     1     -37.148  42.265 -58.241  1.00  0.00     0.038 A 
HETATM    7  C   UNL     1     -37.308  41.951 -59.595  1.00  0.00    -0.059 A 
HETATM    8  C   UNL     1     -37.387  43.032 -60.635  1.00  0.00     0.048 C 
HETATM    9  C   UNL     1     -37.394  40.609 -59.979  1.00  0.00     0.020 A 
HETATM   10  C   UNL     1     -37.327  39.583 -59.023  1.00  0.00    -0.005 A 
HETATM   11  C   UNL     1     -37.173  39.896 -57.658  1.00  0.00     0.093 A 
HETATM   12  C   UNL     1     -37.405  38.233 -59.384  1.00  0.00     0.015 A 
HETATM   13  N   UNL     1     -37.103  38.940 -56.698  1.00  0.00    -0.258 NA
HETATM   14  C   UNL     1     -37.182  37.647 -57.092  1.00  0.00     0.117 A 
HETATM   15  C   UNL     1     -37.331  37.248 -58.406  1.00  0.00     0.020 A 
ENDBRANCH   1   5
BRANCH   2  16
HETATM   16  C   UNL     1     -36.049  42.177 -53.734  1.00  0.00     0.335 C 
BRANCH  16  17
HETATM   17  N   UNL     1     -35.646  40.853 -53.126  1.00  0.00    -0.059 N 
HETATM   18  H   UNL     1     -36.381  40.489 -52.501  1.00  0.00     0.278 HD
HETATM   19  H   UNL     1     -35.568  40.181 -53.913  1.00  0.00     0.278 HD
BRANCH  17  20
HETATM   20  C   UNL     1     -34.297  40.850 -52.411  1.00  0.00     0.349 C 
BRANCH  20  21
HETATM   21  C   UNL     1     -34.418  41.388 -50.981  1.00  0.00     0.411 C 
HETATM   22  F   UNL     1     -34.386  42.740 -51.011  1.00  0.00    -0.169 F 
HETATM   23  F   UNL     1     -35.604  41.021 -50.451  1.00  0.00    -0.169 F 
HETATM   24  F   UNL     1     -33.426  40.947 -50.192  1.00  0.00    -0.169 F 
ENDBRANCH  20  21
ENDBRANCH  17  20
ENDBRANCH  16  17
ENDBRANCH   2  16
TORSDOF 5
ENDMDL
MODEL 7
REMARK VINA RESULT:      -6.7      1.920      2.561
REMARK  5 active torsions:
REMARK  status: ('A' for Active; 'I' for Inactive)
REMARK    1  A    between atoms: C_4  and  N_5 
REMARK       I    between atoms: N_5  and  C_6 
REMARK    2  A    between atoms: C_6  and  C_7 
REMARK    3  A    between atoms: C_7  and  N_8 
REMARK    4  A    between atoms: N_8  and  C_11 
REMARK    5  A    between atoms: C_11  and  C_12 
ROOT
HETATM    1  N   UNL     1     -43.699  55.876 -55.631  1.00  0.00    -0.324 N 
HETATM    2  C   UNL     1     -43.271  56.924 -56.401  1.00  0.00     0.248 C 
HETATM    3  O   UNL     1     -42.144  57.413 -56.445  1.00  0.00    -0.271 OA
HETATM    4  H   UNL     1     -44.684  55.600 -55.617  1.00  0.00     0.169 HD
ENDROOT
BRANCH   1   5
HETATM    5  C   UNL     1     -42.951  55.099 -54.707  1.00  0.00     0.065 A 
HETATM    6  C   UNL     1     -42.122  54.034 -55.076  1.00  0.00     0.038 A 
HETATM    7  C   UNL     1     -41.417  53.321 -54.101  1.00  0.00    -0.059 A 
HETATM    8  C   UNL     1     -40.526  52.171 -54.477  1.00  0.00     0.048 C 
HETATM    9  C   UNL     1     -41.547  53.689 -52.758  1.00  0.00     0.020 A 
HETATM   10  C   UNL     1     -42.378  54.758 -52.384  1.00  0.00    -0.005 A 
HETATM   11  C   UNL     1     -43.095  55.473 -53.363  1.00  0.00     0.093 A 
HETATM   12  C   UNL     1     -42.520  55.148 -51.047  1.00  0.00     0.015 A 
HETATM   13  N   UNL     1     -43.910  56.512 -53.051  1.00  0.00    -0.258 NA
HETATM   14  C   UNL     1     -44.016  56.856 -51.746  1.00  0.00     0.117 A 
HETATM   15  C   UNL     1     -43.350  56.213 -50.720  1.00  0.00     0.020 A 
ENDBRANCH   1   5
BRANCH   2  16
HETATM   16  C   UNL     1     -44.366  57.542 -57.271  1.00  0.00     0.335 C 
BRANCH  16  17
HETATM   17  N   UNL     1     -43.977  57.511 -58.732  1.00  0.00    -0.059 N 
HETATM   18  H   UNL     1     -44.016  58.451 -59.149  1.00  0.00     0.278 HD
HETATM   19  H   UNL     1     -42.982  57.215 -58.763  1.00  0.00     0.278 HD
BRANCH  17  20
HETATM   20  C   UNL     1     -44.757  56.518 -59.591  1.00  0.00     0.349 C 
BRANCH  20  21
HETATM   21  C   UNL     1     -43.986  55.206 -59.774  1.00  0.00     0.411 C 
HETATM   22  F   UNL     1     -44.413  54.593 -60.902  1.00  0.00    -0.169 F 
HETATM   23  F   UNL     1     -42.669  55.464 -59.925  1.00  0.00    -0.169 F 
HETATM   24  F   UNL     1     -44.156  54.374 -58.736  1.00  0.00    -0.169 F 
ENDBRANCH  20  21
ENDBRANCH  17  20
ENDBRANCH  16  17
ENDBRANCH   2  16
TORSDOF 5
ENDMDL
MODEL 8
REMARK VINA RESULT:      -6.6      3.892      5.099
REMARK  5 active torsions:
REMARK  status: ('A' for Active; 'I' for Inactive)
REMARK    1  A    between atoms: C_4  and  N_5 
REMARK       I    between atoms: N_5  and  C_6 
REMARK    2  A    between atoms: C_6  and  C_7 
REMARK    3  A    between atoms: C_7  and  N_8 
REMARK    4  A    between atoms: N_8  and  C_11 
REMARK    5  A    between atoms: C_11  and  C_12 
ROOT
HETATM    1  N   UNL     1     -42.505  55.006 -52.928  1.00  0.00    -0.324 N 
HETATM    2  C   UNL     1     -42.346  56.264 -53.445  1.00  0.00     0.248 C 
HETATM    3  O   UNL     1     -41.446  57.067 -53.207  1.00  0.00    -0.271 OA
HETATM    4  H   UNL     1     -43.338  54.451 -53.140  1.00  0.00     0.169 HD
ENDROOT
BRANCH   1   5
HETATM    5  C   UNL     1     -41.672  54.324 -52.003  1.00  0.00     0.065 A 
HETATM    6  C   UNL     1     -41.559  54.670 -50.652  1.00  0.00     0.038 A 
HETATM    7  C   UNL     1     -40.716  53.943 -49.807  1.00  0.00    -0.059 A 
HETATM    8  C   UNL     1     -40.578  54.303 -48.355  1.00  0.00     0.048 C 
HETATM    9  C   UNL     1     -39.994  52.864 -50.327  1.00  0.00     0.020 A 
HETATM   10  C   UNL     1     -40.104  52.512 -51.682  1.00  0.00    -0.005 A 
HETATM   11  C   UNL     1     -40.947  53.248 -52.537  1.00  0.00     0.093 A 
HETATM   12  C   UNL     1     -39.396  51.433 -52.224  1.00  0.00     0.015 A 
HETATM   13  N   UNL     1     -41.087  52.947 -53.853  1.00  0.00    -0.258 NA
HETATM   14  C   UNL     1     -40.384  51.895 -54.334  1.00  0.00     0.117 A 
HETATM   15  C   UNL     1     -39.537  51.117 -53.569  1.00  0.00     0.020 A 
ENDBRANCH   1   5
BRANCH   2  16
HETATM   16  C   UNL     1     -43.459  56.684 -54.408  1.00  0.00     0.335 C 
BRANCH  16  17
HETATM   17  N   UNL     1     -44.773  56.839 -53.678  1.00  0.00    -0.059 N 
HETATM   18  H   UNL     1     -45.507  57.203 -54.303  1.00  0.00     0.278 HD
HETATM   19  H   UNL     1     -45.068  55.883 -53.400  1.00  0.00     0.278 HD
BRANCH  17  20
HETATM   20  C   UNL     1     -44.711  57.668 -52.397  1.00  0.00     0.349 C 
BRANCH  20  21
HETATM   21  C   UNL     1     -44.883  59.164 -52.688  1.00  0.00     0.411 C 
HETATM   22  F   UNL     1     -45.558  59.315 -53.851  1.00  0.00    -0.169 F 
HETATM   23  F   UNL     1     -45.618  59.739 -51.713  1.00  0.00    -0.169 F 
HETATM   24  F   UNL     1     -43.704  59.796 -52.785  1.00  0.00    -0.169 F 
ENDBRANCH  20  21
ENDBRANCH  17  20
ENDBRANCH  16  17
ENDBRANCH   2  16
TORSDOF 5
ENDMDL
MODEL 9
REMARK VINA RESULT:      -6.6      5.087      6.377
REMARK  5 active torsions:
REMARK  status: ('A' for Active; 'I' for Inactive)
REMARK    1  A    between atoms: C_4  and  N_5 
REMARK       I    between atoms: N_5  and  C_6 
REMARK    2  A    between atoms: C_6  and  C_7 
REMARK    3  A    between atoms: C_7  and  N_8 
REMARK    4  A    between atoms: N_8  and  C_11 
REMARK    5  A    between atoms: C_11  and  C_12 
ROOT
HETATM    1  N   UNL     1     -41.783  57.709 -52.778  1.00  0.00    -0.324 N 
HETATM    2  C   UNL     1     -40.968  58.729 -53.191  1.00  0.00     0.248 C 
HETATM    3  O   UNL     1     -39.745  58.801 -53.091  1.00  0.00    -0.271 OA
HETATM    4  H   UNL     1     -42.801  57.789 -52.843  1.00  0.00     0.169 HD
ENDROOT
BRANCH   1   5
HETATM    5  C   UNL     1     -41.418  56.491 -52.147  1.00  0.00     0.065 A 
HETATM    6  C   UNL     1     -41.382  56.312 -50.760  1.00  0.00     0.038 A 
HETATM    7  C   UNL     1     -41.012  55.076 -50.218  1.00  0.00    -0.059 A 
HETATM    8  C   UNL     1     -40.963  54.867 -48.732  1.00  0.00     0.048 C 
HETATM    9  C   UNL     1     -40.686  54.024 -51.080  1.00  0.00     0.020 A 
HETATM   10  C   UNL     1     -40.721  54.200 -52.473  1.00  0.00    -0.005 A 
HETATM   11  C   UNL     1     -41.086  55.445 -53.021  1.00  0.00     0.093 A 
HETATM   12  C   UNL     1     -40.404  53.159 -53.355  1.00  0.00     0.015 A 
HETATM   13  N   UNL     1     -41.134  55.663 -54.359  1.00  0.00    -0.258 NA
HETATM   14  C   UNL     1     -40.821  54.629 -55.175  1.00  0.00     0.117 A 
HETATM   15  C   UNL     1     -40.454  53.375 -54.726  1.00  0.00     0.020 A 
ENDBRANCH   1   5
BRANCH   2  16
HETATM   16  C   UNL     1     -41.717  59.905 -53.819  1.00  0.00     0.335 C 
BRANCH  16  17
HETATM   17  N   UNL     1     -43.023  60.160 -53.100  1.00  0.00    -0.059 N 
HETATM   18  H   UNL     1     -43.757  60.466 -53.755  1.00  0.00     0.278 HD
HETATM   19  H   UNL     1     -43.330  59.245 -52.719  1.00  0.00     0.278 HD
BRANCH  17  20
HETATM   20  C   UNL     1     -42.936  61.121 -51.917  1.00  0.00     0.349 C 
BRANCH  20  21
HETATM   21  C   UNL     1     -42.940  60.369 -50.581  1.00  0.00     0.411 C 
HETATM   22  F   UNL     1     -43.390  61.195 -49.609  1.00  0.00    -0.169 F 
HETATM   23  F   UNL     1     -43.788  59.321 -50.647  1.00  0.00    -0.169 F 
HETATM   24  F   UNL     1     -41.718  59.930 -50.247  1.00  0.00    -0.169 F 
ENDBRANCH  20  21
ENDBRANCH  17  20
ENDBRANCH  16  17
ENDBRANCH   2  16
TORSDOF 5
ENDMDL
MODEL 10
REMARK VINA RESULT:      -6.6     13.789     15.601
REMARK  5 active torsions:
REMARK  status: ('A' for Active; 'I' for Inactive)
REMARK    1  A    between atoms: C_4  and  N_5 
REMARK       I    between atoms: N_5  and  C_6 
REMARK    2  A    between atoms: C_6  and  C_7 
REMARK    3  A    between atoms: C_7  and  N_8 
REMARK    4  A    between atoms: N_8  and  C_11 
REMARK    5  A    between atoms: C_11  and  C_12 
ROOT
HETATM    1  N   UNL     1     -35.720  41.146 -53.833  1.00  0.00    -0.324 N 
HETATM    2  C   UNL     1     -36.919  40.487 -53.783  1.00  0.00     0.248 C 
HETATM    3  O   UNL     1     -37.152  39.388 -53.283  1.00  0.00    -0.271 OA
HETATM    4  H   UNL     1     -35.625  42.027 -54.345  1.00  0.00     0.169 HD
ENDROOT
BRANCH   1   5
HETATM    5  C   UNL     1     -34.464  40.730 -53.319  1.00  0.00     0.065 A 
HETATM    6  C   UNL     1     -34.163  40.665 -51.954  1.00  0.00     0.038 A 
HETATM    7  C   UNL     1     -32.899  40.241 -51.532  1.00  0.00    -0.059 A 
HETATM    8  C   UNL     1     -32.555  40.169 -50.071  1.00  0.00     0.048 C 
HETATM    9  C   UNL     1     -31.946  39.878 -52.489  1.00  0.00     0.020 A 
HETATM   10  C   UNL     1     -32.244  39.942 -53.859  1.00  0.00    -0.005 A 
HETATM   11  C   UNL     1     -33.514  40.376 -54.288  1.00  0.00     0.093 A 
HETATM   12  C   UNL     1     -31.308  39.578 -54.835  1.00  0.00     0.015 A 
HETATM   13  N   UNL     1     -33.849  40.453 -55.601  1.00  0.00    -0.258 NA
HETATM   14  C   UNL     1     -32.914  40.092 -56.509  1.00  0.00     0.117 A 
HETATM   15  C   UNL     1     -31.646  39.653 -56.181  1.00  0.00     0.020 A 
ENDBRANCH   1   5
BRANCH   2  16
HETATM   16  C   UNL     1     -38.067  41.233 -54.465  1.00  0.00     0.335 C 
BRANCH  16  17
HETATM   17  N   UNL     1     -37.557  42.076 -55.611  1.00  0.00    -0.059 N 
HETATM   18  H   UNL     1     -38.065  42.970 -55.673  1.00  0.00     0.278 HD
HETATM   19  H   UNL     1     -36.571  42.311 -55.386  1.00  0.00     0.278 HD
BRANCH  17  20
HETATM   20  C   UNL     1     -37.543  41.382 -56.971  1.00  0.00     0.349 C 
BRANCH  20  21
HETATM   21  C   UNL     1     -36.391  41.888 -57.849  1.00  0.00     0.411 C 
HETATM   22  F   UNL     1     -35.751  40.829 -58.394  1.00  0.00    -0.169 F 
HETATM   23  F   UNL     1     -36.881  42.634 -58.862  1.00  0.00    -0.169 F 
HETATM   24  F   UNL     1     -35.509  42.617 -57.149  1.00  0.00    -0.169 F 
ENDBRANCH  20  21
ENDBRANCH  17  20
ENDBRANCH  16  17
ENDBRANCH   2  16
TORSDOF 5
ENDMDL
