MODEL 1
REMARK VINA RESULT:      -8.9      0.000      0.000
REMARK  6 active torsions:
REMARK  status: ('A' for Active; 'I' for Inactive)
REMARK    1  A    between atoms: C_5  and  N_6 
REMARK       I    between atoms: N_6  and  C_7 
REMARK    2  A    between atoms: C_7  and  C_8 
REMARK    3  A    between atoms: C_8  and  N_9 
REMARK    4  A    between atoms: C_8  and  C_17 
REMARK       I    between atoms: N_9  and  C_10 
REMARK    5  A    between atoms: C_10  and  C_11 
REMARK    6  A    between atoms: C_17  and  C_18 
ROOT
HETATM    1  C   UNL     1     -42.021  55.247 -53.296  1.00  0.00     0.181 C 
ENDROOT
BRANCH   1   2
HETATM    2  C   UNL     1     -43.035  55.350 -54.469  1.00  0.00     0.245 C 
HETATM    3  N   UNL     1     -42.633  56.240 -55.459  1.00  0.00    -0.325 N 
HETATM    4  H   UNL     1     -41.761  56.730 -55.319  1.00  0.00     0.169 HD
HETATM    5  O   UNL     1     -44.034  54.635 -54.522  1.00  0.00    -0.271 OA
BRANCH   3   6
HETATM    6  C   UNL     1     -43.272  56.509 -56.689  1.00  0.00     0.034 A 
HETATM    7  C   UNL     1     -43.097  55.754 -57.848  1.00  0.00     0.030 A 
HETATM    8  C   UNL     1     -43.751  56.110 -59.035  1.00  0.00     0.009 A 
HETATM    9  C   UNL     1     -44.591  57.226 -59.081  1.00  0.00    -0.062 A 
HETATM   10  C   UNL     1     -45.298  57.609 -60.347  1.00  0.00     0.048 C 
HETATM   11  C   UNL     1     -44.783  57.972 -57.915  1.00  0.00     0.009 A 
HETATM   12  C   UNL     1     -44.129  57.617 -56.732  1.00  0.00     0.030 A 
ENDBRANCH   3   6
ENDBRANCH   1   2
BRANCH   1  13
HETATM   13  N   UNL     1     -41.811  56.555 -52.678  1.00  0.00    -0.342 N 
HETATM   14  C   UNL     1     -42.225  56.891 -51.408  1.00  0.00     0.276 C 
HETATM   15  O   UNL     1     -42.916  56.158 -50.707  1.00  0.00    -0.265 OA
HETATM   16  H   UNL     1     -41.124  57.175 -53.087  1.00  0.00     0.163 HD
BRANCH  14  17
HETATM   17  C   UNL     1     -41.779  58.204 -50.988  1.00  0.00     0.142 A 
HETATM   18  O   UNL     1     -42.673  59.248 -50.964  1.00  0.00    -0.317 OA
HETATM   19  C   UNL     1     -41.999  60.344 -50.532  1.00  0.00     0.143 A 
HETATM   20  C   UNL     1     -40.686  60.031 -50.270  1.00  0.00     0.027 A 
HETATM   21  C   UNL     1     -40.542  58.655 -50.565  1.00  0.00     0.045 A 
ENDBRANCH  14  17
ENDBRANCH   1  13
BRANCH   1  22
HETATM   22  C   UNL     1     -40.733  54.494 -53.681  1.00  0.00     0.075 C 
BRANCH  22  23
HETATM   23  C   UNL     1     -40.362  53.417 -52.702  1.00  0.00    -0.028 A 
HETATM   24  C   UNL     1     -40.069  52.043 -52.988  1.00  0.00    -0.002 A 
HETATM   25  C   UNL     1     -39.810  51.410 -51.772  1.00  0.00     0.042 A 
HETATM   26  C   UNL     1     -40.014  51.272 -54.169  1.00  0.00     0.014 A 
HETATM   27  C   UNL     1     -39.506  50.047 -51.675  1.00  0.00     0.030 A 
HETATM   28  N   UNL     1     -39.918  52.364 -50.788  1.00  0.00    -0.365 N 
HETATM   29  C   UNL     1     -39.465  49.305 -52.858  1.00  0.00     0.002 A 
HETATM   30  C   UNL     1     -39.714  49.907 -54.090  1.00  0.00     0.001 A 
HETATM   31  H   UNL     1     -39.782  52.189 -49.801  1.00  0.00     0.165 HD
HETATM   32  C   UNL     1     -40.245  53.573 -51.334  1.00  0.00     0.096 A 
ENDBRANCH  22  23
ENDBRANCH   1  22
TORSDOF 6
ENDMDL
MODEL 2
REMARK VINA RESULT:      -8.5      1.967      8.124
REMARK  6 active torsions:
REMARK  status: ('A' for Active; 'I' for Inactive)
REMARK    1  A    between atoms: C_5  and  N_6 
REMARK       I    between atoms: N_6  and  C_7 
REMARK    2  A    between atoms: C_7  and  C_8 
REMARK    3  A    between atoms: C_8  and  N_9 
REMARK    4  A    between atoms: C_8  and  C_17 
REMARK       I    between atoms: N_9  and  C_10 
REMARK    5  A    between atoms: C_10  and  C_11 
REMARK    6  A    between atoms: C_17  and  C_18 
ROOT
HETATM    1  C   UNL     1     -42.003  56.827 -54.106  1.00  0.00     0.181 C 
ENDROOT
BRANCH   1   2
HETATM    2  C   UNL     1     -42.053  55.435 -53.416  1.00  0.00     0.245 C 
HETATM    3  N   UNL     1     -40.806  54.827 -53.327  1.00  0.00    -0.325 N 
HETATM    4  H   UNL     1     -40.017  55.321 -53.719  1.00  0.00     0.169 HD
HETATM    5  O   UNL     1     -43.093  54.993 -52.932  1.00  0.00    -0.271 OA
BRANCH   3   6
HETATM    6  C   UNL     1     -40.484  53.608 -52.691  1.00  0.00     0.034 A 
HETATM    7  C   UNL     1     -40.488  53.415 -51.310  1.00  0.00     0.030 A 
HETATM    8  C   UNL     1     -40.128  52.178 -50.763  1.00  0.00     0.009 A 
HETATM    9  C   UNL     1     -39.758  51.112 -51.588  1.00  0.00    -0.062 A 
HETATM   10  C   UNL     1     -39.376  49.782 -51.009  1.00  0.00     0.048 C 
HETATM   11  C   UNL     1     -39.772  51.297 -52.973  1.00  0.00     0.009 A 
HETATM   12  C   UNL     1     -40.131  52.534 -53.518  1.00  0.00     0.030 A 
ENDBRANCH   3   6
ENDBRANCH   1   2
BRANCH   1  13
HETATM   13  N   UNL     1     -42.025  56.683 -55.561  1.00  0.00    -0.342 N 
HETATM   14  C   UNL     1     -43.089  57.032 -56.362  1.00  0.00     0.276 C 
HETATM   15  O   UNL     1     -44.175  57.396 -55.921  1.00  0.00    -0.265 OA
HETATM   16  H   UNL     1     -41.145  56.551 -56.043  1.00  0.00     0.163 HD
BRANCH  14  17
HETATM   17  C   UNL     1     -42.806  56.912 -57.778  1.00  0.00     0.142 A 
HETATM   18  O   UNL     1     -42.133  57.922 -58.422  1.00  0.00    -0.317 OA
HETATM   19  C   UNL     1     -42.000  57.551 -59.721  1.00  0.00     0.143 A 
HETATM   20  C   UNL     1     -42.568  56.318 -59.932  1.00  0.00     0.027 A 
HETATM   21  C   UNL     1     -43.090  55.905 -58.683  1.00  0.00     0.045 A 
ENDBRANCH  14  17
ENDBRANCH   1  13
BRANCH   1  22
HETATM   22  C   UNL     1     -40.881  57.729 -53.557  1.00  0.00     0.075 C 
BRANCH  22  23
HETATM   23  C   UNL     1     -41.270  58.460 -52.304  1.00  0.00    -0.028 A 
HETATM   24  C   UNL     1     -41.981  59.702 -52.205  1.00  0.00    -0.002 A 
HETATM   25  C   UNL     1     -42.087  60.014 -50.849  1.00  0.00     0.042 A 
HETATM   26  C   UNL     1     -42.534  60.598 -53.144  1.00  0.00     0.014 A 
HETATM   27  C   UNL     1     -42.710  61.178 -50.384  1.00  0.00     0.030 A 
HETATM   28  N   UNL     1     -41.485  58.995 -50.150  1.00  0.00    -0.365 N 
HETATM   29  C   UNL     1     -43.242  62.053 -51.335  1.00  0.00     0.002 A 
HETATM   30  C   UNL     1     -43.158  61.769 -52.697  1.00  0.00     0.001 A 
HETATM   31  H   UNL     1     -41.412  58.954 -49.142  1.00  0.00     0.165 HD
HETATM   32  C   UNL     1     -40.994  58.054 -51.012  1.00  0.00     0.096 A 
ENDBRANCH  22  23
ENDBRANCH   1  22
TORSDOF 6
ENDMDL
MODEL 3
REMARK VINA RESULT:      -8.4      1.964      7.295
REMARK  6 active torsions:
REMARK  status: ('A' for Active; 'I' for Inactive)
REMARK    1  A    between atoms: C_5  and  N_6 
REMARK       I    between atoms: N_6  and  C_7 
REMARK    2  A    between atoms: C_7  and  C_8 
REMARK    3  A    between atoms: C_8  and  N_9 
REMARK    4  A    between atoms: C_8  and  C_17 
REMARK       I    between atoms: N_9  and  C_10 
REMARK    5  A    between atoms: C_10  and  C_11 
REMARK    6  A    between atoms: C_17  and  C_18 
ROOT
HETATM    1  C   UNL     1     -42.367  56.872 -54.628  1.00  0.00     0.181 C 
ENDROOT
BRANCH   1   2
HETATM    2  C   UNL     1     -42.277  55.414 -54.100  1.00  0.00     0.245 C 
HETATM    3  N   UNL     1     -41.019  55.091 -53.603  1.00  0.00    -0.325 N 
HETATM    4  H   UNL     1     -40.304  55.804 -53.647  1.00  0.00     0.169 HD
HETATM    5  O   UNL     1     -43.264  54.682 -54.059  1.00  0.00    -0.271 OA
BRANCH   3   6
HETATM    6  C   UNL     1     -40.621  53.890 -52.978  1.00  0.00     0.034 A 
HETATM    7  C   UNL     1     -40.541  53.710 -51.597  1.00  0.00     0.030 A 
HETATM    8  C   UNL     1     -40.108  52.490 -51.062  1.00  0.00     0.009 A 
HETATM    9  C   UNL     1     -39.748  51.430 -51.899  1.00  0.00    -0.062 A 
HETATM   10  C   UNL     1     -39.288  50.120 -51.332  1.00  0.00     0.048 C 
HETATM   11  C   UNL     1     -39.846  51.602 -53.282  1.00  0.00     0.009 A 
HETATM   12  C   UNL     1     -40.277  52.821 -53.815  1.00  0.00     0.030 A 
ENDBRANCH   3   6
ENDBRANCH   1   2
BRANCH   1  13
HETATM   13  N   UNL     1     -42.345  57.826 -53.520  1.00  0.00    -0.342 N 
HETATM   14  C   UNL     1     -41.862  59.112 -53.609  1.00  0.00     0.276 C 
HETATM   15  O   UNL     1     -41.295  59.553 -54.604  1.00  0.00    -0.265 OA
HETATM   16  H   UNL     1     -42.924  57.635 -52.712  1.00  0.00     0.163 HD
BRANCH  14  17
HETATM   17  C   UNL     1     -42.074  59.890 -52.405  1.00  0.00     0.142 A 
HETATM   18  O   UNL     1     -42.895  60.991 -52.447  1.00  0.00    -0.317 OA
HETATM   19  C   UNL     1     -42.920  61.521 -51.197  1.00  0.00     0.143 A 
HETATM   20  C   UNL     1     -42.134  60.783 -50.344  1.00  0.00     0.027 A 
HETATM   21  C   UNL     1     -41.587  59.734 -51.120  1.00  0.00     0.045 A 
ENDBRANCH  14  17
ENDBRANCH   1  13
BRANCH   1  22
HETATM   22  C   UNL     1     -43.512  57.075 -55.639  1.00  0.00     0.075 C 
BRANCH  22  23
HETATM   23  C   UNL     1     -43.081  56.897 -57.066  1.00  0.00    -0.028 A 
HETATM   24  C   UNL     1     -42.703  57.920 -57.997  1.00  0.00    -0.002 A 
HETATM   25  C   UNL     1     -42.411  57.294 -59.209  1.00  0.00     0.042 A 
HETATM   26  C   UNL     1     -42.593  59.325 -57.925  1.00  0.00     0.014 A 
HETATM   27  C   UNL     1     -42.024  58.001 -60.354  1.00  0.00     0.030 A 
HETATM   28  N   UNL     1     -42.583  55.944 -59.020  1.00  0.00    -0.365 N 
HETATM   29  C   UNL     1     -41.932  59.391 -60.258  1.00  0.00     0.002 A 
HETATM   30  C   UNL     1     -42.210  60.047 -59.062  1.00  0.00     0.001 A 
HETATM   31  H   UNL     1     -42.441  55.241 -59.733  1.00  0.00     0.165 HD
HETATM   32  C   UNL     1     -42.981  55.692 -57.737  1.00  0.00     0.096 A 
ENDBRANCH  22  23
ENDBRANCH   1  22
TORSDOF 6
ENDMDL
MODEL 4
REMARK VINA RESULT:      -8.4      1.827      2.253
REMARK  6 active torsions:
REMARK  status: ('A' for Active; 'I' for Inactive)
REMARK    1  A    between atoms: C_5  and  N_6 
REMARK       I    between atoms: N_6  and  C_7 
REMARK    2  A    between atoms: C_7  and  C_8 
REMARK    3  A    between atoms: C_8  and  N_9 
REMARK    4  A    between atoms: C_8  and  C_17 
REMARK       I    between atoms: N_9  and  C_10 
REMARK    5  A    between atoms: C_10  and  C_11 
REMARK    6  A    between atoms: C_17  and  C_18 
ROOT
HETATM    1  C   UNL     1     -43.042  56.278 -52.532  1.00  0.00     0.181 C 
ENDROOT
BRANCH   1   2
HETATM    2  C   UNL     1     -43.504  55.824 -53.944  1.00  0.00     0.245 C 
HETATM    3  N   UNL     1     -43.238  56.764 -54.933  1.00  0.00    -0.325 N 
HETATM    4  H   UNL     1     -42.801  57.630 -54.647  1.00  0.00     0.169 HD
HETATM    5  O   UNL     1     -43.971  54.704 -54.139  1.00  0.00    -0.271 OA
BRANCH   3   6
HETATM    6  C   UNL     1     -43.450  56.639 -56.323  1.00  0.00     0.034 A 
HETATM    7  C   UNL     1     -42.883  55.644 -57.119  1.00  0.00     0.030 A 
HETATM    8  C   UNL     1     -43.126  55.611 -58.498  1.00  0.00     0.009 A 
HETATM    9  C   UNL     1     -43.941  56.572 -59.103  1.00  0.00    -0.062 A 
HETATM   10  C   UNL     1     -44.210  56.539 -60.578  1.00  0.00     0.048 C 
HETATM   11  C   UNL     1     -44.526  57.558 -58.304  1.00  0.00     0.009 A 
HETATM   12  C   UNL     1     -44.281  57.591 -56.928  1.00  0.00     0.030 A 
ENDBRANCH   3   6
ENDBRANCH   1   2
BRANCH   1  13
HETATM   13  N   UNL     1     -43.701  57.527 -52.150  1.00  0.00    -0.342 N 
HETATM   14  C   UNL     1     -44.639  57.638 -51.147  1.00  0.00     0.276 C 
HETATM   15  O   UNL     1     -45.101  56.673 -50.546  1.00  0.00    -0.265 OA
HETATM   16  H   UNL     1     -43.290  58.400 -52.456  1.00  0.00     0.163 HD
BRANCH  14  17
HETATM   17  C   UNL     1     -45.038  59.005 -50.883  1.00  0.00     0.142 A 
HETATM   18  O   UNL     1     -45.749  59.295 -49.744  1.00  0.00    -0.317 OA
HETATM   19  C   UNL     1     -45.983  60.632 -49.745  1.00  0.00     0.143 A 
HETATM   20  C   UNL     1     -45.434  61.216 -50.861  1.00  0.00     0.027 A 
HETATM   21  C   UNL     1     -44.827  60.171 -51.597  1.00  0.00     0.045 A 
ENDBRANCH  14  17
ENDBRANCH   1  13
BRANCH   1  22
HETATM   22  C   UNL     1     -41.510  56.275 -52.372  1.00  0.00     0.075 C 
BRANCH  22  23
HETATM   23  C   UNL     1     -40.972  54.970 -51.857  1.00  0.00    -0.028 A 
HETATM   24  C   UNL     1     -40.594  53.820 -52.625  1.00  0.00    -0.002 A 
HETATM   25  C   UNL     1     -40.183  52.835 -51.726  1.00  0.00     0.042 A 
HETATM   26  C   UNL     1     -40.576  53.518 -54.003  1.00  0.00     0.014 A 
HETATM   27  C   UNL     1     -39.763  51.563 -52.133  1.00  0.00     0.030 A 
HETATM   28  N   UNL     1     -40.285  53.370 -50.464  1.00  0.00    -0.365 N 
HETATM   29  C   UNL     1     -39.762  51.288 -53.503  1.00  0.00     0.002 A 
HETATM   30  C   UNL     1     -40.161  52.250 -54.427  1.00  0.00     0.001 A 
HETATM   31  H   UNL     1     -40.052  52.879 -49.611  1.00  0.00     0.165 HD
HETATM   32  C   UNL     1     -40.754  54.653 -50.530  1.00  0.00     0.096 A 
ENDBRANCH  22  23
ENDBRANCH   1  22
TORSDOF 6
ENDMDL
MODEL 5
REMARK VINA RESULT:      -8.3      1.766      6.194
REMARK  6 active torsions:
REMARK  status: ('A' for Active; 'I' for Inactive)
REMARK    1  A    between atoms: C_5  and  N_6 
REMARK       I    between atoms: N_6  and  C_7 
REMARK    2  A    between atoms: C_7  and  C_8 
REMARK    3  A    between atoms: C_8  and  N_9 
REMARK    4  A    between atoms: C_8  and  C_17 
REMARK       I    between atoms: N_9  and  C_10 
REMARK    5  A    between atoms: C_10  and  C_11 
REMARK    6  A    between atoms: C_17  and  C_18 
ROOT
HETATM    1  C   UNL     1     -42.330  54.891 -52.877  1.00  0.00     0.181 C 
ENDROOT
BRANCH   1   2
HETATM    2  C   UNL     1     -43.201  55.186 -54.130  1.00  0.00     0.245 C 
HETATM    3  N   UNL     1     -42.580  56.036 -55.037  1.00  0.00    -0.325 N 
HETATM    4  H   UNL     1     -41.662  56.384 -54.797  1.00  0.00     0.169 HD
HETATM    5  O   UNL     1     -44.284  54.631 -54.306  1.00  0.00    -0.271 OA
BRANCH   3   6
HETATM    6  C   UNL     1     -43.052  56.439 -56.305  1.00  0.00     0.034 A 
HETATM    7  C   UNL     1     -43.681  57.657 -56.561  1.00  0.00     0.030 A 
HETATM    8  C   UNL     1     -44.144  57.963 -57.847  1.00  0.00     0.009 A 
HETATM    9  C   UNL     1     -43.986  57.057 -58.898  1.00  0.00    -0.062 A 
HETATM   10  C   UNL     1     -44.475  57.381 -60.279  1.00  0.00     0.048 C 
HETATM   11  C   UNL     1     -43.339  55.844 -58.649  1.00  0.00     0.009 A 
HETATM   12  C   UNL     1     -42.878  55.538 -57.365  1.00  0.00     0.030 A 
ENDBRANCH   3   6
ENDBRANCH   1   2
BRANCH   1  13
HETATM   13  N   UNL     1     -41.751  53.551 -52.954  1.00  0.00    -0.342 N 
HETATM   14  C   UNL     1     -40.665  53.216 -53.732  1.00  0.00     0.276 C 
HETATM   15  O   UNL     1     -40.141  53.988 -54.529  1.00  0.00    -0.265 OA
HETATM   16  H   UNL     1     -41.989  52.883 -52.233  1.00  0.00     0.163 HD
BRANCH  14  17
HETATM   17  C   UNL     1     -40.211  51.855 -53.528  1.00  0.00     0.142 A 
HETATM   18  O   UNL     1     -39.814  51.454 -52.276  1.00  0.00    -0.317 OA
HETATM   19  C   UNL     1     -39.449  50.150 -52.368  1.00  0.00     0.143 A 
HETATM   20  C   UNL     1     -39.604  49.695 -53.656  1.00  0.00     0.027 A 
HETATM   21  C   UNL     1     -40.093  50.792 -54.405  1.00  0.00     0.045 A 
ENDBRANCH  14  17
ENDBRANCH   1  13
BRANCH   1  22
HETATM   22  C   UNL     1     -43.053  55.213 -51.555  1.00  0.00     0.075 C 
BRANCH  22  23
HETATM   23  C   UNL     1     -43.239  56.686 -51.326  1.00  0.00    -0.028 A 
HETATM   24  C   UNL     1     -42.220  57.669 -51.101  1.00  0.00    -0.002 A 
HETATM   25  C   UNL     1     -42.858  58.894 -50.907  1.00  0.00     0.042 A 
HETATM   26  C   UNL     1     -40.811  57.629 -51.030  1.00  0.00     0.014 A 
HETATM   27  C   UNL     1     -42.162  60.079 -50.639  1.00  0.00     0.030 A 
HETATM   28  N   UNL     1     -44.209  58.672 -51.030  1.00  0.00    -0.365 N 
HETATM   29  C   UNL     1     -40.768  60.010 -50.567  1.00  0.00     0.002 A 
HETATM   30  C   UNL     1     -40.099  58.804 -50.761  1.00  0.00     0.001 A 
HETATM   31  H   UNL     1     -44.920  59.385 -50.938  1.00  0.00     0.165 HD
HETATM   32  C   UNL     1     -44.450  57.351 -51.286  1.00  0.00     0.096 A 
ENDBRANCH  22  23
ENDBRANCH   1  22
TORSDOF 6
ENDMDL
MODEL 6
REMARK VINA RESULT:      -8.3      1.872      5.939
REMARK  6 active torsions:
REMARK  status: ('A' for Active; 'I' for Inactive)
REMARK    1  A    between atoms: C_5  and  N_6 
REMARK       I    between atoms: N_6  and  C_7 
REMARK    2  A    between atoms: C_7  and  C_8 
REMARK    3  A    between atoms: C_8  and  N_9 
REMARK    4  A    between atoms: C_8  and  C_17 
REMARK       I    between atoms: N_9  and  C_10 
REMARK    5  A    between atoms: C_10  and  C_11 
REMARK    6  A    between atoms: C_17  and  C_18 
ROOT
HETATM    1  C   UNL     1     -41.409  56.413 -54.205  1.00  0.00     0.181 C 
ENDROOT
BRANCH   1   2
HETATM    2  C   UNL     1     -41.515  57.885 -53.718  1.00  0.00     0.245 C 
HETATM    3  N   UNL     1     -42.591  58.100 -52.865  1.00  0.00    -0.325 N 
HETATM    4  H   UNL     1     -43.190  57.312 -52.662  1.00  0.00     0.169 HD
HETATM    5  O   UNL     1     -40.663  58.722 -54.009  1.00  0.00    -0.271 OA
BRANCH   3   6
HETATM    6  C   UNL     1     -42.927  59.289 -52.183  1.00  0.00     0.034 A 
HETATM    7  C   UNL     1     -43.873  60.212 -52.629  1.00  0.00     0.030 A 
HETATM    8  C   UNL     1     -44.124  61.382 -51.902  1.00  0.00     0.009 A 
HETATM    9  C   UNL     1     -43.435  61.649 -50.716  1.00  0.00    -0.062 A 
HETATM   10  C   UNL     1     -43.703  62.897 -49.929  1.00  0.00     0.048 C 
HETATM   11  C   UNL     1     -42.501  60.716 -50.256  1.00  0.00     0.009 A 
HETATM   12  C   UNL     1     -42.250  59.549 -50.984  1.00  0.00     0.030 A 
ENDBRANCH   3   6
ENDBRANCH   1   2
BRANCH   1  13
HETATM   13  N   UNL     1     -41.696  56.320 -55.635  1.00  0.00    -0.342 N 
HETATM   14  C   UNL     1     -42.898  56.664 -56.212  1.00  0.00     0.276 C 
HETATM   15  O   UNL     1     -43.892  56.979 -55.564  1.00  0.00    -0.265 OA
HETATM   16  H   UNL     1     -40.918  56.231 -56.276  1.00  0.00     0.163 HD
BRANCH  14  17
HETATM   17  C   UNL     1     -42.880  56.601 -57.660  1.00  0.00     0.142 A 
HETATM   18  O   UNL     1     -43.363  55.483 -58.295  1.00  0.00    -0.317 OA
HETATM   19  C   UNL     1     -43.232  55.693 -59.630  1.00  0.00     0.143 A 
HETATM   20  C   UNL     1     -42.677  56.926 -59.873  1.00  0.00     0.027 A 
HETATM   21  C   UNL     1     -42.447  57.512 -58.606  1.00  0.00     0.045 A 
ENDBRANCH  14  17
ENDBRANCH   1  13
BRANCH   1  22
HETATM   22  C   UNL     1     -42.195  55.429 -53.317  1.00  0.00     0.075 C 
BRANCH  22  23
HETATM   23  C   UNL     1     -41.312  54.471 -52.570  1.00  0.00    -0.028 A 
HETATM   24  C   UNL     1     -40.796  53.217 -53.036  1.00  0.00    -0.002 A 
HETATM   25  C   UNL     1     -40.054  52.659 -51.995  1.00  0.00     0.042 A 
HETATM   26  C   UNL     1     -40.901  52.497 -54.245  1.00  0.00     0.014 A 
HETATM   27  C   UNL     1     -39.419  51.415 -52.096  1.00  0.00     0.030 A 
HETATM   28  N   UNL     1     -40.098  53.545 -50.944  1.00  0.00    -0.365 N 
HETATM   29  C   UNL     1     -39.546  50.719 -53.301  1.00  0.00     0.002 A 
HETATM   30  C   UNL     1     -40.275  51.250 -54.363  1.00  0.00     0.001 A 
HETATM   31  H   UNL     1     -39.645  53.401 -50.052  1.00  0.00     0.165 HD
HETATM   32  C   UNL     1     -40.847  54.639 -51.279  1.00  0.00     0.096 A 
ENDBRANCH  22  23
ENDBRANCH   1  22
TORSDOF 6
ENDMDL
MODEL 7
REMARK VINA RESULT:      -8.3      2.075      7.886
REMARK  6 active torsions:
REMARK  status: ('A' for Active; 'I' for Inactive)
REMARK    1  A    between atoms: C_5  and  N_6 
REMARK       I    between atoms: N_6  and  C_7 
REMARK    2  A    between atoms: C_7  and  C_8 
REMARK    3  A    between atoms: C_8  and  N_9 
REMARK    4  A    between atoms: C_8  and  C_17 
REMARK       I    between atoms: N_9  and  C_10 
REMARK    5  A    between atoms: C_10  and  C_11 
REMARK    6  A    between atoms: C_17  and  C_18 
ROOT
HETATM    1  C   UNL     1     -43.401  57.034 -55.363  1.00  0.00     0.181 C 
ENDROOT
BRANCH   1   2
HETATM    2  C   UNL     1     -43.097  55.652 -54.720  1.00  0.00     0.245 C 
HETATM    3  N   UNL     1     -41.738  55.426 -54.534  1.00  0.00    -0.325 N 
HETATM    4  H   UNL     1     -41.099  56.147 -54.839  1.00  0.00     0.169 HD
HETATM    5  O   UNL     1     -43.997  54.904 -54.346  1.00  0.00    -0.271 OA
BRANCH   3   6
HETATM    6  C   UNL     1     -41.125  54.319 -53.907  1.00  0.00     0.034 A 
HETATM    7  C   UNL     1     -40.613  53.213 -54.585  1.00  0.00     0.030 A 
HETATM    8  C   UNL     1     -40.046  52.145 -53.879  1.00  0.00     0.009 A 
HETATM    9  C   UNL     1     -39.981  52.164 -52.484  1.00  0.00    -0.062 A 
HETATM   10  C   UNL     1     -39.371  51.026 -51.722  1.00  0.00     0.048 C 
HETATM   11  C   UNL     1     -40.477  53.279 -51.803  1.00  0.00     0.009 A 
HETATM   12  C   UNL     1     -41.044  54.345 -52.508  1.00  0.00     0.030 A 
ENDBRANCH   3   6
ENDBRANCH   1   2
BRANCH   1  13
HETATM   13  N   UNL     1     -43.969  56.868 -56.700  1.00  0.00    -0.342 N 
HETATM   14  C   UNL     1     -43.362  56.174 -57.723  1.00  0.00     0.276 C 
HETATM   15  O   UNL     1     -42.225  55.718 -57.648  1.00  0.00    -0.265 OA
HETATM   16  H   UNL     1     -44.955  57.055 -56.829  1.00  0.00     0.163 HD
BRANCH  14  17
HETATM   17  C   UNL     1     -44.192  56.049 -58.904  1.00  0.00     0.142 A 
HETATM   18  O   UNL     1     -45.168  56.985 -59.148  1.00  0.00    -0.317 OA
HETATM   19  C   UNL     1     -45.782  56.633 -60.306  1.00  0.00     0.143 A 
HETATM   20  C   UNL     1     -45.220  55.489 -60.821  1.00  0.00     0.027 A 
HETATM   21  C   UNL     1     -44.198  55.110 -59.920  1.00  0.00     0.045 A 
ENDBRANCH  14  17
ENDBRANCH   1  13
BRANCH   1  22
HETATM   22  C   UNL     1     -42.212  58.011 -55.277  1.00  0.00     0.075 C 
BRANCH  22  23
HETATM   23  C   UNL     1     -42.345  59.008 -54.162  1.00  0.00    -0.028 A 
HETATM   24  C   UNL     1     -41.764  58.935 -52.853  1.00  0.00    -0.002 A 
HETATM   25  C   UNL     1     -42.183  60.063 -52.147  1.00  0.00     0.042 A 
HETATM   26  C   UNL     1     -40.929  58.006 -52.197  1.00  0.00     0.014 A 
HETATM   27  C   UNL     1     -41.818  60.306 -50.818  1.00  0.00     0.030 A 
HETATM   28  N   UNL     1     -42.970  60.804 -52.997  1.00  0.00    -0.365 N 
HETATM   29  C   UNL     1     -40.998  59.366 -50.189  1.00  0.00     0.002 A 
HETATM   30  C   UNL     1     -40.556  58.232 -50.866  1.00  0.00     0.001 A 
HETATM   31  H   UNL     1     -43.414  61.679 -52.753  1.00  0.00     0.165 HD
HETATM   32  C   UNL     1     -43.071  60.183 -54.211  1.00  0.00     0.096 A 
ENDBRANCH  22  23
ENDBRANCH   1  22
TORSDOF 6
ENDMDL
MODEL 8
REMARK VINA RESULT:      -8.0      2.074      6.462
REMARK  6 active torsions:
REMARK  status: ('A' for Active; 'I' for Inactive)
REMARK    1  A    between atoms: C_5  and  N_6 
REMARK       I    between atoms: N_6  and  C_7 
REMARK    2  A    between atoms: C_7  and  C_8 
REMARK    3  A    between atoms: C_8  and  N_9 
REMARK    4  A    between atoms: C_8  and  C_17 
REMARK       I    between atoms: N_9  and  C_10 
REMARK    5  A    between atoms: C_10  and  C_11 
REMARK    6  A    between atoms: C_17  and  C_18 
ROOT
HETATM    1  C   UNL     1     -41.337  55.521 -53.384  1.00  0.00     0.181 C 
ENDROOT
BRANCH   1   2
HETATM    2  C   UNL     1     -42.536  55.720 -54.352  1.00  0.00     0.245 C 
HETATM    3  N   UNL     1     -42.161  56.250 -55.581  1.00  0.00    -0.325 N 
HETATM    4  H   UNL     1     -41.183  56.464 -55.718  1.00  0.00     0.169 HD
HETATM    5  O   UNL     1     -43.670  55.349 -54.056  1.00  0.00    -0.271 OA
BRANCH   3   6
HETATM    6  C   UNL     1     -42.980  56.477 -56.709  1.00  0.00     0.034 A 
HETATM    7  C   UNL     1     -43.038  55.638 -57.821  1.00  0.00     0.030 A 
HETATM    8  C   UNL     1     -43.860  55.956 -58.910  1.00  0.00     0.009 A 
HETATM    9  C   UNL     1     -44.638  57.117 -58.904  1.00  0.00    -0.062 A 
HETATM   10  C   UNL     1     -45.524  57.460 -60.064  1.00  0.00     0.048 C 
HETATM   11  C   UNL     1     -44.596  57.948 -57.782  1.00  0.00     0.009 A 
HETATM   12  C   UNL     1     -43.774  57.631 -56.696  1.00  0.00     0.030 A 
ENDBRANCH   3   6
ENDBRANCH   1   2
BRANCH   1  13
HETATM   13  N   UNL     1     -41.029  54.100 -53.228  1.00  0.00    -0.342 N 
HETATM   14  C   UNL     1     -40.375  53.337 -54.169  1.00  0.00     0.276 C 
HETATM   15  O   UNL     1     -40.082  53.749 -55.287  1.00  0.00    -0.265 OA
HETATM   16  H   UNL     1     -41.073  53.699 -52.300  1.00  0.00     0.163 HD
BRANCH  14  17
HETATM   17  C   UNL     1     -40.079  51.993 -53.714  1.00  0.00     0.142 A 
HETATM   18  O   UNL     1     -39.698  51.788 -52.410  1.00  0.00    -0.317 OA
HETATM   19  C   UNL     1     -39.492  50.455 -52.257  1.00  0.00     0.143 A 
HETATM   20  C   UNL     1     -39.737  49.790 -53.435  1.00  0.00     0.027 A 
HETATM   21  C   UNL     1     -40.113  50.779 -54.375  1.00  0.00     0.045 A 
ENDBRANCH  14  17
ENDBRANCH   1  13
BRANCH   1  22
HETATM   22  C   UNL     1     -41.494  56.302 -52.065  1.00  0.00     0.075 C 
BRANCH  22  23
HETATM   23  C   UNL     1     -41.869  57.742 -52.271  1.00  0.00    -0.028 A 
HETATM   24  C   UNL     1     -43.114  58.373 -51.942  1.00  0.00    -0.002 A 
HETATM   25  C   UNL     1     -43.022  59.707 -52.340  1.00  0.00     0.042 A 
HETATM   26  C   UNL     1     -44.317  57.931 -51.352  1.00  0.00     0.014 A 
HETATM   27  C   UNL     1     -44.074  60.619 -52.187  1.00  0.00     0.030 A 
HETATM   28  N   UNL     1     -41.767  59.887 -52.871  1.00  0.00    -0.365 N 
HETATM   29  C   UNL     1     -45.257  60.154 -51.608  1.00  0.00     0.002 A 
HETATM   30  C   UNL     1     -45.380  58.829 -51.194  1.00  0.00     0.001 A 
HETATM   31  H   UNL     1     -41.420  60.761 -53.242  1.00  0.00     0.165 HD
HETATM   32  C   UNL     1     -41.064  58.715 -52.831  1.00  0.00     0.096 A 
ENDBRANCH  22  23
ENDBRANCH   1  22
TORSDOF 6
ENDMDL
MODEL 9
REMARK VINA RESULT:      -8.0      1.332      7.015
REMARK  6 active torsions:
REMARK  status: ('A' for Active; 'I' for Inactive)
REMARK    1  A    between atoms: C_5  and  N_6 
REMARK       I    between atoms: N_6  and  C_7 
REMARK    2  A    between atoms: C_7  and  C_8 
REMARK    3  A    between atoms: C_8  and  N_9 
REMARK    4  A    between atoms: C_8  and  C_17 
REMARK       I    between atoms: N_9  and  C_10 
REMARK    5  A    between atoms: C_10  and  C_11 
REMARK    6  A    between atoms: C_17  and  C_18 
ROOT
HETATM    1  C   UNL     1     -42.530  56.347 -54.414  1.00  0.00     0.181 C 
ENDROOT
BRANCH   1   2
HETATM    2  C   UNL     1     -42.380  54.909 -53.845  1.00  0.00     0.245 C 
HETATM    3  N   UNL     1     -41.056  54.547 -53.622  1.00  0.00    -0.325 N 
HETATM    4  H   UNL     1     -40.342  55.221 -53.859  1.00  0.00     0.169 HD
HETATM    5  O   UNL     1     -43.360  54.228 -53.550  1.00  0.00    -0.271 OA
BRANCH   3   6
HETATM    6  C   UNL     1     -40.574  53.354 -53.040  1.00  0.00     0.034 A 
HETATM    7  C   UNL     1     -40.131  52.248 -53.764  1.00  0.00     0.030 A 
HETATM    8  C   UNL     1     -39.695  51.093 -53.103  1.00  0.00     0.009 A 
HETATM    9  C   UNL     1     -39.693  51.025 -51.708  1.00  0.00    -0.062 A 
HETATM   10  C   UNL     1     -39.222  49.793 -50.994  1.00  0.00     0.048 C 
HETATM   11  C   UNL     1     -40.119  52.139 -50.980  1.00  0.00     0.009 A 
HETATM   12  C   UNL     1     -40.556  53.291 -51.640  1.00  0.00     0.030 A 
ENDBRANCH   3   6
ENDBRANCH   1   2
BRANCH   1  13
HETATM   13  N   UNL     1     -42.094  57.339 -53.432  1.00  0.00    -0.342 N 
HETATM   14  C   UNL     1     -42.700  57.547 -52.213  1.00  0.00     0.276 C 
HETATM   15  O   UNL     1     -43.742  56.994 -51.875  1.00  0.00    -0.265 OA
HETATM   16  H   UNL     1     -41.167  57.733 -53.527  1.00  0.00     0.163 HD
BRANCH  14  17
HETATM   17  C   UNL     1     -41.995  58.496 -51.375  1.00  0.00     0.142 A 
HETATM   18  O   UNL     1     -42.633  59.643 -50.967  1.00  0.00    -0.317 OA
HETATM   19  C   UNL     1     -41.756  60.338 -50.200  1.00  0.00     0.143 A 
HETATM   20  C   UNL     1     -40.563  59.664 -50.099  1.00  0.00     0.027 A 
HETATM   21  C   UNL     1     -40.714  58.479 -50.856  1.00  0.00     0.045 A 
ENDBRANCH  14  17
ENDBRANCH   1  13
BRANCH   1  22
HETATM   22  C   UNL     1     -43.918  56.607 -55.031  1.00  0.00     0.075 C 
BRANCH  22  23
HETATM   23  C   UNL     1     -43.871  57.496 -56.240  1.00  0.00    -0.028 A 
HETATM   24  C   UNL     1     -43.533  57.123 -57.583  1.00  0.00    -0.002 A 
HETATM   25  C   UNL     1     -43.591  58.278 -58.363  1.00  0.00     0.042 A 
HETATM   26  C   UNL     1     -43.171  55.910 -58.207  1.00  0.00     0.014 A 
HETATM   27  C   UNL     1     -43.297  58.285 -59.732  1.00  0.00     0.030 A 
HETATM   28  N   UNL     1     -43.968  59.308 -57.535  1.00  0.00    -0.365 N 
HETATM   29  C   UNL     1     -42.933  57.073 -60.324  1.00  0.00     0.002 A 
HETATM   30  C   UNL     1     -42.871  55.900 -59.575  1.00  0.00     0.001 A 
HETATM   31  H   UNL     1     -44.091  60.268 -57.831  1.00  0.00     0.165 HD
HETATM   32  C   UNL     1     -44.143  58.850 -56.259  1.00  0.00     0.096 A 
ENDBRANCH  22  23
ENDBRANCH   1  22
TORSDOF 6
ENDMDL
MODEL 10
REMARK VINA RESULT:      -8.0      1.204      2.068
REMARK  6 active torsions:
REMARK  status: ('A' for Active; 'I' for Inactive)
REMARK    1  A    between atoms: C_5  and  N_6 
REMARK       I    between atoms: N_6  and  C_7 
REMARK    2  A    between atoms: C_7  and  C_8 
REMARK    3  A    between atoms: C_8  and  N_9 
REMARK    4  A    between atoms: C_8  and  C_17 
REMARK       I    between atoms: N_9  and  C_10 
REMARK    5  A    between atoms: C_10  and  C_11 
REMARK    6  A    between atoms: C_17  and  C_18 
ROOT
HETATM    1  C   UNL     1     -42.252  56.012 -53.309  1.00  0.00     0.181 C 
ENDROOT
BRANCH   1   2
HETATM    2  C   UNL     1     -43.182  55.746 -54.524  1.00  0.00     0.245 C 
HETATM    3  N   UNL     1     -42.841  56.493 -55.645  1.00  0.00    -0.325 N 
HETATM    4  H   UNL     1     -42.059  57.128 -55.562  1.00  0.00     0.169 HD
HETATM    5  O   UNL     1     -44.062  54.888 -54.486  1.00  0.00    -0.271 OA
BRANCH   3   6
HETATM    6  C   UNL     1     -43.421  56.434 -56.931  1.00  0.00     0.034 A 
HETATM    7  C   UNL     1     -44.248  57.421 -57.467  1.00  0.00     0.030 A 
HETATM    8  C   UNL     1     -44.804  57.267 -58.743  1.00  0.00     0.009 A 
HETATM    9  C   UNL     1     -44.542  56.125 -59.505  1.00  0.00    -0.062 A 
HETATM   10  C   UNL     1     -45.130  55.957 -60.874  1.00  0.00     0.048 C 
HETATM   11  C   UNL     1     -43.699  55.144 -58.977  1.00  0.00     0.009 A 
HETATM   12  C   UNL     1     -43.145  55.297 -57.702  1.00  0.00     0.030 A 
ENDBRANCH   3   6
ENDBRANCH   1   2
BRANCH   1  13
HETATM   13  N   UNL     1     -42.537  57.317 -52.716  1.00  0.00    -0.342 N 
HETATM   14  C   UNL     1     -42.270  57.654 -51.407  1.00  0.00     0.276 C 
HETATM   15  O   UNL     1     -41.867  56.850 -50.573  1.00  0.00    -0.265 OA
HETATM   16  H   UNL     1     -42.715  58.098 -53.336  1.00  0.00     0.163 HD
BRANCH  14  17
HETATM   17  C   UNL     1     -42.528  59.048 -51.108  1.00  0.00     0.142 A 
HETATM   18  O   UNL     1     -43.784  59.565 -51.320  1.00  0.00    -0.317 OA
HETATM   19  C   UNL     1     -43.747  60.872 -50.956  1.00  0.00     0.143 A 
HETATM   20  C   UNL     1     -42.493  61.213 -50.508  1.00  0.00     0.027 A 
HETATM   21  C   UNL     1     -41.706  60.041 -50.608  1.00  0.00     0.045 A 
ENDBRANCH  14  17
ENDBRANCH   1  13
BRANCH   1  22
HETATM   22  C   UNL     1     -40.766  55.749 -53.621  1.00  0.00     0.075 C 
BRANCH  22  23
HETATM   23  C   UNL     1     -40.422  54.289 -53.676  1.00  0.00    -0.028 A 
HETATM   24  C   UNL     1     -40.287  53.383 -52.572  1.00  0.00    -0.002 A 
HETATM   25  C   UNL     1     -39.927  52.140 -53.094  1.00  0.00     0.042 A 
HETATM   26  C   UNL     1     -40.426  53.508 -51.173  1.00  0.00     0.014 A 
HETATM   27  C   UNL     1     -39.691  51.019 -52.289  1.00  0.00     0.030 A 
HETATM   28  N   UNL     1     -39.865  52.277 -54.460  1.00  0.00    -0.365 N 
HETATM   29  C   UNL     1     -39.827  51.172 -50.907  1.00  0.00     0.002 A 
HETATM   30  C   UNL     1     -40.191  52.397 -50.354  1.00  0.00     0.001 A 
HETATM   31  H   UNL     1     -39.626  51.533 -55.102  1.00  0.00     0.165 HD
HETATM   32  C   UNL     1     -40.164  53.561 -54.822  1.00  0.00     0.096 A 
ENDBRANCH  22  23
ENDBRANCH   1  22
TORSDOF 6
ENDMDL
