MODEL 1
REMARK VINA RESULT:      -9.0      0.000      0.000
REMARK  9 active torsions:
REMARK  status: ('A' for Active; 'I' for Inactive)
REMARK    1  A    between atoms: C_2  and  O_3 
REMARK    2  A    between atoms: O_3  and  C_4 
REMARK    3  A    between atoms: C_5  and  C_6 
REMARK    4  A    between atoms: C_7  and  C_8 
REMARK       I    between atoms: C_8  and  N_9 
REMARK    5  A    between atoms: N_9  and  C_10 
REMARK    6  A    between atoms: C_20  and  S_21 
REMARK    7  A    between atoms: S_21  and  C_22 
REMARK    8  A    between atoms: C_22  and  C_23 
REMARK       I    between atoms: C_23  and  N_24 
REMARK    9  A    between atoms: N_24  and  C_25 
ROOT
HETATM    1  C   UNL     1     -43.561  58.394 -55.845  1.00  0.00     0.107 A 
HETATM    2  C   UNL     1     -43.386  59.898 -55.636  1.00  0.00     0.046 A 
HETATM    3  C   UNL     1     -43.350  60.425 -54.391  1.00  0.00     0.019 A 
HETATM    4  C   UNL     1     -43.011  61.856 -54.056  1.00  0.00     0.069 C 
HETATM    5  N   UNL     1     -43.584  59.613 -53.295  1.00  0.00    -0.353 N 
HETATM    6  C   UNL     1     -43.833  58.251 -53.336  1.00  0.00     0.087 A 
HETATM    7  C   UNL     1     -43.777  57.621 -54.540  1.00  0.00     0.055 A 
HETATM    8  C   UNL     1     -43.886  56.107 -54.641  1.00  0.00     0.019 C 
HETATM    9  N   UNL     1     -43.977  54.853 -54.726  1.00  0.00    -0.096 N 
HETATM   10  H   UNL     1     -43.791  60.105 -52.428  1.00  0.00     0.166 HD
ENDROOT
BRANCH   1  11
HETATM   11  C   UNL     1     -44.616  58.061 -56.912  1.00  0.00    -0.011 A 
HETATM   12  C   UNL     1     -44.331  57.324 -58.076  1.00  0.00     0.076 A 
HETATM   13  C   UNL     1     -45.357  57.038 -58.986  1.00  0.00     0.037 A 
HETATM   14  C   UNL     1     -46.658  57.490 -58.757  1.00  0.00     0.003 A 
HETATM   15  C   UNL     1     -46.949  58.223 -57.616  1.00  0.00     0.001 A 
HETATM   16  C   UNL     1     -45.938  58.505 -56.700  1.00  0.00     0.011 A 
BRANCH  12  17
HETATM   17  O   UNL     1     -43.041  56.895 -58.225  1.00  0.00    -0.351 OA
BRANCH  17  18
HETATM   18  C   UNL     1     -42.622  56.434 -59.508  1.00  0.00     0.171 C 
HETATM   19  C   UNL     1     -41.786  57.476 -60.234  1.00  0.00     0.034 C 
ENDBRANCH  17  18
ENDBRANCH  12  17
ENDBRANCH   1  11
BRANCH   6  20
HETATM   20  S   UNL     1     -44.191  57.295 -51.892  1.00  0.00    -0.102 SA
BRANCH  20  21
HETATM   21  C   UNL     1     -42.588  56.747 -51.262  1.00  0.00     0.184 C 
BRANCH  21  22
HETATM   22  C   UNL     1     -42.337  55.278 -51.554  1.00  0.00     0.231 C 
HETATM   23  N   UNL     1     -41.067  55.015 -52.033  1.00  0.00    -0.327 N 
HETATM   24  H   UNL     1     -40.458  55.817 -52.159  1.00  0.00     0.169 HD
HETATM   25  O   UNL     1     -43.244  54.466 -51.371  1.00  0.00    -0.272 OA
BRANCH  23  26
HETATM   26  C   UNL     1     -40.569  53.787 -52.518  1.00  0.00     0.034 A 
HETATM   27  C   UNL     1     -39.982  52.811 -51.712  1.00  0.00     0.030 A 
HETATM   28  C   UNL     1     -39.611  51.572 -52.252  1.00  0.00     0.009 A 
HETATM   29  C   UNL     1     -39.814  51.294 -53.606  1.00  0.00    -0.062 A 
HETATM   30  C   UNL     1     -39.456  49.957 -54.184  1.00  0.00     0.048 C 
HETATM   31  C   UNL     1     -40.365  52.287 -54.422  1.00  0.00     0.009 A 
HETATM   32  C   UNL     1     -40.736  53.523 -53.882  1.00  0.00     0.030 A 
ENDBRANCH  23  26
ENDBRANCH  21  22
ENDBRANCH  20  21
ENDBRANCH   6  20
BRANCH   2  33
HETATM   33  C   UNL     1     -43.199  60.696 -56.884  1.00  0.00     0.255 C 
HETATM   34  N   UNL     1     -41.990  60.463 -57.506  1.00  0.00    -0.323 N 
HETATM   35  H   UNL     1     -41.422  59.704 -57.152  1.00  0.00     0.169 HD
HETATM   36  O   UNL     1     -44.073  61.475 -57.241  1.00  0.00    -0.268 OA
BRANCH  34  37
HETATM   37  C   UNL     1     -41.470  61.144 -58.622  1.00  0.00     0.035 A 
HETATM   38  C   UNL     1     -41.947  60.952 -59.919  1.00  0.00     0.029 A 
HETATM   39  C   UNL     1     -41.425  61.702 -60.976  1.00  0.00     0.002 A 
HETATM   40  C   UNL     1     -40.405  62.624 -60.748  1.00  0.00     0.000 A 
HETATM   41  C   UNL     1     -39.916  62.810 -59.457  1.00  0.00     0.002 A 
HETATM   42  C   UNL     1     -40.461  62.087 -58.395  1.00  0.00     0.029 A 
ENDBRANCH  34  37
ENDBRANCH   2  33
TORSDOF 9
ENDMDL
MODEL 2
REMARK VINA RESULT:      -8.5      1.829      4.874
REMARK  9 active torsions:
REMARK  status: ('A' for Active; 'I' for Inactive)
REMARK    1  A    between atoms: C_2  and  O_3 
REMARK    2  A    between atoms: O_3  and  C_4 
REMARK    3  A    between atoms: C_5  and  C_6 
REMARK    4  A    between atoms: C_7  and  C_8 
REMARK       I    between atoms: C_8  and  N_9 
REMARK    5  A    between atoms: N_9  and  C_10 
REMARK    6  A    between atoms: C_20  and  S_21 
REMARK    7  A    between atoms: S_21  and  C_22 
REMARK    8  A    between atoms: C_22  and  C_23 
REMARK       I    between atoms: C_23  and  N_24 
REMARK    9  A    between atoms: N_24  and  C_25 
ROOT
HETATM    1  C   UNL     1     -43.365  59.148 -56.436  1.00  0.00     0.107 A 
HETATM    2  C   UNL     1     -43.335  57.781 -57.119  1.00  0.00     0.046 A 
HETATM    3  C   UNL     1     -42.791  56.708 -56.499  1.00  0.00     0.019 A 
HETATM    4  C   UNL     1     -42.858  55.285 -56.992  1.00  0.00     0.069 C 
HETATM    5  N   UNL     1     -42.155  56.870 -55.280  1.00  0.00    -0.353 N 
HETATM    6  C   UNL     1     -42.035  58.060 -54.582  1.00  0.00     0.087 A 
HETATM    7  C   UNL     1     -42.651  59.166 -55.081  1.00  0.00     0.055 A 
HETATM    8  C   UNL     1     -42.693  60.465 -54.293  1.00  0.00     0.019 C 
HETATM    9  N   UNL     1     -42.728  61.543 -53.640  1.00  0.00    -0.096 N 
HETATM   10  H   UNL     1     -41.559  56.094 -54.997  1.00  0.00     0.166 HD
ENDROOT
BRANCH   1  11
HETATM   11  C   UNL     1     -42.904  60.284 -57.363  1.00  0.00    -0.011 A 
HETATM   12  C   UNL     1     -43.788  61.211 -57.946  1.00  0.00     0.076 A 
HETATM   13  C   UNL     1     -43.283  62.237 -58.756  1.00  0.00     0.037 A 
HETATM   14  C   UNL     1     -41.914  62.339 -59.005  1.00  0.00     0.003 A 
HETATM   15  C   UNL     1     -41.034  61.427 -58.441  1.00  0.00     0.001 A 
HETATM   16  C   UNL     1     -41.524  60.409 -57.625  1.00  0.00     0.011 A 
BRANCH  12  17
HETATM   17  O   UNL     1     -45.113  61.064 -57.642  1.00  0.00    -0.351 OA
BRANCH  17  18
HETATM   18  C   UNL     1     -45.742  62.063 -56.841  1.00  0.00     0.171 C 
HETATM   19  C   UNL     1     -46.094  61.538 -55.459  1.00  0.00     0.034 C 
ENDBRANCH  17  18
ENDBRANCH  12  17
ENDBRANCH   1  11
BRANCH   6  20
HETATM   20  S   UNL     1     -41.145  58.197 -53.059  1.00  0.00    -0.102 SA
BRANCH  20  21
HETATM   21  C   UNL     1     -42.054  57.181 -51.872  1.00  0.00     0.184 C 
BRANCH  21  22
HETATM   22  C   UNL     1     -42.147  55.734 -52.320  1.00  0.00     0.231 C 
HETATM   23  N   UNL     1     -40.932  55.074 -52.327  1.00  0.00    -0.327 N 
HETATM   24  H   UNL     1     -40.121  55.622 -52.060  1.00  0.00     0.169 HD
HETATM   25  O   UNL     1     -43.242  55.276 -52.649  1.00  0.00    -0.272 OA
BRANCH  23  26
HETATM   26  C   UNL     1     -40.662  53.776 -52.811  1.00  0.00     0.034 A 
HETATM   27  C   UNL     1     -40.874  53.376 -54.130  1.00  0.00     0.030 A 
HETATM   28  C   UNL     1     -40.480  52.102 -54.559  1.00  0.00     0.009 A 
HETATM   29  C   UNL     1     -39.875  51.206 -53.674  1.00  0.00    -0.062 A 
HETATM   30  C   UNL     1     -39.415  49.855 -54.133  1.00  0.00     0.048 C 
HETATM   31  C   UNL     1     -39.701  51.592 -52.341  1.00  0.00     0.009 A 
HETATM   32  C   UNL     1     -40.093  52.865 -51.914  1.00  0.00     0.030 A 
ENDBRANCH  23  26
ENDBRANCH  21  22
ENDBRANCH  20  21
ENDBRANCH   6  20
BRANCH   2  33
HETATM   33  C   UNL     1     -43.996  57.722 -58.456  1.00  0.00     0.255 C 
HETATM   34  N   UNL     1     -45.359  57.930 -58.401  1.00  0.00    -0.323 N 
HETATM   35  H   UNL     1     -45.750  58.228 -57.517  1.00  0.00     0.169 HD
HETATM   36  O   UNL     1     -43.327  57.486 -59.453  1.00  0.00    -0.268 OA
BRANCH  34  37
HETATM   37  C   UNL     1     -46.273  57.817 -59.465  1.00  0.00     0.035 A 
HETATM   38  C   UNL     1     -46.857  58.921 -60.087  1.00  0.00     0.029 A 
HETATM   39  C   UNL     1     -47.714  58.741 -61.176  1.00  0.00     0.002 A 
HETATM   40  C   UNL     1     -48.015  57.458 -61.629  1.00  0.00     0.000 A 
HETATM   41  C   UNL     1     -47.445  56.352 -61.004  1.00  0.00     0.002 A 
HETATM   42  C   UNL     1     -46.561  56.531 -59.939  1.00  0.00     0.029 A 
ENDBRANCH  34  37
ENDBRANCH   2  33
TORSDOF 9
ENDMDL
MODEL 3
REMARK VINA RESULT:      -8.4      2.875      9.071
REMARK  9 active torsions:
REMARK  status: ('A' for Active; 'I' for Inactive)
REMARK    1  A    between atoms: C_2  and  O_3 
REMARK    2  A    between atoms: O_3  and  C_4 
REMARK    3  A    between atoms: C_5  and  C_6 
REMARK    4  A    between atoms: C_7  and  C_8 
REMARK       I    between atoms: C_8  and  N_9 
REMARK    5  A    between atoms: N_9  and  C_10 
REMARK    6  A    between atoms: C_20  and  S_21 
REMARK    7  A    between atoms: S_21  and  C_22 
REMARK    8  A    between atoms: C_22  and  C_23 
REMARK       I    between atoms: C_23  and  N_24 
REMARK    9  A    between atoms: N_24  and  C_25 
ROOT
HETATM    1  C   UNL     1     -42.188  56.925 -53.760  1.00  0.00     0.107 A 
HETATM    2  C   UNL     1     -42.121  55.852 -54.847  1.00  0.00     0.046 A 
HETATM    3  C   UNL     1     -42.931  55.911 -55.929  1.00  0.00     0.019 A 
HETATM    4  C   UNL     1     -42.838  55.018 -57.141  1.00  0.00     0.069 C 
HETATM    5  N   UNL     1     -43.906  56.890 -56.004  1.00  0.00    -0.353 N 
HETATM    6  C   UNL     1     -44.136  57.878 -55.060  1.00  0.00     0.087 A 
HETATM    7  C   UNL     1     -43.294  57.958 -53.994  1.00  0.00     0.055 A 
HETATM    8  C   UNL     1     -43.390  59.108 -53.003  1.00  0.00     0.019 C 
HETATM    9  N   UNL     1     -43.468  60.061 -52.181  1.00  0.00    -0.096 N 
HETATM   10  H   UNL     1     -44.629  56.727 -56.702  1.00  0.00     0.166 HD
ENDROOT
BRANCH   1  11
HETATM   11  C   UNL     1     -42.222  56.332 -52.343  1.00  0.00    -0.011 A 
HETATM   12  C   UNL     1     -41.336  56.723 -51.321  1.00  0.00     0.076 A 
HETATM   13  C   UNL     1     -41.452  56.154 -50.046  1.00  0.00     0.037 A 
HETATM   14  C   UNL     1     -42.428  55.192 -49.782  1.00  0.00     0.003 A 
HETATM   15  C   UNL     1     -43.303  54.796 -50.782  1.00  0.00     0.001 A 
HETATM   16  C   UNL     1     -43.203  55.362 -52.051  1.00  0.00     0.011 A 
BRANCH  12  17
HETATM   17  O   UNL     1     -40.419  57.684 -51.645  1.00  0.00    -0.351 OA
BRANCH  17  18
HETATM   18  C   UNL     1     -40.329  58.844 -50.818  1.00  0.00     0.171 C 
HETATM   19  C   UNL     1     -38.905  59.370 -50.740  1.00  0.00     0.034 C 
ENDBRANCH  17  18
ENDBRANCH  12  17
ENDBRANCH   1  11
BRANCH   6  20
HETATM   20  S   UNL     1     -45.451  59.052 -55.197  1.00  0.00    -0.102 SA
BRANCH  20  21
HETATM   21  C   UNL     1     -44.870  60.297 -56.371  1.00  0.00     0.184 C 
BRANCH  21  22
HETATM   22  C   UNL     1     -45.146  59.893 -57.808  1.00  0.00     0.231 C 
HETATM   23  N   UNL     1     -46.262  59.090 -57.955  1.00  0.00    -0.327 N 
HETATM   24  H   UNL     1     -46.754  58.842 -57.103  1.00  0.00     0.169 HD
HETATM   25  O   UNL     1     -44.383  60.274 -58.696  1.00  0.00    -0.272 OA
BRANCH  23  26
HETATM   26  C   UNL     1     -46.707  58.445 -59.129  1.00  0.00     0.034 A 
HETATM   27  C   UNL     1     -46.611  57.071 -59.348  1.00  0.00     0.030 A 
HETATM   28  C   UNL     1     -47.174  56.493 -60.494  1.00  0.00     0.009 A 
HETATM   29  C   UNL     1     -47.833  57.281 -61.441  1.00  0.00    -0.062 A 
HETATM   30  C   UNL     1     -48.471  56.666 -62.651  1.00  0.00     0.048 C 
HETATM   31  C   UNL     1     -47.892  58.664 -61.242  1.00  0.00     0.009 A 
HETATM   32  C   UNL     1     -47.331  59.240 -60.097  1.00  0.00     0.030 A 
ENDBRANCH  23  26
ENDBRANCH  21  22
ENDBRANCH  20  21
ENDBRANCH   6  20
BRANCH   2  33
HETATM   33  C   UNL     1     -41.074  54.807 -54.646  1.00  0.00     0.255 C 
HETATM   34  N   UNL     1     -41.570  53.631 -54.122  1.00  0.00    -0.323 N 
HETATM   35  H   UNL     1     -42.575  53.539 -54.052  1.00  0.00     0.169 HD
HETATM   36  O   UNL     1     -39.909  55.055 -54.925  1.00  0.00    -0.268 OA
BRANCH  34  37
HETATM   37  C   UNL     1     -40.825  52.512 -53.708  1.00  0.00     0.035 A 
HETATM   38  C   UNL     1     -40.163  52.450 -52.481  1.00  0.00     0.029 A 
HETATM   39  C   UNL     1     -39.486  51.286 -52.107  1.00  0.00     0.002 A 
HETATM   40  C   UNL     1     -39.441  50.191 -52.969  1.00  0.00     0.000 A 
HETATM   41  C   UNL     1     -40.088  50.253 -54.201  1.00  0.00     0.002 A 
HETATM   42  C   UNL     1     -40.795  51.402 -54.560  1.00  0.00     0.029 A 
ENDBRANCH  34  37
ENDBRANCH   2  33
TORSDOF 9
ENDMDL
MODEL 4
REMARK VINA RESULT:      -8.3      2.039      8.983
REMARK  9 active torsions:
REMARK  status: ('A' for Active; 'I' for Inactive)
REMARK    1  A    between atoms: C_2  and  O_3 
REMARK    2  A    between atoms: O_3  and  C_4 
REMARK    3  A    between atoms: C_5  and  C_6 
REMARK    4  A    between atoms: C_7  and  C_8 
REMARK       I    between atoms: C_8  and  N_9 
REMARK    5  A    between atoms: N_9  and  C_10 
REMARK    6  A    between atoms: C_20  and  S_21 
REMARK    7  A    between atoms: S_21  and  C_22 
REMARK    8  A    between atoms: C_22  and  C_23 
REMARK       I    between atoms: C_23  and  N_24 
REMARK    9  A    between atoms: N_24  and  C_25 
ROOT
HETATM    1  C   UNL     1     -42.164  57.021 -53.839  1.00  0.00     0.107 A 
HETATM    2  C   UNL     1     -42.108  55.938 -54.916  1.00  0.00     0.046 A 
HETATM    3  C   UNL     1     -42.907  56.003 -56.006  1.00  0.00     0.019 A 
HETATM    4  C   UNL     1     -42.821  55.098 -57.209  1.00  0.00     0.069 C 
HETATM    5  N   UNL     1     -43.862  57.000 -56.098  1.00  0.00    -0.353 N 
HETATM    6  C   UNL     1     -44.081  58.000 -55.165  1.00  0.00     0.087 A 
HETATM    7  C   UNL     1     -43.248  58.074 -54.092  1.00  0.00     0.055 A 
HETATM    8  C   UNL     1     -43.329  59.234 -53.112  1.00  0.00     0.019 C 
HETATM    9  N   UNL     1     -43.397  60.195 -52.299  1.00  0.00    -0.096 N 
HETATM   10  H   UNL     1     -44.582  56.846 -56.802  1.00  0.00     0.166 HD
ENDROOT
BRANCH   1  11
HETATM   11  C   UNL     1     -42.222  56.442 -52.417  1.00  0.00    -0.011 A 
HETATM   12  C   UNL     1     -41.342  56.828 -51.389  1.00  0.00     0.076 A 
HETATM   13  C   UNL     1     -41.481  56.272 -50.110  1.00  0.00     0.037 A 
HETATM   14  C   UNL     1     -42.474  55.328 -49.848  1.00  0.00     0.003 A 
HETATM   15  C   UNL     1     -43.344  54.935 -50.855  1.00  0.00     0.001 A 
HETATM   16  C   UNL     1     -43.221  55.488 -52.128  1.00  0.00     0.011 A 
BRANCH  12  17
HETATM   17  O   UNL     1     -40.407  57.772 -51.711  1.00  0.00    -0.351 OA
BRANCH  17  18
HETATM   18  C   UNL     1     -40.295  58.928 -50.882  1.00  0.00     0.171 C 
HETATM   19  C   UNL     1     -38.852  59.383 -50.741  1.00  0.00     0.034 C 
ENDBRANCH  17  18
ENDBRANCH  12  17
ENDBRANCH   1  11
BRANCH   6  20
HETATM   20  S   UNL     1     -45.371  59.199 -55.324  1.00  0.00    -0.102 SA
BRANCH  20  21
HETATM   21  C   UNL     1     -45.686  59.341 -57.098  1.00  0.00     0.184 C 
BRANCH  21  22
HETATM   22  C   UNL     1     -44.814  60.403 -57.744  1.00  0.00     0.231 C 
HETATM   23  N   UNL     1     -43.643  59.906 -58.285  1.00  0.00    -0.327 N 
HETATM   24  H   UNL     1     -43.482  58.910 -58.174  1.00  0.00     0.169 HD
HETATM   25  O   UNL     1     -45.184  61.577 -57.725  1.00  0.00    -0.272 OA
BRANCH  23  26
HETATM   26  C   UNL     1     -42.570  60.643 -58.833  1.00  0.00     0.034 A 
HETATM   27  C   UNL     1     -42.425  60.916 -60.193  1.00  0.00     0.030 A 
HETATM   28  C   UNL     1     -41.391  61.745 -60.646  1.00  0.00     0.009 A 
HETATM   29  C   UNL     1     -40.481  62.307 -59.746  1.00  0.00    -0.062 A 
HETATM   30  C   UNL     1     -39.395  63.228 -60.217  1.00  0.00     0.048 C 
HETATM   31  C   UNL     1     -40.602  62.000 -58.387  1.00  0.00     0.009 A 
HETATM   32  C   UNL     1     -41.636  61.173 -57.935  1.00  0.00     0.030 A 
ENDBRANCH  23  26
ENDBRANCH  21  22
ENDBRANCH  20  21
ENDBRANCH   6  20
BRANCH   2  33
HETATM   33  C   UNL     1     -41.084  54.874 -54.697  1.00  0.00     0.255 C 
HETATM   34  N   UNL     1     -41.599  53.730 -54.123  1.00  0.00    -0.323 N 
HETATM   35  H   UNL     1     -42.605  53.665 -54.033  1.00  0.00     0.169 HD
HETATM   36  O   UNL     1     -39.918  55.083 -55.004  1.00  0.00    -0.268 OA
BRANCH  34  37
HETATM   37  C   UNL     1     -40.874  52.607 -53.683  1.00  0.00     0.035 A 
HETATM   38  C   UNL     1     -40.611  51.505 -54.497  1.00  0.00     0.029 A 
HETATM   39  C   UNL     1     -39.837  50.447 -54.017  1.00  0.00     0.002 A 
HETATM   40  C   UNL     1     -39.346  50.470 -52.712  1.00  0.00     0.000 A 
HETATM   41  C   UNL     1     -39.617  51.561 -51.890  1.00  0.00     0.002 A 
HETATM   42  C   UNL     1     -40.361  52.636 -52.381  1.00  0.00     0.029 A 
ENDBRANCH  34  37
ENDBRANCH   2  33
TORSDOF 9
ENDMDL
MODEL 5
REMARK VINA RESULT:      -8.2      4.528      9.278
REMARK  9 active torsions:
REMARK  status: ('A' for Active; 'I' for Inactive)
REMARK    1  A    between atoms: C_2  and  O_3 
REMARK    2  A    between atoms: O_3  and  C_4 
REMARK    3  A    between atoms: C_5  and  C_6 
REMARK    4  A    between atoms: C_7  and  C_8 
REMARK       I    between atoms: C_8  and  N_9 
REMARK    5  A    between atoms: N_9  and  C_10 
REMARK    6  A    between atoms: C_20  and  S_21 
REMARK    7  A    between atoms: S_21  and  C_22 
REMARK    8  A    between atoms: C_22  and  C_23 
REMARK       I    between atoms: C_23  and  N_24 
REMARK    9  A    between atoms: N_24  and  C_25 
ROOT
HETATM    1  C   UNL     1     -45.129  58.033 -57.779  1.00  0.00     0.107 A 
HETATM    2  C   UNL     1     -44.764  58.455 -56.356  1.00  0.00     0.046 A 
HETATM    3  C   UNL     1     -45.450  59.436 -55.726  1.00  0.00     0.019 A 
HETATM    4  C   UNL     1     -45.300  59.817 -54.275  1.00  0.00     0.069 C 
HETATM    5  N   UNL     1     -46.422  60.142 -56.414  1.00  0.00    -0.353 N 
HETATM    6  C   UNL     1     -46.804  59.924 -57.727  1.00  0.00     0.087 A 
HETATM    7  C   UNL     1     -46.241  58.883 -58.398  1.00  0.00     0.055 A 
HETATM    8  C   UNL     1     -46.724  58.489 -59.785  1.00  0.00     0.019 C 
HETATM    9  N   UNL     1     -47.124  58.163 -60.936  1.00  0.00    -0.096 N 
HETATM   10  H   UNL     1     -46.715  61.014 -55.975  1.00  0.00     0.166 HD
ENDROOT
BRANCH   1  11
HETATM   11  C   UNL     1     -43.900  57.908 -58.694  1.00  0.00    -0.011 A 
HETATM   12  C   UNL     1     -43.421  56.676 -59.180  1.00  0.00     0.076 A 
HETATM   13  C   UNL     1     -42.312  56.651 -60.034  1.00  0.00     0.037 A 
HETATM   14  C   UNL     1     -41.666  57.834 -60.397  1.00  0.00     0.003 A 
HETATM   15  C   UNL     1     -42.125  59.053 -59.920  1.00  0.00     0.001 A 
HETATM   16  C   UNL     1     -43.234  59.091 -59.078  1.00  0.00     0.011 A 
BRANCH  12  17
HETATM   17  O   UNL     1     -44.115  55.561 -58.801  1.00  0.00    -0.351 OA
BRANCH  17  18
HETATM   18  C   UNL     1     -44.378  54.558 -59.781  1.00  0.00     0.171 C 
HETATM   19  C   UNL     1     -45.382  55.035 -60.818  1.00  0.00     0.034 C 
ENDBRANCH  17  18
ENDBRANCH  12  17
ENDBRANCH   1  11
BRANCH   6  20
HETATM   20  S   UNL     1     -48.009  60.919 -58.556  1.00  0.00    -0.102 SA
BRANCH  20  21
HETATM   21  C   UNL     1     -49.594  60.497 -57.795  1.00  0.00     0.184 C 
BRANCH  21  22
HETATM   22  C   UNL     1     -49.976  61.480 -56.703  1.00  0.00     0.231 C 
HETATM   23  N   UNL     1     -50.847  60.957 -55.765  1.00  0.00    -0.327 N 
HETATM   24  H   UNL     1     -51.149  60.001 -55.914  1.00  0.00     0.169 HD
HETATM   25  O   UNL     1     -49.523  62.625 -56.739  1.00  0.00    -0.272 OA
BRANCH  23  26
HETATM   26  C   UNL     1     -51.488  61.645 -54.712  1.00  0.00     0.034 A 
HETATM   27  C   UNL     1     -52.785  62.153 -54.787  1.00  0.00     0.030 A 
HETATM   28  C   UNL     1     -53.390  62.728 -53.662  1.00  0.00     0.009 A 
HETATM   29  C   UNL     1     -52.704  62.812 -52.447  1.00  0.00    -0.062 A 
HETATM   30  C   UNL     1     -53.358  63.391 -51.228  1.00  0.00     0.048 C 
HETATM   31  C   UNL     1     -51.389  62.340 -52.383  1.00  0.00     0.009 A 
HETATM   32  C   UNL     1     -50.786  61.765 -53.506  1.00  0.00     0.030 A 
ENDBRANCH  23  26
ENDBRANCH  21  22
ENDBRANCH  20  21
ENDBRANCH   6  20
BRANCH   2  33
HETATM   33  C   UNL     1     -43.663  57.670 -55.721  1.00  0.00     0.255 C 
HETATM   34  N   UNL     1     -44.012  56.364 -55.446  1.00  0.00    -0.323 N 
HETATM   35  H   UNL     1     -44.896  56.031 -55.809  1.00  0.00     0.169 HD
HETATM   36  O   UNL     1     -42.593  58.213 -55.481  1.00  0.00    -0.268 OA
BRANCH  34  37
HETATM   37  C   UNL     1     -43.245  55.416 -54.746  1.00  0.00     0.035 A 
HETATM   38  C   UNL     1     -43.370  55.199 -53.373  1.00  0.00     0.029 A 
HETATM   39  C   UNL     1     -42.617  54.203 -52.748  1.00  0.00     0.002 A 
HETATM   40  C   UNL     1     -41.713  53.438 -53.484  1.00  0.00     0.000 A 
HETATM   41  C   UNL     1     -41.573  53.659 -54.852  1.00  0.00     0.002 A 
HETATM   42  C   UNL     1     -42.351  54.631 -55.484  1.00  0.00     0.029 A 
ENDBRANCH  34  37
ENDBRANCH   2  33
TORSDOF 9
ENDMDL
MODEL 6
REMARK VINA RESULT:      -8.2      2.976      4.557
REMARK  9 active torsions:
REMARK  status: ('A' for Active; 'I' for Inactive)
REMARK    1  A    between atoms: C_2  and  O_3 
REMARK    2  A    between atoms: O_3  and  C_4 
REMARK    3  A    between atoms: C_5  and  C_6 
REMARK    4  A    between atoms: C_7  and  C_8 
REMARK       I    between atoms: C_8  and  N_9 
REMARK    5  A    between atoms: N_9  and  C_10 
REMARK    6  A    between atoms: C_20  and  S_21 
REMARK    7  A    between atoms: S_21  and  C_22 
REMARK    8  A    between atoms: C_22  and  C_23 
REMARK       I    between atoms: C_23  and  N_24 
REMARK    9  A    between atoms: N_24  and  C_25 
ROOT
HETATM    1  C   UNL     1     -44.985  58.365 -53.908  1.00  0.00     0.107 A 
HETATM    2  C   UNL     1     -44.395  57.478 -55.004  1.00  0.00     0.046 A 
HETATM    3  C   UNL     1     -43.799  56.302 -54.698  1.00  0.00     0.019 A 
HETATM    4  C   UNL     1     -43.339  55.269 -55.695  1.00  0.00     0.069 C 
HETATM    5  N   UNL     1     -43.622  55.948 -53.372  1.00  0.00    -0.353 N 
HETATM    6  C   UNL     1     -44.033  56.687 -52.275  1.00  0.00     0.087 A 
HETATM    7  C   UNL     1     -44.739  57.829 -52.494  1.00  0.00     0.055 A 
HETATM    8  C   UNL     1     -45.355  58.606 -51.341  1.00  0.00     0.019 C 
HETATM    9  N   UNL     1     -45.865  59.251 -50.386  1.00  0.00    -0.096 N 
HETATM   10  H   UNL     1     -42.956  55.194 -53.211  1.00  0.00     0.166 HD
ENDROOT
BRANCH   1  11
HETATM   11  C   UNL     1     -44.584  59.841 -54.059  1.00  0.00    -0.011 A 
HETATM   12  C   UNL     1     -43.313  60.336 -53.711  1.00  0.00     0.076 A 
HETATM   13  C   UNL     1     -43.018  61.691 -53.907  1.00  0.00     0.037 A 
HETATM   14  C   UNL     1     -43.977  62.560 -54.431  1.00  0.00     0.003 A 
HETATM   15  C   UNL     1     -45.234  62.085 -54.773  1.00  0.00     0.001 A 
HETATM   16  C   UNL     1     -45.536  60.737 -54.590  1.00  0.00     0.011 A 
BRANCH  12  17
HETATM   17  O   UNL     1     -42.418  59.425 -53.223  1.00  0.00    -0.351 OA
BRANCH  17  18
HETATM   18  C   UNL     1     -41.282  59.094 -54.021  1.00  0.00     0.171 C 
HETATM   19  C   UNL     1     -40.582  57.844 -53.513  1.00  0.00     0.034 C 
ENDBRANCH  17  18
ENDBRANCH  12  17
ENDBRANCH   1  11
BRANCH   6  20
HETATM   20  S   UNL     1     -43.707  56.196 -50.607  1.00  0.00    -0.102 SA
BRANCH  20  21
HETATM   21  C   UNL     1     -41.911  56.281 -50.418  1.00  0.00     0.184 C 
BRANCH  21  22
HETATM   22  C   UNL     1     -41.254  54.930 -50.638  1.00  0.00     0.231 C 
HETATM   23  N   UNL     1     -40.970  54.659 -51.963  1.00  0.00    -0.327 N 
HETATM   24  H   UNL     1     -41.246  55.365 -52.637  1.00  0.00     0.169 HD
HETATM   25  O   UNL     1     -41.048  54.198 -49.669  1.00  0.00    -0.272 OA
BRANCH  23  26
HETATM   26  C   UNL     1     -40.486  53.449 -52.507  1.00  0.00     0.034 A 
HETATM   27  C   UNL     1     -39.832  52.466 -51.765  1.00  0.00     0.030 A 
HETATM   28  C   UNL     1     -39.478  51.246 -52.355  1.00  0.00     0.009 A 
HETATM   29  C   UNL     1     -39.765  50.994 -53.699  1.00  0.00    -0.062 A 
HETATM   30  C   UNL     1     -39.425  49.676 -54.330  1.00  0.00     0.048 C 
HETATM   31  C   UNL     1     -40.384  51.996 -54.454  1.00  0.00     0.009 A 
HETATM   32  C   UNL     1     -40.739  53.213 -53.863  1.00  0.00     0.030 A 
ENDBRANCH  23  26
ENDBRANCH  21  22
ENDBRANCH  20  21
ENDBRANCH   6  20
BRANCH   2  33
HETATM   33  C   UNL     1     -44.587  57.976 -56.398  1.00  0.00     0.255 C 
HETATM   34  N   UNL     1     -45.881  57.835 -56.855  1.00  0.00    -0.323 N 
HETATM   35  H   UNL     1     -46.583  57.548 -56.185  1.00  0.00     0.169 HD
HETATM   36  O   UNL     1     -43.633  58.430 -57.016  1.00  0.00    -0.268 OA
BRANCH  34  37
HETATM   37  C   UNL     1     -46.349  58.094 -58.156  1.00  0.00     0.035 A 
HETATM   38  C   UNL     1     -46.275  57.161 -59.191  1.00  0.00     0.029 A 
HETATM   39  C   UNL     1     -46.809  57.461 -60.446  1.00  0.00     0.002 A 
HETATM   40  C   UNL     1     -47.391  58.706 -60.683  1.00  0.00     0.000 A 
HETATM   41  C   UNL     1     -47.455  59.646 -59.658  1.00  0.00     0.002 A 
HETATM   42  C   UNL     1     -46.954  59.334 -58.393  1.00  0.00     0.029 A 
ENDBRANCH  34  37
ENDBRANCH   2  33
TORSDOF 9
ENDMDL
MODEL 7
REMARK VINA RESULT:      -8.1      1.732      3.696
REMARK  9 active torsions:
REMARK  status: ('A' for Active; 'I' for Inactive)
REMARK    1  A    between atoms: C_2  and  O_3 
REMARK    2  A    between atoms: O_3  and  C_4 
REMARK    3  A    between atoms: C_5  and  C_6 
REMARK    4  A    between atoms: C_7  and  C_8 
REMARK       I    between atoms: C_8  and  N_9 
REMARK    5  A    between atoms: N_9  and  C_10 
REMARK    6  A    between atoms: C_20  and  S_21 
REMARK    7  A    between atoms: S_21  and  C_22 
REMARK    8  A    between atoms: C_22  and  C_23 
REMARK       I    between atoms: C_23  and  N_24 
REMARK    9  A    between atoms: N_24  and  C_25 
ROOT
HETATM    1  C   UNL     1     -44.852  58.699 -54.686  1.00  0.00     0.107 A 
HETATM    2  C   UNL     1     -44.083  57.707 -55.559  1.00  0.00     0.046 A 
HETATM    3  C   UNL     1     -43.544  56.587 -55.025  1.00  0.00     0.019 A 
HETATM    4  C   UNL     1     -42.920  55.458 -55.806  1.00  0.00     0.069 C 
HETATM    5  N   UNL     1     -43.593  56.388 -53.656  1.00  0.00    -0.353 N 
HETATM    6  C   UNL     1     -44.186  57.236 -52.736  1.00  0.00     0.087 A 
HETATM    7  C   UNL     1     -44.848  58.330 -53.200  1.00  0.00     0.055 A 
HETATM    8  C   UNL     1     -45.652  59.218 -52.263  1.00  0.00     0.019 C 
HETATM    9  N   UNL     1     -46.318  59.955 -51.487  1.00  0.00    -0.096 N 
HETATM   10  H   UNL     1     -42.962  55.672 -53.301  1.00  0.00     0.166 HD
ENDROOT
BRANCH   1  11
HETATM   11  C   UNL     1     -44.435  60.156 -54.936  1.00  0.00    -0.011 A 
HETATM   12  C   UNL     1     -43.108  60.611 -54.821  1.00  0.00     0.076 A 
HETATM   13  C   UNL     1     -42.807  61.951 -55.095  1.00  0.00     0.037 A 
HETATM   14  C   UNL     1     -43.812  62.846 -55.466  1.00  0.00     0.003 A 
HETATM   15  C   UNL     1     -45.124  62.411 -55.577  1.00  0.00     0.001 A 
HETATM   16  C   UNL     1     -45.434  61.078 -55.316  1.00  0.00     0.011 A 
BRANCH  12  17
HETATM   17  O   UNL     1     -42.172  59.676 -54.474  1.00  0.00    -0.351 OA
BRANCH  17  18
HETATM   18  C   UNL     1     -41.556  59.775 -53.191  1.00  0.00     0.171 C 
HETATM   19  C   UNL     1     -40.598  58.622 -52.937  1.00  0.00     0.034 C 
ENDBRANCH  17  18
ENDBRANCH  12  17
ENDBRANCH   1  11
BRANCH   6  20
HETATM   20  S   UNL     1     -44.145  56.943 -50.992  1.00  0.00    -0.102 SA
BRANCH  20  21
HETATM   21  C   UNL     1     -42.535  56.191 -50.663  1.00  0.00     0.184 C 
BRANCH  21  22
HETATM   22  C   UNL     1     -42.442  54.783 -51.223  1.00  0.00     0.231 C 
HETATM   23  N   UNL     1     -41.185  54.454 -51.695  1.00  0.00    -0.327 N 
HETATM   24  H   UNL     1     -40.479  55.181 -51.640  1.00  0.00     0.169 HD
HETATM   25  O   UNL     1     -43.449  54.074 -51.235  1.00  0.00    -0.272 OA
BRANCH  23  26
HETATM   26  C   UNL     1     -40.807  53.284 -52.388  1.00  0.00     0.034 A 
HETATM   27  C   UNL     1     -41.141  53.022 -53.717  1.00  0.00     0.030 A 
HETATM   28  C   UNL     1     -40.637  51.888 -54.367  1.00  0.00     0.009 A 
HETATM   29  C   UNL     1     -39.799  50.994 -53.695  1.00  0.00    -0.062 A 
HETATM   30  C   UNL     1     -39.224  49.798 -54.394  1.00  0.00     0.048 C 
HETATM   31  C   UNL     1     -39.499  51.234 -52.350  1.00  0.00     0.009 A 
HETATM   32  C   UNL     1     -40.001  52.368 -51.703  1.00  0.00     0.030 A 
ENDBRANCH  23  26
ENDBRANCH  21  22
ENDBRANCH  20  21
ENDBRANCH   6  20
BRANCH   2  33
HETATM   33  C   UNL     1     -44.037  58.041 -57.013  1.00  0.00     0.255 C 
HETATM   34  N   UNL     1     -42.820  58.550 -57.419  1.00  0.00    -0.323 N 
HETATM   35  H   UNL     1     -42.058  58.523 -56.754  1.00  0.00     0.169 HD
HETATM   36  O   UNL     1     -45.031  57.870 -57.706  1.00  0.00    -0.268 OA
BRANCH  34  37
HETATM   37  C   UNL     1     -42.504  59.068 -58.688  1.00  0.00     0.035 A 
HETATM   38  C   UNL     1     -42.113  58.266 -59.761  1.00  0.00     0.029 A 
HETATM   39  C   UNL     1     -41.867  58.838 -61.011  1.00  0.00     0.002 A 
HETATM   40  C   UNL     1     -41.980  60.217 -61.189  1.00  0.00     0.000 A 
HETATM   41  C   UNL     1     -42.357  61.023 -60.117  1.00  0.00     0.002 A 
HETATM   42  C   UNL     1     -42.638  60.448 -58.877  1.00  0.00     0.029 A 
ENDBRANCH  34  37
ENDBRANCH   2  33
TORSDOF 9
ENDMDL
MODEL 8
REMARK VINA RESULT:      -8.1      2.438      9.485
REMARK  9 active torsions:
REMARK  status: ('A' for Active; 'I' for Inactive)
REMARK    1  A    between atoms: C_2  and  O_3 
REMARK    2  A    between atoms: O_3  and  C_4 
REMARK    3  A    between atoms: C_5  and  C_6 
REMARK    4  A    between atoms: C_7  and  C_8 
REMARK       I    between atoms: C_8  and  N_9 
REMARK    5  A    between atoms: N_9  and  C_10 
REMARK    6  A    between atoms: C_20  and  S_21 
REMARK    7  A    between atoms: S_21  and  C_22 
REMARK    8  A    between atoms: C_22  and  C_23 
REMARK       I    between atoms: C_23  and  N_24 
REMARK    9  A    between atoms: N_24  and  C_25 
ROOT
HETATM    1  C   UNL     1     -41.068  56.212 -53.369  1.00  0.00     0.107 A 
HETATM    2  C   UNL     1     -41.751  55.445 -54.501  1.00  0.00     0.046 A 
HETATM    3  C   UNL     1     -42.283  56.099 -55.558  1.00  0.00     0.019 A 
HETATM    4  C   UNL     1     -42.822  55.450 -56.808  1.00  0.00     0.069 C 
HETATM    5  N   UNL     1     -42.310  57.483 -55.566  1.00  0.00    -0.353 N 
HETATM    6  C   UNL     1     -41.802  58.308 -54.576  1.00  0.00     0.087 A 
HETATM    7  C   UNL     1     -41.150  57.733 -53.530  1.00  0.00     0.055 A 
HETATM    8  C   UNL     1     -40.433  58.580 -52.489  1.00  0.00     0.019 C 
HETATM    9  N   UNL     1     -39.840  59.281 -51.626  1.00  0.00    -0.096 N 
HETATM   10  H   UNL     1     -42.937  57.900 -56.252  1.00  0.00     0.166 HD
ENDROOT
BRANCH   1  11
HETATM   11  C   UNL     1     -41.517  55.739 -51.977  1.00  0.00    -0.011 A 
HETATM   12  C   UNL     1     -42.842  55.850 -51.514  1.00  0.00     0.076 A 
HETATM   13  C   UNL     1     -43.175  55.367 -50.241  1.00  0.00     0.037 A 
HETATM   14  C   UNL     1     -42.203  54.791 -49.422  1.00  0.00     0.003 A 
HETATM   15  C   UNL     1     -40.894  54.681 -49.865  1.00  0.00     0.001 A 
HETATM   16  C   UNL     1     -40.553  55.149 -51.132  1.00  0.00     0.011 A 
BRANCH  12  17
HETATM   17  O   UNL     1     -43.744  56.406 -52.377  1.00  0.00    -0.351 OA
BRANCH  17  18
HETATM   18  C   UNL     1     -44.686  57.347 -51.864  1.00  0.00     0.171 C 
HETATM   19  C   UNL     1     -44.029  58.679 -51.539  1.00  0.00     0.034 C 
ENDBRANCH  17  18
ENDBRANCH  12  17
ENDBRANCH   1  11
BRANCH   6  20
HETATM   20  S   UNL     1     -41.938  60.070 -54.629  1.00  0.00    -0.102 SA
BRANCH  20  21
HETATM   21  C   UNL     1     -42.853  60.442 -56.142  1.00  0.00     0.184 C 
BRANCH  21  22
HETATM   22  C   UNL     1     -41.942  60.500 -57.355  1.00  0.00     0.231 C 
HETATM   23  N   UNL     1     -41.618  61.785 -57.747  1.00  0.00    -0.327 N 
HETATM   24  H   UNL     1     -42.033  62.538 -57.208  1.00  0.00     0.169 HD
HETATM   25  O   UNL     1     -41.589  59.449 -57.892  1.00  0.00    -0.272 OA
BRANCH  23  26
HETATM   26  C   UNL     1     -40.907  62.177 -58.901  1.00  0.00     0.034 A 
HETATM   27  C   UNL     1     -41.317  61.895 -60.204  1.00  0.00     0.030 A 
HETATM   28  C   UNL     1     -40.613  62.412 -61.300  1.00  0.00     0.009 A 
HETATM   29  C   UNL     1     -39.483  63.212 -61.109  1.00  0.00    -0.062 A 
HETATM   30  C   UNL     1     -38.746  63.802 -62.275  1.00  0.00     0.048 C 
HETATM   31  C   UNL     1     -39.048  63.460 -59.804  1.00  0.00     0.009 A 
HETATM   32  C   UNL     1     -39.752  62.945 -58.710  1.00  0.00     0.030 A 
ENDBRANCH  23  26
ENDBRANCH  21  22
ENDBRANCH  20  21
ENDBRANCH   6  20
BRANCH   2  33
HETATM   33  C   UNL     1     -41.720  53.958 -54.372  1.00  0.00     0.255 C 
HETATM   34  N   UNL     1     -40.589  53.488 -53.735  1.00  0.00    -0.323 N 
HETATM   35  H   UNL     1     -39.976  54.171 -53.309  1.00  0.00     0.169 HD
HETATM   36  O   UNL     1     -42.637  53.291 -54.831  1.00  0.00    -0.268 OA
BRANCH  34  37
HETATM   37  C   UNL     1     -40.212  52.143 -53.571  1.00  0.00     0.035 A 
HETATM   38  C   UNL     1     -40.140  51.238 -54.631  1.00  0.00     0.029 A 
HETATM   39  C   UNL     1     -39.704  49.930 -54.409  1.00  0.00     0.002 A 
HETATM   40  C   UNL     1     -39.366  49.510 -53.123  1.00  0.00     0.000 A 
HETATM   41  C   UNL     1     -39.448  50.405 -52.059  1.00  0.00     0.002 A 
HETATM   42  C   UNL     1     -39.850  51.723 -52.286  1.00  0.00     0.029 A 
ENDBRANCH  34  37
ENDBRANCH   2  33
TORSDOF 9
ENDMDL
MODEL 9
REMARK VINA RESULT:      -8.0      2.074      9.099
REMARK  9 active torsions:
REMARK  status: ('A' for Active; 'I' for Inactive)
REMARK    1  A    between atoms: C_2  and  O_3 
REMARK    2  A    between atoms: O_3  and  C_4 
REMARK    3  A    between atoms: C_5  and  C_6 
REMARK    4  A    between atoms: C_7  and  C_8 
REMARK       I    between atoms: C_8  and  N_9 
REMARK    5  A    between atoms: N_9  and  C_10 
REMARK    6  A    between atoms: C_20  and  S_21 
REMARK    7  A    between atoms: S_21  and  C_22 
REMARK    8  A    between atoms: C_22  and  C_23 
REMARK       I    between atoms: C_23  and  N_24 
REMARK    9  A    between atoms: N_24  and  C_25 
ROOT
HETATM    1  C   UNL     1     -41.795  57.628 -54.795  1.00  0.00     0.107 A 
HETATM    2  C   UNL     1     -42.056  56.144 -55.052  1.00  0.00     0.046 A 
HETATM    3  C   UNL     1     -43.112  55.746 -55.798  1.00  0.00     0.019 A 
HETATM    4  C   UNL     1     -43.373  54.335 -56.262  1.00  0.00     0.069 C 
HETATM    5  N   UNL     1     -44.029  56.681 -56.244  1.00  0.00    -0.353 N 
HETATM    6  C   UNL     1     -43.964  58.047 -56.023  1.00  0.00     0.087 A 
HETATM    7  C   UNL     1     -42.876  58.545 -55.376  1.00  0.00     0.055 A 
HETATM    8  C   UNL     1     -42.662  60.044 -55.235  1.00  0.00     0.019 C 
HETATM    9  N   UNL     1     -42.485  61.286 -55.118  1.00  0.00    -0.096 N 
HETATM   10  H   UNL     1     -44.913  56.298 -56.574  1.00  0.00     0.166 HD
ENDROOT
BRANCH   1  11
HETATM   11  C   UNL     1     -41.492  57.931 -53.319  1.00  0.00    -0.011 A 
HETATM   12  C   UNL     1     -42.396  57.660 -52.274  1.00  0.00     0.076 A 
HETATM   13  C   UNL     1     -42.031  57.939 -50.951  1.00  0.00     0.037 A 
HETATM   14  C   UNL     1     -40.786  58.498 -50.658  1.00  0.00     0.003 A 
HETATM   15  C   UNL     1     -39.890  58.774 -51.680  1.00  0.00     0.001 A 
HETATM   16  C   UNL     1     -40.238  58.492 -52.999  1.00  0.00     0.011 A 
BRANCH  12  17
HETATM   17  O   UNL     1     -43.588  57.093 -52.631  1.00  0.00    -0.351 OA
BRANCH  17  18
HETATM   18  C   UNL     1     -44.787  57.618 -52.063  1.00  0.00     0.171 C 
HETATM   19  C   UNL     1     -45.050  59.043 -52.523  1.00  0.00     0.034 C 
ENDBRANCH  17  18
ENDBRANCH  12  17
ENDBRANCH   1  11
BRANCH   6  20
HETATM   20  S   UNL     1     -45.216  59.171 -56.570  1.00  0.00    -0.102 SA
BRANCH  20  21
HETATM   21  C   UNL     1     -45.157  59.122 -58.376  1.00  0.00     0.184 C 
BRANCH  21  22
HETATM   22  C   UNL     1     -43.770  59.436 -58.906  1.00  0.00     0.231 C 
HETATM   23  N   UNL     1     -43.421  60.770 -58.795  1.00  0.00    -0.327 N 
HETATM   24  H   UNL     1     -44.123  61.388 -58.402  1.00  0.00     0.169 HD
HETATM   25  O   UNL     1     -43.092  58.530 -59.392  1.00  0.00    -0.272 OA
BRANCH  23  26
HETATM   26  C   UNL     1     -42.268  61.401 -59.309  1.00  0.00     0.034 A 
HETATM   27  C   UNL     1     -42.090  61.728 -60.653  1.00  0.00     0.030 A 
HETATM   28  C   UNL     1     -40.964  62.451 -61.067  1.00  0.00     0.009 A 
HETATM   29  C   UNL     1     -39.993  62.850 -60.144  1.00  0.00    -0.062 A 
HETATM   30  C   UNL     1     -38.804  63.658 -60.571  1.00  0.00     0.048 C 
HETATM   31  C   UNL     1     -40.151  62.486 -58.803  1.00  0.00     0.009 A 
HETATM   32  C   UNL     1     -41.276  61.766 -58.390  1.00  0.00     0.030 A 
ENDBRANCH  23  26
ENDBRANCH  21  22
ENDBRANCH  20  21
ENDBRANCH   6  20
BRANCH   2  33
HETATM   33  C   UNL     1     -41.042  55.210 -54.480  1.00  0.00     0.255 C 
HETATM   34  N   UNL     1     -41.584  54.269 -53.628  1.00  0.00    -0.323 N 
HETATM   35  H   UNL     1     -42.593  54.212 -53.578  1.00  0.00     0.169 HD
HETATM   36  O   UNL     1     -39.861  55.346 -54.771  1.00  0.00    -0.268 OA
BRANCH  34  37
HETATM   37  C   UNL     1     -40.881  53.336 -52.845  1.00  0.00     0.035 A 
HETATM   38  C   UNL     1     -40.833  53.396 -51.451  1.00  0.00     0.029 A 
HETATM   39  C   UNL     1     -40.163  52.405 -50.730  1.00  0.00     0.002 A 
HETATM   40  C   UNL     1     -39.511  51.368 -51.396  1.00  0.00     0.000 A 
HETATM   41  C   UNL     1     -39.545  51.312 -52.787  1.00  0.00     0.002 A 
HETATM   42  C   UNL     1     -40.244  52.281 -53.508  1.00  0.00     0.029 A 
ENDBRANCH  34  37
ENDBRANCH   2  33
TORSDOF 9
ENDMDL
MODEL 10
REMARK VINA RESULT:      -7.8      2.407      4.118
REMARK  9 active torsions:
REMARK  status: ('A' for Active; 'I' for Inactive)
REMARK    1  A    between atoms: C_2  and  O_3 
REMARK    2  A    between atoms: O_3  and  C_4 
REMARK    3  A    between atoms: C_5  and  C_6 
REMARK    4  A    between atoms: C_7  and  C_8 
REMARK       I    between atoms: C_8  and  N_9 
REMARK    5  A    between atoms: N_9  and  C_10 
REMARK    6  A    between atoms: C_20  and  S_21 
REMARK    7  A    between atoms: S_21  and  C_22 
REMARK    8  A    between atoms: C_22  and  C_23 
REMARK       I    between atoms: C_23  and  N_24 
REMARK    9  A    between atoms: N_24  and  C_25 
ROOT
HETATM    1  C   UNL     1     -42.371  59.600 -53.466  1.00  0.00     0.107 A 
HETATM    2  C   UNL     1     -42.981  60.674 -52.567  1.00  0.00     0.046 A 
HETATM    3  C   UNL     1     -42.919  60.567 -51.219  1.00  0.00     0.019 A 
HETATM    4  C   UNL     1     -43.326  61.636 -50.236  1.00  0.00     0.069 C 
HETATM    5  N   UNL     1     -42.395  59.422 -50.646  1.00  0.00    -0.353 N 
HETATM    6  C   UNL     1     -41.878  58.336 -51.333  1.00  0.00     0.087 A 
HETATM    7  C   UNL     1     -41.801  58.409 -52.690  1.00  0.00     0.055 A 
HETATM    8  C   UNL     1     -41.106  57.324 -53.497  1.00  0.00     0.019 C 
HETATM    9  N   UNL     1     -40.529  56.425 -54.167  1.00  0.00    -0.096 N 
HETATM   10  H   UNL     1     -42.606  59.297 -49.657  1.00  0.00     0.166 HD
ENDROOT
BRANCH   1  11
HETATM   11  C   UNL     1     -43.314  59.171 -54.601  1.00  0.00    -0.011 A 
HETATM   12  C   UNL     1     -43.074  59.462 -55.957  1.00  0.00     0.076 A 
HETATM   13  C   UNL     1     -43.969  59.008 -56.934  1.00  0.00     0.037 A 
HETATM   14  C   UNL     1     -45.106  58.282 -56.576  1.00  0.00     0.003 A 
HETATM   15  C   UNL     1     -45.356  57.994 -55.243  1.00  0.00     0.001 A 
HETATM   16  C   UNL     1     -44.467  58.432 -54.263  1.00  0.00     0.011 A 
BRANCH  12  17
HETATM   17  O   UNL     1     -41.931  60.159 -56.237  1.00  0.00    -0.351 OA
BRANCH  17  18
HETATM   18  C   UNL     1     -42.031  61.336 -57.036  1.00  0.00     0.171 C 
HETATM   19  C   UNL     1     -41.198  61.227 -58.304  1.00  0.00     0.034 C 
ENDBRANCH  17  18
ENDBRANCH  12  17
ENDBRANCH   1  11
BRANCH   6  20
HETATM   20  S   UNL     1     -41.289  56.877 -50.526  1.00  0.00    -0.102 SA
BRANCH  20  21
HETATM   21  C   UNL     1     -42.723  55.785 -50.389  1.00  0.00     0.184 C 
BRANCH  21  22
HETATM   22  C   UNL     1     -42.489  54.455 -51.082  1.00  0.00     0.231 C 
HETATM   23  N   UNL     1     -41.161  54.205 -51.373  1.00  0.00    -0.327 N 
HETATM   24  H   UNL     1     -40.500  54.932 -51.120  1.00  0.00     0.169 HD
HETATM   25  O   UNL     1     -43.454  53.735 -51.342  1.00  0.00    -0.272 OA
BRANCH  23  26
HETATM   26  C   UNL     1     -40.633  53.132 -52.123  1.00  0.00     0.034 A 
HETATM   27  C   UNL     1     -39.895  52.084 -51.573  1.00  0.00     0.030 A 
HETATM   28  C   UNL     1     -39.498  50.999 -52.366  1.00  0.00     0.009 A 
HETATM   29  C   UNL     1     -39.826  50.950 -53.723  1.00  0.00    -0.062 A 
HETATM   30  C   UNL     1     -39.440  49.775 -54.571  1.00  0.00     0.048 C 
HETATM   31  C   UNL     1     -40.531  52.020 -54.284  1.00  0.00     0.009 A 
HETATM   32  C   UNL     1     -40.928  53.102 -53.491  1.00  0.00     0.030 A 
ENDBRANCH  23  26
ENDBRANCH  21  22
ENDBRANCH  20  21
ENDBRANCH   6  20
BRANCH   2  33
HETATM   33  C   UNL     1     -43.574  61.843 -53.282  1.00  0.00     0.255 C 
HETATM   34  N   UNL     1     -44.952  61.804 -53.344  1.00  0.00    -0.323 N 
HETATM   35  H   UNL     1     -45.423  61.090 -52.804  1.00  0.00     0.169 HD
HETATM   36  O   UNL     1     -42.840  62.699 -53.756  1.00  0.00    -0.268 OA
BRANCH  34  37
HETATM   37  C   UNL     1     -45.790  62.687 -54.050  1.00  0.00     0.035 A 
HETATM   38  C   UNL     1     -46.257  63.886 -53.511  1.00  0.00     0.029 A 
HETATM   39  C   UNL     1     -47.040  64.745 -54.285  1.00  0.00     0.002 A 
HETATM   40  C   UNL     1     -47.386  64.397 -55.590  1.00  0.00     0.000 A 
HETATM   41  C   UNL     1     -46.934  63.195 -56.128  1.00  0.00     0.002 A 
HETATM   42  C   UNL     1     -46.121  62.352 -55.368  1.00  0.00     0.029 A 
ENDBRANCH  34  37
ENDBRANCH   2  33
TORSDOF 9
ENDMDL
