MODEL 1
REMARK VINA RESULT:      -8.2      0.000      0.000
REMARK  7 active torsions:
REMARK  status: ('A' for Active; 'I' for Inactive)
REMARK    1  A    between atoms: C_4  and  C_5 
REMARK    2  A    between atoms: C_5  and  C_6 
REMARK    3  A    between atoms: C_6  and  C_7 
REMARK    4  A    between atoms: C_7  and  N_8 
REMARK    5  A    between atoms: C_12  and  O_13 
REMARK    6  A    between atoms: C_12  and  C_14 
REMARK    7  A    between atoms: C_19  and  C_20 
REMARK       I    between atoms: C_20  and  N_21 
ROOT
HETATM    1  C   UNL     1     -43.234  54.898 -53.035  1.00  0.00    -0.023 A 
HETATM    2  C   UNL     1     -43.665  56.058 -53.721  1.00  0.00     0.024 A 
HETATM    3  C   UNL     1     -43.362  56.231 -55.086  1.00  0.00     0.001 A 
HETATM    4  C   UNL     1     -42.694  55.215 -55.753  1.00  0.00     0.086 A 
HETATM    5  O   UNL     1     -42.451  55.573 -57.044  1.00  0.00    -0.304 OA
HETATM    6  C   UNL     1     -42.957  56.836 -57.218  1.00  0.00     0.144 A 
HETATM    7  C   UNL     1     -43.574  57.246 -56.049  1.00  0.00     0.057 A 
HETATM    8  C   UNL     1     -42.341  54.011 -55.160  1.00  0.00     0.039 A 
HETATM    9  C   UNL     1     -42.635  53.870 -53.793  1.00  0.00     0.013 A 
ENDROOT
BRANCH   1  10
HETATM   10  C   UNL     1     -43.442  54.762 -51.516  1.00  0.00     0.088 C 
HETATM   11  C   UNL     1     -44.071  55.999 -50.848  1.00  0.00     0.071 C 
HETATM   12  C   UNL     1     -43.164  57.214 -50.936  1.00  0.00     0.238 C 
HETATM   13  N   UNL     1     -41.810  56.940 -50.321  1.00  0.00    -0.071 N 
HETATM   14  H   UNL     1     -41.939  56.874 -49.299  1.00  0.00     0.279 HD
HETATM   15  C   UNL     1     -41.181  55.634 -50.771  1.00  0.00     0.238 C 
HETATM   16  C   UNL     1     -42.166  54.480 -50.703  1.00  0.00     0.071 C 
BRANCH  13  17
HETATM   17  C   UNL     1     -40.812  58.071 -50.569  1.00  0.00     0.235 C 
BRANCH  17  18
HETATM   18  C   UNL     1     -41.435  59.241 -51.329  1.00  0.00     0.038 C 
BRANCH  18  19
HETATM   19  C   UNL     1     -40.919  59.313 -52.782  1.00  0.00     0.040 C 
HETATM   20  C   UNL     1     -40.477  57.930 -53.262  1.00  0.00     0.017 C 
BRANCH  19  21
HETATM   21  C   UNL     1     -41.923  59.891 -53.724  1.00  0.00     0.057 A 
HETATM   22  O   UNL     1     -41.526  60.072 -55.015  1.00  0.00    -0.319 OA
HETATM   23  C   UNL     1     -42.578  60.625 -55.683  1.00  0.00     0.049 A 
HETATM   24  C   UNL     1     -42.365  60.957 -57.107  1.00  0.00     0.076 C 
HETATM   25  C   UNL     1     -43.651  60.776 -54.833  1.00  0.00     0.035 A 
HETATM   26  C   UNL     1     -43.230  60.301 -53.568  1.00  0.00     0.035 A 
ENDBRANCH  19  21
ENDBRANCH  18  19
ENDBRANCH  17  18
ENDBRANCH  13  17
BRANCH  10  27
HETATM   27  O   UNL     1     -44.329  53.669 -51.283  1.00  0.00    -0.385 OA
HETATM   28  H   UNL     1     -45.253  53.980 -51.285  1.00  0.00     0.211 HD
ENDBRANCH  10  27
ENDBRANCH   1  10
BRANCH   6  29
HETATM   29  C   UNL     1     -42.877  57.512 -58.501  1.00  0.00     0.277 C 
HETATM   30  N   UNL     1     -44.004  57.573 -59.347  1.00  0.00    -0.345 N 
HETATM   31  C   UNL     1     -43.889  58.360 -60.579  1.00  0.00     0.154 C 
HETATM   32  C   UNL     1     -45.273  56.888 -59.104  1.00  0.00     0.128 C 
HETATM   33  C   UNL     1     -44.903  59.513 -60.673  1.00  0.00     0.254 C 
HETATM   34  N   UNL     1     -46.314  58.975 -60.888  1.00  0.00    -0.073 N 
HETATM   35  H   UNL     1     -46.230  58.108 -61.436  1.00  0.00     0.279 HD
HETATM   36  C   UNL     1     -47.121  59.904 -61.769  1.00  0.00     0.269 C 
HETATM   37  C   UNL     1     -47.081  58.646 -59.630  1.00  0.00     0.236 C 
HETATM   38  C   UNL     1     -46.308  57.867 -58.571  1.00  0.00     0.048 C 
HETATM   39  O   UNL     1     -41.815  58.016 -58.870  1.00  0.00    -0.265 OA
ENDBRANCH   6  29
TORSDOF 7
ENDMDL
MODEL 2
REMARK VINA RESULT:      -8.0      2.223      4.570
REMARK  7 active torsions:
REMARK  status: ('A' for Active; 'I' for Inactive)
REMARK    1  A    between atoms: C_4  and  C_5 
REMARK    2  A    between atoms: C_5  and  C_6 
REMARK    3  A    between atoms: C_6  and  C_7 
REMARK    4  A    between atoms: C_7  and  N_8 
REMARK    5  A    between atoms: C_12  and  O_13 
REMARK    6  A    between atoms: C_12  and  C_14 
REMARK    7  A    between atoms: C_19  and  C_20 
REMARK       I    between atoms: C_20  and  N_21 
ROOT
HETATM    1  C   UNL     1     -43.485  56.124 -52.541  1.00  0.00    -0.023 A 
HETATM    2  C   UNL     1     -43.458  57.291 -53.340  1.00  0.00     0.024 A 
HETATM    3  C   UNL     1     -43.306  57.193 -54.737  1.00  0.00     0.001 A 
HETATM    4  C   UNL     1     -43.250  55.934 -55.314  1.00  0.00     0.086 A 
HETATM    5  O   UNL     1     -43.059  56.033 -56.658  1.00  0.00    -0.304 OA
HETATM    6  C   UNL     1     -42.982  57.369 -56.960  1.00  0.00     0.144 A 
HETATM    7  C   UNL     1     -43.186  58.110 -55.809  1.00  0.00     0.057 A 
HETATM    8  C   UNL     1     -43.379  54.754 -54.593  1.00  0.00     0.039 A 
HETATM    9  C   UNL     1     -43.509  54.877 -53.200  1.00  0.00     0.013 A 
ENDROOT
BRANCH   1  10
HETATM   10  C   UNL     1     -43.516  56.225 -51.006  1.00  0.00     0.088 C 
HETATM   11  C   UNL     1     -42.253  56.852 -50.385  1.00  0.00     0.071 C 
HETATM   12  C   UNL     1     -41.021  55.996 -50.622  1.00  0.00     0.238 C 
HETATM   13  N   UNL     1     -41.206  54.595 -50.084  1.00  0.00    -0.071 N 
HETATM   14  H   UNL     1     -41.201  54.654 -49.054  1.00  0.00     0.279 HD
HETATM   15  C   UNL     1     -42.522  53.952 -50.483  1.00  0.00     0.238 C 
HETATM   16  C   UNL     1     -43.698  54.888 -50.265  1.00  0.00     0.071 C 
BRANCH  13  17
HETATM   17  C   UNL     1     -40.066  53.658 -50.481  1.00  0.00     0.235 C 
BRANCH  17  18
HETATM   18  C   UNL     1     -40.441  52.185 -50.323  1.00  0.00     0.038 C 
BRANCH  18  19
HETATM   19  C   UNL     1     -39.508  51.271 -51.146  1.00  0.00     0.040 C 
HETATM   20  C   UNL     1     -39.666  49.814 -50.710  1.00  0.00     0.017 C 
BRANCH  19  21
HETATM   21  C   UNL     1     -39.725  51.397 -52.617  1.00  0.00     0.057 A 
HETATM   22  O   UNL     1     -39.831  52.660 -53.120  1.00  0.00    -0.319 OA
HETATM   23  C   UNL     1     -40.048  52.540 -54.460  1.00  0.00     0.049 A 
HETATM   24  C   UNL     1     -40.242  53.792 -55.220  1.00  0.00     0.076 C 
HETATM   25  C   UNL     1     -40.055  51.211 -54.821  1.00  0.00     0.035 A 
HETATM   26  C   UNL     1     -39.846  50.472 -53.633  1.00  0.00     0.035 A 
ENDBRANCH  19  21
ENDBRANCH  18  19
ENDBRANCH  17  18
ENDBRANCH  13  17
BRANCH  10  27
HETATM   27  O   UNL     1     -44.615  57.054 -50.634  1.00  0.00    -0.385 OA
HETATM   28  H   UNL     1     -45.084  56.669 -49.871  1.00  0.00     0.211 HD
ENDBRANCH  10  27
ENDBRANCH   1  10
BRANCH   6  29
HETATM   29  C   UNL     1     -42.795  57.826 -58.326  1.00  0.00     0.277 C 
HETATM   30  N   UNL     1     -43.896  57.920 -59.203  1.00  0.00    -0.345 N 
HETATM   31  C   UNL     1     -43.660  58.487 -60.534  1.00  0.00     0.154 C 
HETATM   32  C   UNL     1     -45.253  57.468 -58.897  1.00  0.00     0.128 C 
HETATM   33  C   UNL     1     -44.494  59.746 -60.827  1.00  0.00     0.254 C 
HETATM   34  N   UNL     1     -45.967  59.389 -60.999  1.00  0.00    -0.073 N 
HETATM   35  H   UNL     1     -46.007  58.447 -61.410  1.00  0.00     0.279 HD
HETATM   36  C   UNL     1     -46.624  60.282 -62.030  1.00  0.00     0.269 C 
HETATM   37  C   UNL     1     -46.782  59.367 -59.729  1.00  0.00     0.236 C 
HETATM   38  C   UNL     1     -46.137  58.654 -58.544  1.00  0.00     0.048 C 
HETATM   39  O   UNL     1     -41.669  58.111 -58.735  1.00  0.00    -0.265 OA
ENDBRANCH   6  29
TORSDOF 7
ENDMDL
MODEL 3
REMARK VINA RESULT:      -7.9      2.381      4.736
REMARK  7 active torsions:
REMARK  status: ('A' for Active; 'I' for Inactive)
REMARK    1  A    between atoms: C_4  and  C_5 
REMARK    2  A    between atoms: C_5  and  C_6 
REMARK    3  A    between atoms: C_6  and  C_7 
REMARK    4  A    between atoms: C_7  and  N_8 
REMARK    5  A    between atoms: C_12  and  O_13 
REMARK    6  A    between atoms: C_12  and  C_14 
REMARK    7  A    between atoms: C_19  and  C_20 
REMARK       I    between atoms: C_20  and  N_21 
ROOT
HETATM    1  C   UNL     1     -42.669  56.709 -52.381  1.00  0.00    -0.023 A 
HETATM    2  C   UNL     1     -43.660  56.645 -53.389  1.00  0.00     0.024 A 
HETATM    3  C   UNL     1     -43.444  57.257 -54.639  1.00  0.00     0.001 A 
HETATM    4  C   UNL     1     -42.220  57.862 -54.881  1.00  0.00     0.086 A 
HETATM    5  O   UNL     1     -42.207  58.434 -56.116  1.00  0.00    -0.304 OA
HETATM    6  C   UNL     1     -43.436  58.206 -56.682  1.00  0.00     0.144 A 
HETATM    7  C   UNL     1     -44.200  57.436 -55.822  1.00  0.00     0.057 A 
HETATM    8  C   UNL     1     -41.172  57.864 -53.971  1.00  0.00     0.039 A 
HETATM    9  C   UNL     1     -41.418  57.266 -52.724  1.00  0.00     0.013 A 
ENDROOT
BRANCH   1  10
HETATM   10  C   UNL     1     -42.948  56.162 -50.971  1.00  0.00     0.088 C 
HETATM   11  C   UNL     1     -41.779  56.331 -49.981  1.00  0.00     0.071 C 
HETATM   12  C   UNL     1     -40.562  55.526 -50.398  1.00  0.00     0.238 C 
HETATM   13  N   UNL     1     -40.892  54.057 -50.544  1.00  0.00    -0.071 N 
HETATM   14  H   UNL     1     -41.054  53.679 -49.597  1.00  0.00     0.279 HD
HETATM   15  C   UNL     1     -42.149  53.786 -51.349  1.00  0.00     0.238 C 
HETATM   16  C   UNL     1     -43.305  54.666 -50.907  1.00  0.00     0.071 C 
BRANCH  13  17
HETATM   17  C   UNL     1     -39.742  53.254 -51.151  1.00  0.00     0.235 C 
BRANCH  17  18
HETATM   18  C   UNL     1     -40.224  51.990 -51.860  1.00  0.00     0.038 C 
BRANCH  18  19
HETATM   19  C   UNL     1     -39.726  51.933 -53.320  1.00  0.00     0.040 C 
HETATM   20  C   UNL     1     -39.906  50.526 -53.892  1.00  0.00     0.017 C 
BRANCH  19  21
HETATM   21  C   UNL     1     -40.394  52.937 -54.199  1.00  0.00     0.057 A 
HETATM   22  O   UNL     1     -41.730  52.777 -54.416  1.00  0.00    -0.319 OA
HETATM   23  C   UNL     1     -42.122  53.778 -55.254  1.00  0.00     0.049 A 
HETATM   24  C   UNL     1     -43.540  53.782 -55.672  1.00  0.00     0.076 C 
HETATM   25  C   UNL     1     -41.052  54.592 -55.552  1.00  0.00     0.035 A 
HETATM   26  C   UNL     1     -39.936  54.051 -54.871  1.00  0.00     0.035 A 
ENDBRANCH  19  21
ENDBRANCH  18  19
ENDBRANCH  17  18
ENDBRANCH  13  17
BRANCH  10  27
HETATM   27  O   UNL     1     -44.058  56.873 -50.427  1.00  0.00    -0.385 OA
HETATM   28  H   UNL     1     -44.863  56.325 -50.470  1.00  0.00     0.211 HD
ENDBRANCH  10  27
ENDBRANCH   1  10
BRANCH   6  29
HETATM   29  C   UNL     1     -43.751  58.676 -58.021  1.00  0.00     0.277 C 
HETATM   30  N   UNL     1     -43.479  60.009 -58.390  1.00  0.00    -0.345 N 
HETATM   31  C   UNL     1     -43.721  60.392 -59.785  1.00  0.00     0.154 C 
HETATM   32  C   UNL     1     -43.001  61.051 -57.482  1.00  0.00     0.128 C 
HETATM   33  C   UNL     1     -42.467  60.905 -60.512  1.00  0.00     0.254 C 
HETATM   34  N   UNL     1     -42.055  62.274 -59.978  1.00  0.00    -0.073 N 
HETATM   35  H   UNL     1     -42.915  62.762 -59.697  1.00  0.00     0.279 HD
HETATM   36  C   UNL     1     -41.472  63.132 -61.079  1.00  0.00     0.269 C 
HETATM   37  C   UNL     1     -41.131  62.253 -58.784  1.00  0.00     0.236 C 
HETATM   38  C   UNL     1     -41.510  61.276 -57.675  1.00  0.00     0.048 C 
HETATM   39  O   UNL     1     -44.279  57.917 -58.835  1.00  0.00    -0.265 OA
ENDBRANCH   6  29
TORSDOF 7
ENDMDL
MODEL 4
REMARK VINA RESULT:      -7.9      2.797      7.722
REMARK  7 active torsions:
REMARK  status: ('A' for Active; 'I' for Inactive)
REMARK    1  A    between atoms: C_4  and  C_5 
REMARK    2  A    between atoms: C_5  and  C_6 
REMARK    3  A    between atoms: C_6  and  C_7 
REMARK    4  A    between atoms: C_7  and  N_8 
REMARK    5  A    between atoms: C_12  and  O_13 
REMARK    6  A    between atoms: C_12  and  C_14 
REMARK    7  A    between atoms: C_19  and  C_20 
REMARK       I    between atoms: C_20  and  N_21 
ROOT
HETATM    1  C   UNL     1     -43.064  59.872 -51.540  1.00  0.00    -0.023 A 
HETATM    2  C   UNL     1     -43.451  58.513 -51.464  1.00  0.00     0.024 A 
HETATM    3  C   UNL     1     -42.521  57.530 -51.074  1.00  0.00     0.001 A 
HETATM    4  C   UNL     1     -41.246  57.929 -50.705  1.00  0.00     0.086 A 
HETATM    5  O   UNL     1     -40.477  56.847 -50.401  1.00  0.00    -0.304 OA
HETATM    6  C   UNL     1     -41.255  55.732 -50.581  1.00  0.00     0.144 A 
HETATM    7  C   UNL     1     -42.534  56.120 -50.940  1.00  0.00     0.057 A 
HETATM    8  C   UNL     1     -40.841  59.256 -50.656  1.00  0.00     0.039 A 
HETATM    9  C   UNL     1     -41.779  60.216 -51.070  1.00  0.00     0.013 A 
ENDROOT
BRANCH   1  10
HETATM   10  C   UNL     1     -44.031  60.933 -52.094  1.00  0.00     0.088 C 
HETATM   11  C   UNL     1     -45.342  60.361 -52.667  1.00  0.00     0.071 C 
HETATM   12  C   UNL     1     -45.095  59.490 -53.886  1.00  0.00     0.238 C 
HETATM   13  N   UNL     1     -44.358  60.247 -54.968  1.00  0.00    -0.071 N 
HETATM   14  H   UNL     1     -45.011  60.943 -55.361  1.00  0.00     0.279 HD
HETATM   15  C   UNL     1     -43.147  61.013 -54.468  1.00  0.00     0.238 C 
HETATM   16  C   UNL     1     -43.460  61.815 -53.219  1.00  0.00     0.071 C 
BRANCH  13  17
HETATM   17  C   UNL     1     -43.923  59.346 -56.123  1.00  0.00     0.235 C 
BRANCH  17  18
HETATM   18  C   UNL     1     -42.487  58.848 -55.965  1.00  0.00     0.038 C 
BRANCH  18  19
HETATM   19  C   UNL     1     -42.384  57.326 -56.203  1.00  0.00     0.040 C 
HETATM   20  C   UNL     1     -43.318  56.572 -55.256  1.00  0.00     0.017 C 
BRANCH  19  21
HETATM   21  C   UNL     1     -42.664  56.943 -57.619  1.00  0.00     0.057 A 
HETATM   22  O   UNL     1     -43.452  55.850 -57.819  1.00  0.00    -0.319 OA
HETATM   23  C   UNL     1     -43.555  55.671 -59.166  1.00  0.00     0.049 A 
HETATM   24  C   UNL     1     -44.335  54.504 -59.628  1.00  0.00     0.076 C 
HETATM   25  C   UNL     1     -42.859  56.658 -59.828  1.00  0.00     0.035 A 
HETATM   26  C   UNL     1     -42.284  57.481 -58.830  1.00  0.00     0.035 A 
ENDBRANCH  19  21
ENDBRANCH  18  19
ENDBRANCH  17  18
ENDBRANCH  13  17
BRANCH  10  27
HETATM   27  O   UNL     1     -44.392  61.808 -51.027  1.00  0.00    -0.385 OA
HETATM   28  H   UNL     1     -44.393  62.733 -51.336  1.00  0.00     0.211 HD
ENDBRANCH  10  27
ENDBRANCH   1  10
BRANCH   6  29
HETATM   29  C   UNL     1     -40.737  54.399 -50.325  1.00  0.00     0.277 C 
HETATM   30  N   UNL     1     -40.935  53.365 -51.263  1.00  0.00    -0.345 N 
HETATM   31  C   UNL     1     -40.297  52.072 -50.995  1.00  0.00     0.154 C 
HETATM   32  C   UNL     1     -41.751  53.473 -52.472  1.00  0.00     0.128 C 
HETATM   33  C   UNL     1     -39.314  51.628 -52.091  1.00  0.00     0.254 C 
HETATM   34  N   UNL     1     -40.061  51.244 -53.364  1.00  0.00    -0.073 N 
HETATM   35  H   UNL     1     -40.968  50.853 -53.078  1.00  0.00     0.279 HD
HETATM   36  C   UNL     1     -39.365  50.106 -54.079  1.00  0.00     0.269 C 
HETATM   37  C   UNL     1     -40.334  52.377 -54.323  1.00  0.00     0.236 C 
HETATM   38  C   UNL     1     -40.864  53.661 -53.692  1.00  0.00     0.048 C 
HETATM   39  O   UNL     1     -40.143  54.158 -49.273  1.00  0.00    -0.265 OA
ENDBRANCH   6  29
TORSDOF 7
ENDMDL
MODEL 5
REMARK VINA RESULT:      -7.7      2.316      8.414
REMARK  7 active torsions:
REMARK  status: ('A' for Active; 'I' for Inactive)
REMARK    1  A    between atoms: C_4  and  C_5 
REMARK    2  A    between atoms: C_5  and  C_6 
REMARK    3  A    between atoms: C_6  and  C_7 
REMARK    4  A    between atoms: C_7  and  N_8 
REMARK    5  A    between atoms: C_12  and  O_13 
REMARK    6  A    between atoms: C_12  and  C_14 
REMARK    7  A    between atoms: C_19  and  C_20 
REMARK       I    between atoms: C_20  and  N_21 
ROOT
HETATM    1  C   UNL     1     -43.012  60.543 -55.644  1.00  0.00    -0.023 A 
HETATM    2  C   UNL     1     -41.907  59.785 -55.190  1.00  0.00     0.024 A 
HETATM    3  C   UNL     1     -42.044  58.915 -54.091  1.00  0.00     0.001 A 
HETATM    4  C   UNL     1     -43.293  58.771 -53.508  1.00  0.00     0.086 A 
HETATM    5  O   UNL     1     -43.227  57.930 -52.439  1.00  0.00    -0.304 OA
HETATM    6  C   UNL     1     -41.921  57.528 -52.319  1.00  0.00     0.144 A 
HETATM    7  C   UNL     1     -41.178  58.071 -53.353  1.00  0.00     0.057 A 
HETATM    8  C   UNL     1     -44.436  59.406 -53.975  1.00  0.00     0.039 A 
HETATM    9  C   UNL     1     -44.270  60.284 -55.060  1.00  0.00     0.013 A 
ENDROOT
BRANCH   1  10
HETATM   10  C   UNL     1     -42.840  61.592 -56.755  1.00  0.00     0.088 C 
HETATM   11  C   UNL     1     -44.022  61.673 -57.741  1.00  0.00     0.071 C 
HETATM   12  C   UNL     1     -44.183  60.391 -58.538  1.00  0.00     0.238 C 
HETATM   13  N   UNL     1     -42.919  60.044 -59.291  1.00  0.00    -0.071 N 
HETATM   14  H   UNL     1     -42.813  60.730 -60.056  1.00  0.00     0.279 HD
HETATM   15  C   UNL     1     -41.659  60.123 -58.450  1.00  0.00     0.238 C 
HETATM   16  C   UNL     1     -41.597  61.408 -57.644  1.00  0.00     0.071 C 
BRANCH  13  17
HETATM   17  C   UNL     1     -42.984  58.662 -59.942  1.00  0.00     0.235 C 
BRANCH  17  18
HETATM   18  C   UNL     1     -42.092  57.642 -59.235  1.00  0.00     0.038 C 
BRANCH  18  19
HETATM   19  C   UNL     1     -42.927  56.572 -58.499  1.00  0.00     0.040 C 
HETATM   20  C   UNL     1     -43.550  57.158 -57.232  1.00  0.00     0.017 C 
BRANCH  19  21
HETATM   21  C   UNL     1     -43.984  55.969 -59.363  1.00  0.00     0.057 A 
HETATM   22  O   UNL     1     -45.160  56.650 -59.468  1.00  0.00    -0.319 OA
HETATM   23  C   UNL     1     -45.977  55.916 -60.275  1.00  0.00     0.049 A 
HETATM   24  C   UNL     1     -47.340  56.440 -60.500  1.00  0.00     0.076 C 
HETATM   25  C   UNL     1     -45.322  54.784 -60.707  1.00  0.00     0.035 A 
HETATM   26  C   UNL     1     -44.035  54.817 -60.120  1.00  0.00     0.035 A 
ENDBRANCH  19  21
ENDBRANCH  18  19
ENDBRANCH  17  18
ENDBRANCH  13  17
BRANCH  10  27
HETATM   27  O   UNL     1     -42.723  62.876 -56.144  1.00  0.00    -0.385 OA
HETATM   28  H   UNL     1     -43.428  63.467 -56.465  1.00  0.00     0.211 HD
ENDBRANCH  10  27
ENDBRANCH   1  10
BRANCH   6  29
HETATM   29  C   UNL     1     -41.507  56.603 -51.278  1.00  0.00     0.277 C 
HETATM   30  N   UNL     1     -41.520  55.213 -51.513  1.00  0.00    -0.345 N 
HETATM   31  C   UNL     1     -40.991  54.340 -50.460  1.00  0.00     0.154 C 
HETATM   32  C   UNL     1     -42.048  54.570 -52.716  1.00  0.00     0.128 C 
HETATM   33  C   UNL     1     -39.803  53.475 -50.913  1.00  0.00     0.254 C 
HETATM   34  N   UNL     1     -40.262  52.392 -51.885  1.00  0.00    -0.073 N 
HETATM   35  H   UNL     1     -41.220  52.130 -51.618  1.00  0.00     0.279 HD
HETATM   36  C   UNL     1     -39.456  51.124 -51.704  1.00  0.00     0.269 C 
HETATM   37  C   UNL     1     -40.288  52.795 -53.339  1.00  0.00     0.236 C 
HETATM   38  C   UNL     1     -40.910  54.157 -53.636  1.00  0.00     0.048 C 
HETATM   39  O   UNL     1     -41.164  57.028 -50.174  1.00  0.00    -0.265 OA
ENDBRANCH   6  29
TORSDOF 7
ENDMDL
MODEL 6
REMARK VINA RESULT:      -7.6      4.552      8.306
REMARK  7 active torsions:
REMARK  status: ('A' for Active; 'I' for Inactive)
REMARK    1  A    between atoms: C_4  and  C_5 
REMARK    2  A    between atoms: C_5  and  C_6 
REMARK    3  A    between atoms: C_6  and  C_7 
REMARK    4  A    between atoms: C_7  and  N_8 
REMARK    5  A    between atoms: C_12  and  O_13 
REMARK    6  A    between atoms: C_12  and  C_14 
REMARK    7  A    between atoms: C_19  and  C_20 
REMARK       I    between atoms: C_20  and  N_21 
ROOT
HETATM    1  C   UNL     1     -44.314  60.692 -53.166  1.00  0.00    -0.023 A 
HETATM    2  C   UNL     1     -44.730  59.484 -52.557  1.00  0.00     0.024 A 
HETATM    3  C   UNL     1     -43.778  58.552 -52.101  1.00  0.00     0.001 A 
HETATM    4  C   UNL     1     -42.433  58.872 -52.201  1.00  0.00     0.086 A 
HETATM    5  O   UNL     1     -41.663  57.842 -51.754  1.00  0.00    -0.304 OA
HETATM    6  C   UNL     1     -42.514  56.838 -51.366  1.00  0.00     0.144 A 
HETATM    7  C   UNL     1     -43.822  57.265 -51.514  1.00  0.00     0.057 A 
HETATM    8  C   UNL     1     -41.967  60.085 -52.690  1.00  0.00     0.039 A 
HETATM    9  C   UNL     1     -42.934  60.990 -53.158  1.00  0.00     0.013 A 
ENDROOT
BRANCH   1  10
HETATM   10  C   UNL     1     -45.342  61.653 -53.787  1.00  0.00     0.088 C 
HETATM   11  C   UNL     1     -45.077  63.142 -53.496  1.00  0.00     0.071 C 
HETATM   12  C   UNL     1     -45.199  63.461 -52.016  1.00  0.00     0.238 C 
HETATM   13  N   UNL     1     -46.558  63.074 -51.476  1.00  0.00    -0.071 N 
HETATM   14  H   UNL     1     -47.249  63.732 -51.870  1.00  0.00     0.279 HD
HETATM   15  C   UNL     1     -47.004  61.678 -51.873  1.00  0.00     0.238 C 
HETATM   16  C   UNL     1     -46.801  61.419 -53.355  1.00  0.00     0.071 C 
BRANCH  13  17
HETATM   17  C   UNL     1     -46.643  63.198 -49.955  1.00  0.00     0.235 C 
BRANCH  17  18
HETATM   18  C   UNL     1     -45.295  62.965 -49.275  1.00  0.00     0.038 C 
BRANCH  18  19
HETATM   19  C   UNL     1     -45.023  61.461 -49.055  1.00  0.00     0.040 C 
HETATM   20  C   UNL     1     -43.595  61.110 -49.471  1.00  0.00     0.017 C 
BRANCH  19  21
HETATM   21  C   UNL     1     -45.273  61.029 -47.648  1.00  0.00     0.057 A 
HETATM   22  O   UNL     1     -46.165  60.015 -47.463  1.00  0.00    -0.319 OA
HETATM   23  C   UNL     1     -46.256  59.803 -46.120  1.00  0.00     0.049 A 
HETATM   24  C   UNL     1     -47.210  58.768 -45.670  1.00  0.00     0.076 C 
HETATM   25  C   UNL     1     -45.409  60.656 -45.448  1.00  0.00     0.035 A 
HETATM   26  C   UNL     1     -44.773  61.447 -46.433  1.00  0.00     0.035 A 
ENDBRANCH  19  21
ENDBRANCH  18  19
ENDBRANCH  17  18
ENDBRANCH  13  17
BRANCH  10  27
HETATM   27  O   UNL     1     -45.302  61.495 -55.204  1.00  0.00    -0.385 OA
HETATM   28  H   UNL     1     -44.518  60.976 -55.463  1.00  0.00     0.211 HD
ENDBRANCH  10  27
ENDBRANCH   1  10
BRANCH   6  29
HETATM   29  C   UNL     1     -42.010  55.590 -50.818  1.00  0.00     0.277 C 
HETATM   30  N   UNL     1     -41.873  54.454 -51.643  1.00  0.00    -0.345 N 
HETATM   31  C   UNL     1     -41.261  53.258 -51.057  1.00  0.00     0.154 C 
HETATM   32  C   UNL     1     -42.320  54.367 -53.032  1.00  0.00     0.128 C 
HETATM   33  C   UNL     1     -39.984  52.799 -51.780  1.00  0.00     0.254 C 
HETATM   34  N   UNL     1     -40.318  52.224 -53.153  1.00  0.00    -0.073 N 
HETATM   35  H   UNL     1     -41.244  51.782 -53.081  1.00  0.00     0.279 HD
HETATM   36  C   UNL     1     -39.382  51.088 -53.508  1.00  0.00     0.269 C 
HETATM   37  C   UNL     1     -40.376  53.227 -54.280  1.00  0.00     0.236 C 
HETATM   38  C   UNL     1     -41.139  54.513 -53.978  1.00  0.00     0.048 C 
HETATM   39  O   UNL     1     -41.723  55.510 -49.623  1.00  0.00    -0.265 OA
ENDBRANCH   6  29
TORSDOF 7
ENDMDL
MODEL 7
REMARK VINA RESULT:      -7.3      5.298      9.008
REMARK  7 active torsions:
REMARK  status: ('A' for Active; 'I' for Inactive)
REMARK    1  A    between atoms: C_4  and  C_5 
REMARK    2  A    between atoms: C_5  and  C_6 
REMARK    3  A    between atoms: C_6  and  C_7 
REMARK    4  A    between atoms: C_7  and  N_8 
REMARK    5  A    between atoms: C_12  and  O_13 
REMARK    6  A    between atoms: C_12  and  C_14 
REMARK    7  A    between atoms: C_19  and  C_20 
REMARK       I    between atoms: C_20  and  N_21 
ROOT
HETATM    1  C   UNL     1     -44.427  60.281 -52.005  1.00  0.00    -0.023 A 
HETATM    2  C   UNL     1     -43.155  59.661 -51.974  1.00  0.00     0.024 A 
HETATM    3  C   UNL     1     -43.021  58.337 -51.511  1.00  0.00     0.001 A 
HETATM    4  C   UNL     1     -44.163  57.639 -51.151  1.00  0.00     0.086 A 
HETATM    5  O   UNL     1     -43.839  56.399 -50.690  1.00  0.00    -0.304 OA
HETATM    6  C   UNL     1     -42.472  56.291 -50.743  1.00  0.00     0.144 A 
HETATM    7  C   UNL     1     -41.943  57.445 -51.295  1.00  0.00     0.057 A 
HETATM    8  C   UNL     1     -45.446  58.157 -51.261  1.00  0.00     0.039 A 
HETATM    9  C   UNL     1     -45.553  59.486 -51.706  1.00  0.00     0.013 A 
ENDROOT
BRANCH   1  10
HETATM   10  C   UNL     1     -44.566  61.766 -52.380  1.00  0.00     0.088 C 
HETATM   11  C   UNL     1     -43.396  62.652 -51.911  1.00  0.00     0.071 C 
HETATM   12  C   UNL     1     -43.305  62.716 -50.397  1.00  0.00     0.238 C 
HETATM   13  N   UNL     1     -44.594  63.214 -49.784  1.00  0.00    -0.071 N 
HETATM   14  H   UNL     1     -44.680  64.218 -50.010  1.00  0.00     0.279 HD
HETATM   15  C   UNL     1     -45.838  62.533 -50.325  1.00  0.00     0.238 C 
HETATM   16  C   UNL     1     -45.829  62.462 -51.842  1.00  0.00     0.071 C 
BRANCH  13  17
HETATM   17  C   UNL     1     -44.602  63.102 -48.260  1.00  0.00     0.235 C 
BRANCH  17  18
HETATM   18  C   UNL     1     -46.017  63.102 -47.682  1.00  0.00     0.038 C 
BRANCH  18  19
HETATM   19  C   UNL     1     -46.096  62.289 -46.373  1.00  0.00     0.040 C 
HETATM   20  C   UNL     1     -45.348  60.964 -46.520  1.00  0.00     0.017 C 
BRANCH  19  21
HETATM   21  C   UNL     1     -45.582  63.044 -45.191  1.00  0.00     0.057 A 
HETATM   22  O   UNL     1     -44.531  62.498 -44.518  1.00  0.00    -0.319 OA
HETATM   23  C   UNL     1     -44.246  63.330 -43.477  1.00  0.00     0.049 A 
HETATM   24  C   UNL     1     -43.157  62.916 -42.569  1.00  0.00     0.076 C 
HETATM   25  C   UNL     1     -45.092  64.417 -43.496  1.00  0.00     0.035 A 
HETATM   26  C   UNL     1     -45.954  64.234 -44.603  1.00  0.00     0.035 A 
ENDBRANCH  19  21
ENDBRANCH  18  19
ENDBRANCH  17  18
ENDBRANCH  13  17
BRANCH  10  27
HETATM   27  O   UNL     1     -44.616  61.865 -53.802  1.00  0.00    -0.385 OA
HETATM   28  H   UNL     1     -44.641  60.976 -54.201  1.00  0.00     0.211 HD
ENDBRANCH  10  27
ENDBRANCH   1  10
BRANCH   6  29
HETATM   29  C   UNL     1     -41.794  55.073 -50.333  1.00  0.00     0.277 C 
HETATM   30  N   UNL     1     -41.689  53.983 -51.222  1.00  0.00    -0.345 N 
HETATM   31  C   UNL     1     -40.902  52.825 -50.788  1.00  0.00     0.154 C 
HETATM   32  C   UNL     1     -42.329  53.906 -52.535  1.00  0.00     0.128 C 
HETATM   33  C   UNL     1     -39.713  52.504 -51.709  1.00  0.00     0.254 C 
HETATM   34  N   UNL     1     -40.199  51.950 -53.044  1.00  0.00    -0.073 N 
HETATM   35  H   UNL     1     -41.066  51.427 -52.860  1.00  0.00     0.279 HD
HETATM   36  C   UNL     1     -39.238  50.913 -53.584  1.00  0.00     0.269 C 
HETATM   37  C   UNL     1     -40.505  52.982 -54.102  1.00  0.00     0.236 C 
HETATM   38  C   UNL     1     -41.316  54.187 -53.633  1.00  0.00     0.048 C 
HETATM   39  O   UNL     1     -41.327  54.977 -49.198  1.00  0.00    -0.265 OA
ENDBRANCH   6  29
TORSDOF 7
ENDMDL
MODEL 8
REMARK VINA RESULT:      -7.3     17.768     20.284
REMARK  7 active torsions:
REMARK  status: ('A' for Active; 'I' for Inactive)
REMARK    1  A    between atoms: C_4  and  C_5 
REMARK    2  A    between atoms: C_5  and  C_6 
REMARK    3  A    between atoms: C_6  and  C_7 
REMARK    4  A    between atoms: C_7  and  N_8 
REMARK    5  A    between atoms: C_12  and  O_13 
REMARK    6  A    between atoms: C_12  and  C_14 
REMARK    7  A    between atoms: C_19  and  C_20 
REMARK       I    between atoms: C_20  and  N_21 
ROOT
HETATM    1  C   UNL     1     -35.989  41.153 -54.322  1.00  0.00    -0.023 A 
HETATM    2  C   UNL     1     -36.080  39.828 -54.810  1.00  0.00     0.024 A 
HETATM    3  C   UNL     1     -35.915  39.563 -56.183  1.00  0.00     0.001 A 
HETATM    4  C   UNL     1     -35.599  40.613 -57.031  1.00  0.00     0.086 A 
HETATM    5  O   UNL     1     -35.521  40.180 -58.319  1.00  0.00    -0.304 OA
HETATM    6  C   UNL     1     -35.796  38.836 -58.313  1.00  0.00     0.144 A 
HETATM    7  C   UNL     1     -35.988  38.415 -57.009  1.00  0.00     0.057 A 
HETATM    8  C   UNL     1     -35.391  41.915 -56.594  1.00  0.00     0.039 A 
HETATM    9  C   UNL     1     -35.582  42.159 -55.224  1.00  0.00     0.013 A 
ENDROOT
BRANCH   1  10
HETATM   10  C   UNL     1     -36.300  41.470 -52.849  1.00  0.00     0.088 C 
HETATM   11  C   UNL     1     -35.119  42.073 -52.066  1.00  0.00     0.071 C 
HETATM   12  C   UNL     1     -33.963  41.096 -51.942  1.00  0.00     0.238 C 
HETATM   13  N   UNL     1     -34.396  39.804 -51.288  1.00  0.00    -0.071 N 
HETATM   14  H   UNL     1     -34.581  40.005 -50.292  1.00  0.00     0.279 HD
HETATM   15  C   UNL     1     -35.674  39.220 -51.864  1.00  0.00     0.238 C 
HETATM   16  C   UNL     1     -36.762  40.268 -52.004  1.00  0.00     0.071 C 
BRANCH  13  17
HETATM   17  C   UNL     1     -33.309  38.731 -51.328  1.00  0.00     0.235 C 
BRANCH  17  18
HETATM   18  C   UNL     1     -32.069  39.186 -52.096  1.00  0.00     0.038 C 
BRANCH  18  19
HETATM   19  C   UNL     1     -31.707  38.200 -53.228  1.00  0.00     0.040 C 
HETATM   20  C   UNL     1     -32.509  36.907 -53.086  1.00  0.00     0.017 C 
BRANCH  19  21
HETATM   21  C   UNL     1     -31.904  38.785 -54.587  1.00  0.00     0.057 A 
HETATM   22  O   UNL     1     -31.911  37.916 -55.638  1.00  0.00    -0.319 OA
HETATM   23  C   UNL     1     -32.077  38.658 -56.769  1.00  0.00     0.049 A 
HETATM   24  C   UNL     1     -32.071  37.928 -58.054  1.00  0.00     0.076 C 
HETATM   25  C   UNL     1     -32.202  39.991 -56.446  1.00  0.00     0.035 A 
HETATM   26  C   UNL     1     -32.091  40.074 -55.038  1.00  0.00     0.035 A 
ENDBRANCH  19  21
ENDBRANCH  18  19
ENDBRANCH  17  18
ENDBRANCH  13  17
BRANCH  10  27
HETATM   27  O   UNL     1     -37.355  42.429 -52.811  1.00  0.00    -0.385 OA
HETATM   28  H   UNL     1     -38.157  42.033 -52.423  1.00  0.00     0.211 HD
ENDBRANCH  10  27
ENDBRANCH   1  10
BRANCH   6  29
HETATM   29  C   UNL     1     -35.780  38.056 -59.538  1.00  0.00     0.277 C 
HETATM   30  N   UNL     1     -36.962  37.452 -60.014  1.00  0.00    -0.345 N 
HETATM   31  C   UNL     1     -36.904  36.768 -61.309  1.00  0.00     0.154 C 
HETATM   32  C   UNL     1     -38.240  37.431 -59.302  1.00  0.00     0.128 C 
HETATM   33  C   UNL     1     -37.870  37.344 -62.358  1.00  0.00     0.254 C 
HETATM   34  N   UNL     1     -39.315  37.012 -62.001  1.00  0.00    -0.073 N 
HETATM   35  H   UNL     1     -39.309  36.102 -61.522  1.00  0.00     0.279 HD
HETATM   36  C   UNL     1     -40.142  36.782 -63.247  1.00  0.00     0.269 C 
HETATM   37  C   UNL     1     -40.002  38.002 -61.091  1.00  0.00     0.236 C 
HETATM   38  C   UNL     1     -39.188  38.465 -59.887  1.00  0.00     0.048 C 
HETATM   39  O   UNL     1     -34.727  37.897 -60.157  1.00  0.00    -0.265 OA
ENDBRANCH   6  29
TORSDOF 7
ENDMDL
MODEL 9
REMARK VINA RESULT:      -7.2     17.600     21.889
REMARK  7 active torsions:
REMARK  status: ('A' for Active; 'I' for Inactive)
REMARK    1  A    between atoms: C_4  and  C_5 
REMARK    2  A    between atoms: C_5  and  C_6 
REMARK    3  A    between atoms: C_6  and  C_7 
REMARK    4  A    between atoms: C_7  and  N_8 
REMARK    5  A    between atoms: C_12  and  O_13 
REMARK    6  A    between atoms: C_12  and  C_14 
REMARK    7  A    between atoms: C_19  and  C_20 
REMARK       I    between atoms: C_20  and  N_21 
ROOT
HETATM    1  C   UNL     1     -32.552  39.241 -53.812  1.00  0.00    -0.023 A 
HETATM    2  C   UNL     1     -33.656  38.532 -53.283  1.00  0.00     0.024 A 
HETATM    3  C   UNL     1     -34.113  38.798 -51.978  1.00  0.00     0.001 A 
HETATM    4  C   UNL     1     -33.504  39.810 -51.253  1.00  0.00     0.086 A 
HETATM    5  O   UNL     1     -34.045  39.896 -50.006  1.00  0.00    -0.304 OA
HETATM    6  C   UNL     1     -35.011  38.926 -49.915  1.00  0.00     0.144 A 
HETATM    7  C   UNL     1     -35.117  38.270 -51.130  1.00  0.00     0.057 A 
HETATM    8  C   UNL     1     -32.489  40.611 -51.757  1.00  0.00     0.039 A 
HETATM    9  C   UNL     1     -32.035  40.312 -53.053  1.00  0.00     0.013 A 
ENDROOT
BRANCH   1  10
HETATM   10  C   UNL     1     -31.960  38.865 -55.182  1.00  0.00     0.088 C 
HETATM   11  C   UNL     1     -31.845  40.042 -56.169  1.00  0.00     0.071 C 
HETATM   12  C   UNL     1     -33.206  40.596 -56.552  1.00  0.00     0.238 C 
HETATM   13  N   UNL     1     -34.094  39.524 -57.145  1.00  0.00    -0.071 N 
HETATM   14  H   UNL     1     -33.717  39.287 -58.076  1.00  0.00     0.279 HD
HETATM   15  C   UNL     1     -34.126  38.237 -56.341  1.00  0.00     0.238 C 
HETATM   16  C   UNL     1     -32.732  37.778 -55.952  1.00  0.00     0.071 C 
BRANCH  13  17
HETATM   17  C   UNL     1     -35.530  40.002 -57.357  1.00  0.00     0.235 C 
BRANCH  17  18
HETATM   18  C   UNL     1     -35.654  41.523 -57.292  1.00  0.00     0.038 C 
BRANCH  18  19
HETATM   19  C   UNL     1     -36.864  41.958 -56.437  1.00  0.00     0.040 C 
HETATM   20  C   UNL     1     -38.100  41.134 -56.802  1.00  0.00     0.017 C 
BRANCH  19  21
HETATM   21  C   UNL     1     -36.598  41.869 -54.971  1.00  0.00     0.057 A 
HETATM   22  O   UNL     1     -37.469  41.130 -54.228  1.00  0.00    -0.319 OA
HETATM   23  C   UNL     1     -37.054  41.206 -52.932  1.00  0.00     0.049 A 
HETATM   24  C   UNL     1     -37.882  40.511 -51.924  1.00  0.00     0.076 C 
HETATM   25  C   UNL     1     -35.909  41.966 -52.846  1.00  0.00     0.035 A 
HETATM   26  C   UNL     1     -35.613  42.395 -54.161  1.00  0.00     0.035 A 
ENDBRANCH  19  21
ENDBRANCH  18  19
ENDBRANCH  17  18
ENDBRANCH  13  17
BRANCH  10  27
HETATM   27  O   UNL     1     -30.640  38.366 -54.977  1.00  0.00    -0.385 OA
HETATM   28  H   UNL     1     -30.661  37.593 -54.383  1.00  0.00     0.211 HD
ENDBRANCH  10  27
ENDBRANCH   1  10
BRANCH   6  29
HETATM   29  C   UNL     1     -35.800  38.756 -48.707  1.00  0.00     0.277 C 
HETATM   30  N   UNL     1     -35.418  37.809 -47.734  1.00  0.00    -0.345 N 
HETATM   31  C   UNL     1     -36.194  37.760 -46.491  1.00  0.00     0.154 C 
HETATM   32  C   UNL     1     -34.323  36.851 -47.880  1.00  0.00     0.128 C 
HETATM   33  C   UNL     1     -35.358  38.029 -45.229  1.00  0.00     0.254 C 
HETATM   34  N   UNL     1     -34.417  36.862 -44.945  1.00  0.00    -0.073 N 
HETATM   35  H   UNL     1     -34.887  36.007 -45.270  1.00  0.00     0.279 HD
HETATM   36  C   UNL     1     -34.240  36.658 -43.456  1.00  0.00     0.269 C 
HETATM   37  C   UNL     1     -33.073  36.932 -45.629  1.00  0.00     0.236 C 
HETATM   38  C   UNL     1     -33.103  37.321 -47.104  1.00  0.00     0.048 C 
HETATM   39  O   UNL     1     -36.822  39.422 -48.537  1.00  0.00    -0.265 OA
ENDBRANCH   6  29
TORSDOF 7
ENDMDL
MODEL 10
REMARK VINA RESULT:      -7.1      2.789      7.648
REMARK  7 active torsions:
REMARK  status: ('A' for Active; 'I' for Inactive)
REMARK    1  A    between atoms: C_4  and  C_5 
REMARK    2  A    between atoms: C_5  and  C_6 
REMARK    3  A    between atoms: C_6  and  C_7 
REMARK    4  A    between atoms: C_7  and  N_8 
REMARK    5  A    between atoms: C_12  and  O_13 
REMARK    6  A    between atoms: C_12  and  C_14 
REMARK    7  A    between atoms: C_19  and  C_20 
REMARK       I    between atoms: C_20  and  N_21 
ROOT
HETATM    1  C   UNL     1     -42.689  57.108 -58.347  1.00  0.00    -0.023 A 
HETATM    2  C   UNL     1     -42.161  58.301 -57.798  1.00  0.00     0.024 A 
HETATM    3  C   UNL     1     -42.209  58.525 -56.408  1.00  0.00     0.001 A 
HETATM    4  C   UNL     1     -42.720  57.530 -55.590  1.00  0.00     0.086 A 
HETATM    5  O   UNL     1     -42.727  57.938 -54.291  1.00  0.00    -0.304 OA
HETATM    6  C   UNL     1     -42.222  59.213 -54.263  1.00  0.00     0.144 A 
HETATM    7  C   UNL     1     -41.841  59.583 -55.541  1.00  0.00     0.057 A 
HETATM    8  C   UNL     1     -43.153  56.298 -56.060  1.00  0.00     0.039 A 
HETATM    9  C   UNL     1     -43.116  56.105 -57.451  1.00  0.00     0.013 A 
ENDROOT
BRANCH   1  10
HETATM   10  C   UNL     1     -42.764  56.912 -59.871  1.00  0.00     0.088 C 
HETATM   11  C   UNL     1     -43.169  58.175 -60.655  1.00  0.00     0.071 C 
HETATM   12  C   UNL     1     -44.582  58.620 -60.322  1.00  0.00     0.238 C 
HETATM   13  N   UNL     1     -45.586  57.520 -60.584  1.00  0.00    -0.071 N 
HETATM   14  H   UNL     1     -45.660  57.402 -61.607  1.00  0.00     0.279 HD
HETATM   15  C   UNL     1     -45.185  56.172 -60.013  1.00  0.00     0.238 C 
HETATM   16  C   UNL     1     -43.745  55.823 -60.344  1.00  0.00     0.071 C 
BRANCH  13  17
HETATM   17  C   UNL     1     -46.984  57.868 -60.075  1.00  0.00     0.235 C 
BRANCH  17  18
HETATM   18  C   UNL     1     -47.086  59.314 -59.592  1.00  0.00     0.038 C 
BRANCH  18  19
HETATM   19  C   UNL     1     -47.274  59.389 -58.062  1.00  0.00     0.040 C 
HETATM   20  C   UNL     1     -46.985  58.033 -57.420  1.00  0.00     0.017 C 
BRANCH  19  21
HETATM   21  C   UNL     1     -46.437  60.451 -57.429  1.00  0.00     0.057 A 
HETATM   22  O   UNL     1     -47.092  61.423 -56.735  1.00  0.00    -0.319 OA
HETATM   23  C   UNL     1     -46.147  62.288 -56.269  1.00  0.00     0.049 A 
HETATM   24  C   UNL     1     -46.631  63.464 -55.516  1.00  0.00     0.076 C 
HETATM   25  C   UNL     1     -44.891  61.861 -56.639  1.00  0.00     0.035 A 
HETATM   26  C   UNL     1     -45.077  60.674 -57.387  1.00  0.00     0.035 A 
ENDBRANCH  19  21
ENDBRANCH  18  19
ENDBRANCH  17  18
ENDBRANCH  13  17
BRANCH  10  27
HETATM   27  O   UNL     1     -41.471  56.532 -60.338  1.00  0.00    -0.385 OA
HETATM   28  H   UNL     1     -41.065  57.263 -60.838  1.00  0.00     0.211 HD
ENDBRANCH  10  27
ENDBRANCH   1  10
BRANCH   6  29
HETATM   29  C   UNL     1     -42.076  59.941 -53.014  1.00  0.00     0.277 C 
HETATM   30  N   UNL     1     -43.143  60.712 -52.509  1.00  0.00    -0.345 N 
HETATM   31  C   UNL     1     -42.970  61.335 -51.194  1.00  0.00     0.154 C 
HETATM   32  C   UNL     1     -44.402  60.962 -53.210  1.00  0.00     0.128 C 
HETATM   33  C   UNL     1     -44.014  60.889 -50.156  1.00  0.00     0.254 C 
HETATM   34  N   UNL     1     -45.388  61.462 -50.490  1.00  0.00    -0.073 N 
HETATM   35  H   UNL     1     -45.236  62.374 -50.940  1.00  0.00     0.279 HD
HETATM   36  C   UNL     1     -46.163  61.783 -49.231  1.00  0.00     0.269 C 
HETATM   37  C   UNL     1     -46.228  60.626 -51.425  1.00  0.00     0.236 C 
HETATM   38  C   UNL     1     -45.504  60.077 -52.650  1.00  0.00     0.048 C 
HETATM   39  O   UNL     1     -41.009  59.907 -52.399  1.00  0.00    -0.265 OA
ENDBRANCH   6  29
TORSDOF 7
ENDMDL
