MODEL 1
REMARK VINA RESULT:      -9.0      0.000      0.000
REMARK  6 active torsions:
REMARK  status: ('A' for Active; 'I' for Inactive)
REMARK    1  A    between atoms: C_5  and  C_6 
REMARK    2  A    between atoms: C_11  and  C_12 
REMARK       I    between atoms: C_12  and  N_13 
REMARK    3  A    between atoms: N_13  and  C_14 
REMARK    4  A    between atoms: C_16  and  C_17 
REMARK    5  A    between atoms: C_17  and  O_18 
REMARK    6  A    between atoms: C_25  and  C_26 
ROOT
HETATM    1  C   UNL     1     -44.071  59.813 -58.846  1.00  0.00     0.118 C 
HETATM    2  N   UNL     1     -44.277  59.355 -57.476  1.00  0.00    -0.366 N 
HETATM    3  C   UNL     1     -43.943  58.107 -57.086  1.00  0.00     0.123 A 
HETATM    4  N   UNL     1     -43.596  57.137 -57.984  1.00  0.00    -0.240 N 
HETATM    5  N   UNL     1     -43.360  55.935 -57.422  1.00  0.00    -0.165 NA
HETATM    6  C   UNL     1     -43.454  56.185 -56.095  1.00  0.00     0.148 A 
HETATM    7  C   UNL     1     -43.847  57.527 -55.850  1.00  0.00     0.089 A 
HETATM    8  C   UNL     1     -43.497  57.346 -59.415  1.00  0.00     0.221 C 
HETATM    9  C   UNL     1     -44.220  58.641 -59.833  1.00  0.00     0.066 C 
HETATM   10  H   UNL     1     -44.370  60.101 -56.787  1.00  0.00     0.161 HD
ENDROOT
BRANCH   6  11
HETATM   11  C   UNL     1     -43.162  55.163 -55.074  1.00  0.00     0.276 C 
HETATM   12  N   UNL     1     -41.819  54.844 -55.024  1.00  0.00    -0.322 N 
HETATM   13  H   UNL     1     -41.262  55.307 -55.739  1.00  0.00     0.169 HD
HETATM   14  O   UNL     1     -44.054  54.684 -54.382  1.00  0.00    -0.266 OA
BRANCH  12  15
HETATM   15  C   UNL     1     -41.165  53.984 -54.126  1.00  0.00     0.035 A 
HETATM   16  C   UNL     1     -40.765  52.685 -54.453  1.00  0.00     0.039 A 
HETATM   17  C   UNL     1     -40.138  51.852 -53.507  1.00  0.00    -0.028 A 
HETATM   18  C   UNL     1     -39.896  52.359 -52.225  1.00  0.00     0.010 A 
HETATM   19  C   UNL     1     -40.291  53.653 -51.888  1.00  0.00     0.003 A 
HETATM   20  C   UNL     1     -40.931  54.458 -52.832  1.00  0.00     0.029 A 
BRANCH  17  21
HETATM   21  C   UNL     1     -39.744  50.447 -53.908  1.00  0.00     0.147 C 
HETATM   22  C   UNL     1     -39.599  49.532 -52.698  1.00  0.00     0.044 C 
BRANCH  21  23
HETATM   23  O   UNL     1     -40.709  49.884 -54.797  1.00  0.00    -0.391 OA
HETATM   24  H   UNL     1     -40.959  50.586 -55.421  1.00  0.00     0.210 HD
ENDBRANCH  21  23
ENDBRANCH  17  21
ENDBRANCH  12  15
ENDBRANCH   6  11
BRANCH   8  25
HETATM   25  C   UNL     1     -42.051  57.285 -59.857  1.00  0.00     0.409 C 
HETATM   26  F   UNL     1     -41.618  56.045 -60.142  1.00  0.00    -0.169 F 
HETATM   27  F   UNL     1     -41.827  58.053 -60.950  1.00  0.00    -0.169 F 
HETATM   28  F   UNL     1     -41.244  57.779 -58.882  1.00  0.00    -0.169 F 
ENDBRANCH   8  25
BRANCH   1  29
HETATM   29  C   UNL     1     -42.810  60.644 -59.008  1.00  0.00    -0.035 A 
HETATM   30  C   UNL     1     -41.977  60.991 -57.933  1.00  0.00     0.010 A 
HETATM   31  C   UNL     1     -40.839  61.779 -58.124  1.00  0.00     0.007 A 
HETATM   32  C   UNL     1     -40.513  62.257 -59.396  1.00  0.00    -0.062 A 
HETATM   33  C   UNL     1     -39.291  63.099 -59.612  1.00  0.00     0.048 C 
HETATM   34  C   UNL     1     -41.334  61.919 -60.475  1.00  0.00     0.007 A 
HETATM   35  C   UNL     1     -42.468  61.124 -60.283  1.00  0.00     0.010 A 
ENDBRANCH   1  29
TORSDOF 6
ENDMDL
MODEL 2
REMARK VINA RESULT:      -8.8      3.334      9.409
REMARK  6 active torsions:
REMARK  status: ('A' for Active; 'I' for Inactive)
REMARK    1  A    between atoms: C_5  and  C_6 
REMARK    2  A    between atoms: C_11  and  C_12 
REMARK       I    between atoms: C_12  and  N_13 
REMARK    3  A    between atoms: N_13  and  C_14 
REMARK    4  A    between atoms: C_16  and  C_17 
REMARK    5  A    between atoms: C_17  and  O_18 
REMARK    6  A    between atoms: C_25  and  C_26 
ROOT
HETATM    1  C   UNL     1     -43.490  55.032 -53.875  1.00  0.00     0.118 C 
HETATM    2  N   UNL     1     -43.602  55.212 -55.319  1.00  0.00    -0.366 N 
HETATM    3  C   UNL     1     -43.110  56.304 -55.939  1.00  0.00     0.123 A 
HETATM    4  N   UNL     1     -42.673  57.396 -55.244  1.00  0.00    -0.240 N 
HETATM    5  N   UNL     1     -42.279  58.420 -56.028  1.00  0.00    -0.165 NA
HETATM    6  C   UNL     1     -42.366  57.907 -57.279  1.00  0.00     0.148 A 
HETATM    7  C   UNL     1     -42.910  56.596 -57.262  1.00  0.00     0.089 A 
HETATM    8  C   UNL     1     -42.640  57.484 -53.797  1.00  0.00     0.221 C 
HETATM    9  C   UNL     1     -43.524  56.395 -53.159  1.00  0.00     0.066 C 
HETATM   10  H   UNL     1     -43.765  54.352 -55.843  1.00  0.00     0.161 HD
ENDROOT
BRANCH   6  11
HETATM   11  C   UNL     1     -41.925  58.652 -58.472  1.00  0.00     0.276 C 
HETATM   12  N   UNL     1     -41.839  60.010 -58.237  1.00  0.00    -0.322 N 
HETATM   13  H   UNL     1     -42.157  60.286 -57.311  1.00  0.00     0.169 HD
HETATM   14  O   UNL     1     -41.684  58.074 -59.526  1.00  0.00    -0.266 OA
BRANCH  12  15
HETATM   15  C   UNL     1     -41.375  61.012 -59.106  1.00  0.00     0.035 A 
HETATM   16  C   UNL     1     -41.790  61.134 -60.435  1.00  0.00     0.039 A 
HETATM   17  C   UNL     1     -41.272  62.139 -61.274  1.00  0.00    -0.028 A 
HETATM   18  C   UNL     1     -40.342  63.041 -60.743  1.00  0.00     0.010 A 
HETATM   19  C   UNL     1     -39.921  62.927 -59.418  1.00  0.00     0.003 A 
HETATM   20  C   UNL     1     -40.428  61.912 -58.607  1.00  0.00     0.029 A 
BRANCH  17  21
HETATM   21  C   UNL     1     -41.741  62.214 -62.711  1.00  0.00     0.147 C 
HETATM   22  C   UNL     1     -40.808  63.063 -63.567  1.00  0.00     0.044 C 
BRANCH  21  23
HETATM   23  O   UNL     1     -41.832  60.910 -63.283  1.00  0.00    -0.391 OA
HETATM   24  H   UNL     1     -41.079  60.816 -63.890  1.00  0.00     0.210 HD
ENDBRANCH  21  23
ENDBRANCH  17  21
ENDBRANCH  12  15
ENDBRANCH   6  11
BRANCH   8  25
HETATM   25  C   UNL     1     -41.209  57.475 -53.303  1.00  0.00     0.409 C 
HETATM   26  F   UNL     1     -40.591  58.665 -53.395  1.00  0.00    -0.169 F 
HETATM   27  F   UNL     1     -41.127  57.076 -52.011  1.00  0.00    -0.169 F 
HETATM   28  F   UNL     1     -40.475  56.583 -54.017  1.00  0.00    -0.169 F 
ENDBRANCH   8  25
BRANCH   1  29
HETATM   29  C   UNL     1     -42.343  54.119 -53.480  1.00  0.00    -0.035 A 
HETATM   30  C   UNL     1     -41.629  53.340 -54.404  1.00  0.00     0.010 A 
HETATM   31  C   UNL     1     -40.597  52.494 -53.993  1.00  0.00     0.007 A 
HETATM   32  C   UNL     1     -40.261  52.390 -52.641  1.00  0.00    -0.062 A 
HETATM   33  C   UNL     1     -39.150  51.488 -52.191  1.00  0.00     0.048 C 
HETATM   34  C   UNL     1     -40.963  53.159 -51.710  1.00  0.00     0.007 A 
HETATM   35  C   UNL     1     -41.992  54.012 -52.124  1.00  0.00     0.010 A 
ENDBRANCH   1  29
TORSDOF 6
ENDMDL
MODEL 3
REMARK VINA RESULT:      -8.7      5.795      9.606
REMARK  6 active torsions:
REMARK  status: ('A' for Active; 'I' for Inactive)
REMARK    1  A    between atoms: C_5  and  C_6 
REMARK    2  A    between atoms: C_11  and  C_12 
REMARK       I    between atoms: C_12  and  N_13 
REMARK    3  A    between atoms: N_13  and  C_14 
REMARK    4  A    between atoms: C_16  and  C_17 
REMARK    5  A    between atoms: C_17  and  O_18 
REMARK    6  A    between atoms: C_25  and  C_26 
ROOT
HETATM    1  C   UNL     1     -40.603  55.661 -54.173  1.00  0.00     0.118 C 
HETATM    2  N   UNL     1     -40.826  56.655 -53.128  1.00  0.00    -0.366 N 
HETATM    3  C   UNL     1     -42.066  57.075 -52.800  1.00  0.00     0.123 A 
HETATM    4  N   UNL     1     -43.160  56.762 -53.556  1.00  0.00    -0.240 N 
HETATM    5  N   UNL     1     -44.304  57.322 -53.116  1.00  0.00    -0.165 NA
HETATM    6  C   UNL     1     -43.934  57.926 -51.962  1.00  0.00     0.148 A 
HETATM    7  C   UNL     1     -42.534  57.816 -51.749  1.00  0.00     0.089 A 
HETATM    8  C   UNL     1     -43.123  55.922 -54.738  1.00  0.00     0.221 C 
HETATM    9  C   UNL     1     -41.682  55.776 -55.265  1.00  0.00     0.066 C 
HETATM   10  H   UNL     1     -40.057  56.758 -52.467  1.00  0.00     0.161 HD
ENDROOT
BRANCH   6  11
HETATM   11  C   UNL     1     -44.902  58.588 -51.069  1.00  0.00     0.276 C 
HETATM   12  N   UNL     1     -44.557  59.898 -50.805  1.00  0.00    -0.322 N 
HETATM   13  H   UNL     1     -43.663  60.175 -51.206  1.00  0.00     0.169 HD
HETATM   14  O   UNL     1     -45.880  57.987 -50.637  1.00  0.00    -0.266 OA
BRANCH  12  15
HETATM   15  C   UNL     1     -45.280  60.854 -50.071  1.00  0.00     0.035 A 
HETATM   16  C   UNL     1     -45.459  60.791 -48.687  1.00  0.00     0.039 A 
HETATM   17  C   UNL     1     -46.218  61.759 -48.001  1.00  0.00    -0.028 A 
HETATM   18  C   UNL     1     -46.776  62.813 -48.734  1.00  0.00     0.010 A 
HETATM   19  C   UNL     1     -46.603  62.886 -50.116  1.00  0.00     0.003 A 
HETATM   20  C   UNL     1     -45.866  61.906 -50.782  1.00  0.00     0.029 A 
BRANCH  17  21
HETATM   21  C   UNL     1     -46.398  61.631 -46.504  1.00  0.00     0.147 C 
HETATM   22  C   UNL     1     -46.278  62.978 -45.802  1.00  0.00     0.044 C 
BRANCH  21  23
HETATM   23  O   UNL     1     -47.669  61.061 -46.194  1.00  0.00    -0.391 OA
HETATM   24  H   UNL     1     -48.294  61.387 -46.862  1.00  0.00     0.210 HD
ENDBRANCH  21  23
ENDBRANCH  17  21
ENDBRANCH  12  15
ENDBRANCH   6  11
BRANCH   8  25
HETATM   25  C   UNL     1     -43.810  54.601 -54.465  1.00  0.00     0.409 C 
HETATM   26  F   UNL     1     -43.503  54.061 -53.273  1.00  0.00    -0.169 F 
HETATM   27  F   UNL     1     -45.158  54.715 -54.522  1.00  0.00    -0.169 F 
HETATM   28  F   UNL     1     -43.472  53.694 -55.418  1.00  0.00    -0.169 F 
ENDBRANCH   8  25
BRANCH   1  29
HETATM   29  C   UNL     1     -40.381  54.264 -53.621  1.00  0.00    -0.035 A 
HETATM   30  C   UNL     1     -40.344  53.978 -52.248  1.00  0.00     0.010 A 
HETATM   31  C   UNL     1     -40.112  52.681 -51.784  1.00  0.00     0.007 A 
HETATM   32  C   UNL     1     -39.895  51.634 -52.683  1.00  0.00    -0.062 A 
HETATM   33  C   UNL     1     -39.651  50.238 -52.195  1.00  0.00     0.048 C 
HETATM   34  C   UNL     1     -39.929  51.904 -54.053  1.00  0.00     0.007 A 
HETATM   35  C   UNL     1     -40.169  53.202 -54.516  1.00  0.00     0.010 A 
ENDBRANCH   1  29
TORSDOF 6
ENDMDL
MODEL 4
REMARK VINA RESULT:      -8.7      6.441      9.725
REMARK  6 active torsions:
REMARK  status: ('A' for Active; 'I' for Inactive)
REMARK    1  A    between atoms: C_5  and  C_6 
REMARK    2  A    between atoms: C_11  and  C_12 
REMARK       I    between atoms: C_12  and  N_13 
REMARK    3  A    between atoms: N_13  and  C_14 
REMARK    4  A    between atoms: C_16  and  C_17 
REMARK    5  A    between atoms: C_17  and  O_18 
REMARK    6  A    between atoms: C_25  and  C_26 
ROOT
HETATM    1  C   UNL     1     -40.869  57.314 -53.857  1.00  0.00     0.118 C 
HETATM    2  N   UNL     1     -41.153  57.905 -52.553  1.00  0.00    -0.366 N 
HETATM    3  C   UNL     1     -42.394  58.310 -52.212  1.00  0.00     0.123 A 
HETATM    4  N   UNL     1     -43.406  58.390 -53.126  1.00  0.00    -0.240 N 
HETATM    5  N   UNL     1     -44.557  58.878 -52.622  1.00  0.00    -0.165 NA
HETATM    6  C   UNL     1     -44.292  59.007 -51.301  1.00  0.00     0.148 A 
HETATM    7  C   UNL     1     -42.938  58.688 -51.014  1.00  0.00     0.089 A 
HETATM    8  C   UNL     1     -43.280  58.010 -54.519  1.00  0.00     0.221 C 
HETATM    9  C   UNL     1     -41.799  57.907 -54.931  1.00  0.00     0.066 C 
HETATM   10  H   UNL     1     -40.464  57.694 -51.831  1.00  0.00     0.161 HD
ENDROOT
BRANCH   6  11
HETATM   11  C   UNL     1     -45.316  59.416 -50.323  1.00  0.00     0.276 C 
HETATM   12  N   UNL     1     -44.922  60.512 -49.582  1.00  0.00    -0.322 N 
HETATM   13  H   UNL     1     -43.971  60.817 -49.776  1.00  0.00     0.169 HD
HETATM   14  O   UNL     1     -46.376  58.806 -50.223  1.00  0.00    -0.266 OA
BRANCH  12  15
HETATM   15  C   UNL     1     -45.666  61.225 -48.627  1.00  0.00     0.035 A 
HETATM   16  C   UNL     1     -46.532  62.273 -48.950  1.00  0.00     0.039 A 
HETATM   17  C   UNL     1     -47.234  62.977 -47.953  1.00  0.00    -0.028 A 
HETATM   18  C   UNL     1     -47.068  62.590 -46.618  1.00  0.00     0.010 A 
HETATM   19  C   UNL     1     -46.206  61.545 -46.285  1.00  0.00     0.003 A 
HETATM   20  C   UNL     1     -45.502  60.873 -47.284  1.00  0.00     0.029 A 
BRANCH  17  21
HETATM   21  C   UNL     1     -48.143  64.118 -48.356  1.00  0.00     0.147 C 
HETATM   22  C   UNL     1     -48.375  64.152 -49.862  1.00  0.00     0.044 C 
BRANCH  21  23
HETATM   23  O   UNL     1     -49.406  64.016 -47.698  1.00  0.00    -0.391 OA
HETATM   24  H   UNL     1     -50.075  63.896 -48.392  1.00  0.00     0.210 HD
ENDBRANCH  21  23
ENDBRANCH  17  21
ENDBRANCH  12  15
ENDBRANCH   6  11
BRANCH   8  25
HETATM   25  C   UNL     1     -44.078  56.753 -54.795  1.00  0.00     0.409 C 
HETATM   26  F   UNL     1     -44.086  55.875 -53.776  1.00  0.00    -0.169 F 
HETATM   27  F   UNL     1     -45.368  57.033 -55.097  1.00  0.00    -0.169 F 
HETATM   28  F   UNL     1     -43.572  56.108 -55.878  1.00  0.00    -0.169 F 
ENDBRANCH   8  25
BRANCH   1  29
HETATM   29  C   UNL     1     -40.805  55.797 -53.817  1.00  0.00    -0.035 A 
HETATM   30  C   UNL     1     -41.094  55.047 -52.666  1.00  0.00     0.010 A 
HETATM   31  C   UNL     1     -40.999  53.653 -52.668  1.00  0.00     0.007 A 
HETATM   32  C   UNL     1     -40.595  52.971 -53.818  1.00  0.00    -0.062 A 
HETATM   33  C   UNL     1     -40.495  51.475 -53.830  1.00  0.00     0.048 C 
HETATM   34  C   UNL     1     -40.304  53.705 -54.970  1.00  0.00     0.007 A 
HETATM   35  C   UNL     1     -40.407  55.100 -54.969  1.00  0.00     0.010 A 
ENDBRANCH   1  29
TORSDOF 6
ENDMDL
MODEL 5
REMARK VINA RESULT:      -8.6      1.210      2.098
REMARK  6 active torsions:
REMARK  status: ('A' for Active; 'I' for Inactive)
REMARK    1  A    between atoms: C_5  and  C_6 
REMARK    2  A    between atoms: C_11  and  C_12 
REMARK       I    between atoms: C_12  and  N_13 
REMARK    3  A    between atoms: N_13  and  C_14 
REMARK    4  A    between atoms: C_16  and  C_17 
REMARK    5  A    between atoms: C_17  and  O_18 
REMARK    6  A    between atoms: C_25  and  C_26 
ROOT
HETATM    1  C   UNL     1     -44.099  59.883 -58.754  1.00  0.00     0.118 C 
HETATM    2  N   UNL     1     -44.281  59.426 -57.379  1.00  0.00    -0.366 N 
HETATM    3  C   UNL     1     -43.950  58.175 -56.998  1.00  0.00     0.123 A 
HETATM    4  N   UNL     1     -43.630  57.202 -57.903  1.00  0.00    -0.240 N 
HETATM    5  N   UNL     1     -43.393  55.997 -57.347  1.00  0.00    -0.165 NA
HETATM    6  C   UNL     1     -43.457  56.247 -56.018  1.00  0.00     0.148 A 
HETATM    7  C   UNL     1     -43.832  57.593 -55.764  1.00  0.00     0.089 A 
HETATM    8  C   UNL     1     -43.560  57.411 -59.336  1.00  0.00     0.221 C 
HETATM    9  C   UNL     1     -44.280  58.713 -59.738  1.00  0.00     0.066 C 
HETATM   10  H   UNL     1     -44.352  60.172 -56.688  1.00  0.00     0.161 HD
ENDROOT
BRANCH   6  11
HETATM   11  C   UNL     1     -43.152  55.222 -55.004  1.00  0.00     0.276 C 
HETATM   12  N   UNL     1     -41.798  54.969 -54.908  1.00  0.00    -0.322 N 
HETATM   13  H   UNL     1     -41.238  55.473 -55.593  1.00  0.00     0.169 HD
HETATM   14  O   UNL     1     -44.045  54.686 -54.356  1.00  0.00    -0.266 OA
BRANCH  12  15
HETATM   15  C   UNL     1     -41.136  54.126 -54.000  1.00  0.00     0.035 A 
HETATM   16  C   UNL     1     -40.971  54.429 -52.645  1.00  0.00     0.039 A 
HETATM   17  C   UNL     1     -40.274  53.564 -51.781  1.00  0.00    -0.028 A 
HETATM   18  C   UNL     1     -39.762  52.368 -52.300  1.00  0.00     0.010 A 
HETATM   19  C   UNL     1     -39.921  52.057 -53.651  1.00  0.00     0.003 A 
HETATM   20  C   UNL     1     -40.596  52.937 -54.497  1.00  0.00     0.029 A 
BRANCH  17  21
HETATM   21  C   UNL     1     -40.107  53.950 -50.327  1.00  0.00     0.147 C 
HETATM   22  C   UNL     1     -41.003  55.122 -49.946  1.00  0.00     0.044 C 
BRANCH  21  23
HETATM   23  O   UNL     1     -40.404  52.846 -49.473  1.00  0.00    -0.391 OA
HETATM   24  H   UNL     1     -41.205  52.424 -49.826  1.00  0.00     0.210 HD
ENDBRANCH  21  23
ENDBRANCH  17  21
ENDBRANCH  12  15
ENDBRANCH   6  11
BRANCH   8  25
HETATM   25  C   UNL     1     -42.124  57.338 -59.808  1.00  0.00     0.409 C 
HETATM   26  F   UNL     1     -41.228  57.774 -58.906  1.00  0.00    -0.169 F 
HETATM   27  F   UNL     1     -41.772  56.076 -60.150  1.00  0.00    -0.169 F 
HETATM   28  F   UNL     1     -41.963  58.087 -60.930  1.00  0.00    -0.169 F 
ENDBRANCH   8  25
BRANCH   1  29
HETATM   29  C   UNL     1     -42.835  60.703 -58.942  1.00  0.00    -0.035 A 
HETATM   30  C   UNL     1     -41.907  60.928 -57.913  1.00  0.00     0.010 A 
HETATM   31  C   UNL     1     -40.769  61.711 -58.124  1.00  0.00     0.007 A 
HETATM   32  C   UNL     1     -40.536  62.304 -59.368  1.00  0.00    -0.062 A 
HETATM   33  C   UNL     1     -39.315  63.140 -59.605  1.00  0.00     0.048 C 
HETATM   34  C   UNL     1     -41.452  62.088 -60.400  1.00  0.00     0.007 A 
HETATM   35  C   UNL     1     -42.587  61.298 -60.189  1.00  0.00     0.010 A 
ENDBRANCH   1  29
TORSDOF 6
ENDMDL
MODEL 6
REMARK VINA RESULT:      -8.4      2.264      3.668
REMARK  6 active torsions:
REMARK  status: ('A' for Active; 'I' for Inactive)
REMARK    1  A    between atoms: C_5  and  C_6 
REMARK    2  A    between atoms: C_11  and  C_12 
REMARK       I    between atoms: C_12  and  N_13 
REMARK    3  A    between atoms: N_13  and  C_14 
REMARK    4  A    between atoms: C_16  and  C_17 
REMARK    5  A    between atoms: C_17  and  O_18 
REMARK    6  A    between atoms: C_25  and  C_26 
ROOT
HETATM    1  C   UNL     1     -43.566  58.428 -60.446  1.00  0.00     0.118 C 
HETATM    2  N   UNL     1     -43.477  57.032 -60.030  1.00  0.00    -0.366 N 
HETATM    3  C   UNL     1     -43.127  56.686 -58.773  1.00  0.00     0.123 A 
HETATM    4  N   UNL     1     -42.634  57.597 -57.883  1.00  0.00    -0.240 N 
HETATM    5  N   UNL     1     -42.274  57.061 -56.699  1.00  0.00    -0.165 NA
HETATM    6  C   UNL     1     -42.665  55.769 -56.808  1.00  0.00     0.148 A 
HETATM    7  C   UNL     1     -43.176  55.493 -58.104  1.00  0.00     0.089 A 
HETATM    8  C   UNL     1     -42.481  59.011 -58.160  1.00  0.00     0.221 C 
HETATM    9  C   UNL     1     -42.544  59.285 -59.676  1.00  0.00     0.066 C 
HETATM   10  H   UNL     1     -43.994  56.379 -60.618  1.00  0.00     0.161 HD
ENDROOT
BRANCH   6  11
HETATM   11  C   UNL     1     -42.564  54.814 -55.690  1.00  0.00     0.276 C 
HETATM   12  N   UNL     1     -41.254  54.490 -55.396  1.00  0.00    -0.322 N 
HETATM   13  H   UNL     1     -40.578  54.902 -56.035  1.00  0.00     0.169 HD
HETATM   14  O   UNL     1     -43.568  54.387 -55.128  1.00  0.00    -0.266 OA
BRANCH  12  15
HETATM   15  C   UNL     1     -40.774  53.687 -54.349  1.00  0.00     0.035 A 
HETATM   16  C   UNL     1     -40.342  52.369 -54.523  1.00  0.00     0.039 A 
HETATM   17  C   UNL     1     -39.896  51.595 -53.434  1.00  0.00    -0.028 A 
HETATM   18  C   UNL     1     -39.868  52.181 -52.163  1.00  0.00     0.010 A 
HETATM   19  C   UNL     1     -40.298  53.495 -51.979  1.00  0.00     0.003 A 
HETATM   20  C   UNL     1     -40.757  54.240 -53.065  1.00  0.00     0.029 A 
BRANCH  17  21
HETATM   21  C   UNL     1     -39.459  50.166 -53.676  1.00  0.00     0.147 C 
HETATM   22  C   UNL     1     -39.624  49.305 -52.429  1.00  0.00     0.044 C 
BRANCH  21  23
HETATM   23  O   UNL     1     -40.206  49.580 -54.741  1.00  0.00    -0.391 OA
HETATM   24  H   UNL     1     -40.523  48.719 -54.422  1.00  0.00     0.210 HD
ENDBRANCH  21  23
ENDBRANCH  17  21
ENDBRANCH  12  15
ENDBRANCH   6  11
BRANCH   8  25
HETATM   25  C   UNL     1     -43.478  59.816 -57.354  1.00  0.00     0.409 C 
HETATM   26  F   UNL     1     -44.642  59.180 -57.131  1.00  0.00    -0.169 F 
HETATM   27  F   UNL     1     -42.976  60.174 -56.148  1.00  0.00    -0.169 F 
HETATM   28  F   UNL     1     -43.770  60.976 -57.996  1.00  0.00    -0.169 F 
ENDBRANCH   8  25
BRANCH   1  29
HETATM   29  C   UNL     1     -44.989  58.956 -60.445  1.00  0.00    -0.035 A 
HETATM   30  C   UNL     1     -46.090  58.192 -60.027  1.00  0.00     0.010 A 
HETATM   31  C   UNL     1     -47.387  58.710 -60.067  1.00  0.00     0.007 A 
HETATM   32  C   UNL     1     -47.621  60.002 -60.542  1.00  0.00    -0.062 A 
HETATM   33  C   UNL     1     -49.009  60.568 -60.584  1.00  0.00     0.048 C 
HETATM   34  C   UNL     1     -46.535  60.773 -60.962  1.00  0.00     0.007 A 
HETATM   35  C   UNL     1     -45.236  60.256 -60.915  1.00  0.00     0.010 A 
ENDBRANCH   1  29
TORSDOF 6
ENDMDL
MODEL 7
REMARK VINA RESULT:      -8.2      5.582      9.719
REMARK  6 active torsions:
REMARK  status: ('A' for Active; 'I' for Inactive)
REMARK    1  A    between atoms: C_5  and  C_6 
REMARK    2  A    between atoms: C_11  and  C_12 
REMARK       I    between atoms: C_12  and  N_13 
REMARK    3  A    between atoms: N_13  and  C_14 
REMARK    4  A    between atoms: C_16  and  C_17 
REMARK    5  A    between atoms: C_17  and  O_18 
REMARK    6  A    between atoms: C_25  and  C_26 
ROOT
HETATM    1  C   UNL     1     -40.649  55.740 -54.172  1.00  0.00     0.118 C 
HETATM    2  N   UNL     1     -40.881  56.744 -53.138  1.00  0.00    -0.366 N 
HETATM    3  C   UNL     1     -42.125  57.158 -52.817  1.00  0.00     0.123 A 
HETATM    4  N   UNL     1     -43.215  56.828 -53.572  1.00  0.00    -0.240 N 
HETATM    5  N   UNL     1     -44.365  57.384 -53.141  1.00  0.00    -0.165 NA
HETATM    6  C   UNL     1     -44.002  58.004 -51.993  1.00  0.00     0.148 A 
HETATM    7  C   UNL     1     -42.602  57.907 -51.775  1.00  0.00     0.089 A 
HETATM    8  C   UNL     1     -43.170  55.977 -54.745  1.00  0.00     0.221 C 
HETATM    9  C   UNL     1     -41.726  55.836 -55.267  1.00  0.00     0.066 C 
HETATM   10  H   UNL     1     -40.114  56.860 -52.477  1.00  0.00     0.161 HD
ENDROOT
BRANCH   6  11
HETATM   11  C   UNL     1     -44.976  58.667 -51.109  1.00  0.00     0.276 C 
HETATM   12  N   UNL     1     -44.694  60.007 -50.933  1.00  0.00    -0.322 N 
HETATM   13  H   UNL     1     -43.829  60.305 -51.379  1.00  0.00     0.169 HD
HETATM   14  O   UNL     1     -45.908  58.044 -50.611  1.00  0.00    -0.266 OA
BRANCH  12  15
HETATM   15  C   UNL     1     -45.445  60.967 -50.234  1.00  0.00     0.035 A 
HETATM   16  C   UNL     1     -46.304  61.877 -50.857  1.00  0.00     0.039 A 
HETATM   17  C   UNL     1     -47.013  62.840 -50.114  1.00  0.00    -0.028 A 
HETATM   18  C   UNL     1     -46.862  62.857 -48.722  1.00  0.00     0.010 A 
HETATM   19  C   UNL     1     -46.007  61.953 -48.092  1.00  0.00     0.003 A 
HETATM   20  C   UNL     1     -45.295  61.020 -48.846  1.00  0.00     0.029 A 
BRANCH  17  21
HETATM   21  C   UNL     1     -47.915  63.815 -50.840  1.00  0.00     0.147 C 
HETATM   22  C   UNL     1     -48.598  63.169 -52.039  1.00  0.00     0.044 C 
BRANCH  21  23
HETATM   23  O   UNL     1     -48.915  64.331 -49.962  1.00  0.00    -0.391 OA
HETATM   24  H   UNL     1     -48.559  65.150 -49.580  1.00  0.00     0.210 HD
ENDBRANCH  21  23
ENDBRANCH  17  21
ENDBRANCH  12  15
ENDBRANCH   6  11
BRANCH   8  25
HETATM   25  C   UNL     1     -43.847  54.653 -54.460  1.00  0.00     0.409 C 
HETATM   26  F   UNL     1     -45.189  54.705 -54.503  1.00  0.00    -0.169 F 
HETATM   27  F   UNL     1     -43.452  53.690 -55.326  1.00  0.00    -0.169 F 
HETATM   28  F   UNL     1     -43.501  54.209 -53.223  1.00  0.00    -0.169 F 
ENDBRANCH   8  25
BRANCH   1  29
HETATM   29  C   UNL     1     -40.418  54.351 -53.605  1.00  0.00    -0.035 A 
HETATM   30  C   UNL     1     -40.394  54.078 -52.228  1.00  0.00     0.010 A 
HETATM   31  C   UNL     1     -40.153  52.788 -51.750  1.00  0.00     0.007 A 
HETATM   32  C   UNL     1     -39.912  51.736 -52.637  1.00  0.00    -0.062 A 
HETATM   33  C   UNL     1     -39.658  50.347 -52.133  1.00  0.00     0.048 C 
HETATM   34  C   UNL     1     -39.933  51.993 -54.010  1.00  0.00     0.007 A 
HETATM   35  C   UNL     1     -40.182  53.284 -54.488  1.00  0.00     0.010 A 
ENDBRANCH   1  29
TORSDOF 6
ENDMDL
MODEL 8
REMARK VINA RESULT:      -8.1      3.613      9.234
REMARK  6 active torsions:
REMARK  status: ('A' for Active; 'I' for Inactive)
REMARK    1  A    between atoms: C_5  and  C_6 
REMARK    2  A    between atoms: C_11  and  C_12 
REMARK       I    between atoms: C_12  and  N_13 
REMARK    3  A    between atoms: N_13  and  C_14 
REMARK    4  A    between atoms: C_16  and  C_17 
REMARK    5  A    between atoms: C_17  and  O_18 
REMARK    6  A    between atoms: C_25  and  C_26 
ROOT
HETATM    1  C   UNL     1     -43.598  55.225 -52.725  1.00  0.00     0.118 C 
HETATM    2  N   UNL     1     -44.120  55.788 -53.966  1.00  0.00    -0.366 N 
HETATM    3  C   UNL     1     -43.766  57.018 -54.392  1.00  0.00     0.123 A 
HETATM    4  N   UNL     1     -43.075  57.889 -53.597  1.00  0.00    -0.240 N 
HETATM    5  N   UNL     1     -42.868  59.095 -54.162  1.00  0.00    -0.165 NA
HETATM    6  C   UNL     1     -43.352  58.941 -55.417  1.00  0.00     0.148 A 
HETATM    7  C   UNL     1     -43.948  57.663 -55.586  1.00  0.00     0.089 A 
HETATM    8  C   UNL     1     -42.611  57.580 -52.259  1.00  0.00     0.221 C 
HETATM    9  C   UNL     1     -43.334  56.340 -51.697  1.00  0.00     0.066 C 
HETATM   10  H   UNL     1     -44.484  55.100 -54.625  1.00  0.00     0.161 HD
ENDROOT
BRANCH   6  11
HETATM   11  C   UNL     1     -43.238  59.991 -56.444  1.00  0.00     0.276 C 
HETATM   12  N   UNL     1     -42.132  59.813 -57.252  1.00  0.00    -0.322 N 
HETATM   13  H   UNL     1     -41.540  59.035 -56.969  1.00  0.00     0.169 HD
HETATM   14  O   UNL     1     -44.060  60.898 -56.518  1.00  0.00    -0.266 OA
BRANCH  12  15
HETATM   15  C   UNL     1     -41.753  60.560 -58.380  1.00  0.00     0.035 A 
HETATM   16  C   UNL     1     -42.228  60.304 -59.669  1.00  0.00     0.039 A 
HETATM   17  C   UNL     1     -41.794  61.064 -60.773  1.00  0.00    -0.028 A 
HETATM   18  C   UNL     1     -40.888  62.108 -60.552  1.00  0.00     0.010 A 
HETATM   19  C   UNL     1     -40.408  62.370 -59.270  1.00  0.00     0.003 A 
HETATM   20  C   UNL     1     -40.832  61.594 -58.191  1.00  0.00     0.029 A 
BRANCH  17  21
HETATM   21  C   UNL     1     -42.325  60.732 -62.151  1.00  0.00     0.147 C 
HETATM   22  C   UNL     1     -43.816  61.025 -62.269  1.00  0.00     0.044 C 
BRANCH  21  23
HETATM   23  O   UNL     1     -41.629  61.472 -63.154  1.00  0.00    -0.391 OA
HETATM   24  H   UNL     1     -41.849  61.065 -64.007  1.00  0.00     0.210 HD
ENDBRANCH  21  23
ENDBRANCH  17  21
ENDBRANCH  12  15
ENDBRANCH   6  11
BRANCH   8  25
HETATM   25  C   UNL     1     -41.101  57.467 -52.239  1.00  0.00     0.409 C 
HETATM   26  F   UNL     1     -40.582  56.891 -53.337  1.00  0.00    -0.169 F 
HETATM   27  F   UNL     1     -40.509  58.676 -52.099  1.00  0.00    -0.169 F 
HETATM   28  F   UNL     1     -40.703  56.729 -51.170  1.00  0.00    -0.169 F 
ENDBRANCH   8  25
BRANCH   1  29
HETATM   29  C   UNL     1     -42.445  54.262 -52.951  1.00  0.00    -0.035 A 
HETATM   30  C   UNL     1     -42.081  53.787 -54.221  1.00  0.00     0.010 A 
HETATM   31  C   UNL     1     -41.028  52.882 -54.380  1.00  0.00     0.007 A 
HETATM   32  C   UNL     1     -40.320  52.415 -53.270  1.00  0.00    -0.062 A 
HETATM   33  C   UNL     1     -39.186  51.448 -53.432  1.00  0.00     0.048 C 
HETATM   34  C   UNL     1     -40.673  52.879 -52.001  1.00  0.00     0.007 A 
HETATM   35  C   UNL     1     -41.722  53.791 -51.844  1.00  0.00     0.010 A 
ENDBRANCH   1  29
TORSDOF 6
ENDMDL
MODEL 9
REMARK VINA RESULT:      -8.1      3.593      9.427
REMARK  6 active torsions:
REMARK  status: ('A' for Active; 'I' for Inactive)
REMARK    1  A    between atoms: C_5  and  C_6 
REMARK    2  A    between atoms: C_11  and  C_12 
REMARK       I    between atoms: C_12  and  N_13 
REMARK    3  A    between atoms: N_13  and  C_14 
REMARK    4  A    between atoms: C_16  and  C_17 
REMARK    5  A    between atoms: C_17  and  O_18 
REMARK    6  A    between atoms: C_25  and  C_26 
ROOT
HETATM    1  C   UNL     1     -43.553  55.089 -52.714  1.00  0.00     0.118 C 
HETATM    2  N   UNL     1     -44.051  55.655 -53.964  1.00  0.00    -0.366 N 
HETATM    3  C   UNL     1     -43.699  56.891 -54.374  1.00  0.00     0.123 A 
HETATM    4  N   UNL     1     -43.036  57.763 -53.558  1.00  0.00    -0.240 N 
HETATM    5  N   UNL     1     -42.826  58.975 -54.111  1.00  0.00    -0.165 NA
HETATM    6  C   UNL     1     -43.280  58.823 -55.378  1.00  0.00     0.148 A 
HETATM    7  C   UNL     1     -43.859  57.541 -55.569  1.00  0.00     0.089 A 
HETATM    8  C   UNL     1     -42.600  57.451 -52.211  1.00  0.00     0.221 C 
HETATM    9  C   UNL     1     -43.324  56.201 -51.674  1.00  0.00     0.066 C 
HETATM   10  H   UNL     1     -44.393  54.968 -54.636  1.00  0.00     0.161 HD
ENDROOT
BRANCH   6  11
HETATM   11  C   UNL     1     -43.151  59.881 -56.396  1.00  0.00     0.276 C 
HETATM   12  N   UNL     1     -42.127  59.626 -57.287  1.00  0.00    -0.322 N 
HETATM   13  H   UNL     1     -41.585  58.795 -57.060  1.00  0.00     0.169 HD
HETATM   14  O   UNL     1     -43.895  60.856 -56.396  1.00  0.00    -0.266 OA
BRANCH  12  15
HETATM   15  C   UNL     1     -41.769  60.361 -58.430  1.00  0.00     0.035 A 
HETATM   16  C   UNL     1     -40.943  61.488 -58.394  1.00  0.00     0.039 A 
HETATM   17  C   UNL     1     -40.636  62.208 -59.565  1.00  0.00    -0.028 A 
HETATM   18  C   UNL     1     -41.158  61.757 -60.784  1.00  0.00     0.010 A 
HETATM   19  C   UNL     1     -41.983  60.634 -60.829  1.00  0.00     0.003 A 
HETATM   20  C   UNL     1     -42.294  59.945 -59.656  1.00  0.00     0.029 A 
BRANCH  17  21
HETATM   21  C   UNL     1     -39.753  63.433 -59.468  1.00  0.00     0.147 C 
HETATM   22  C   UNL     1     -39.057  63.735 -60.789  1.00  0.00     0.044 C 
BRANCH  21  23
HETATM   23  O   UNL     1     -40.514  64.576 -59.076  1.00  0.00    -0.391 OA
HETATM   24  H   UNL     1     -40.977  64.338 -58.256  1.00  0.00     0.210 HD
ENDBRANCH  21  23
ENDBRANCH  17  21
ENDBRANCH  12  15
ENDBRANCH   6  11
BRANCH   8  25
HETATM   25  C   UNL     1     -41.091  57.352 -52.156  1.00  0.00     0.409 C 
HETATM   26  F   UNL     1     -40.468  58.539 -52.050  1.00  0.00    -0.169 F 
HETATM   27  F   UNL     1     -40.675  56.583 -51.122  1.00  0.00    -0.169 F 
HETATM   28  F   UNL     1     -40.622  56.751 -53.281  1.00  0.00    -0.169 F 
ENDBRANCH   8  25
BRANCH   1  29
HETATM   29  C   UNL     1     -42.386  54.139 -52.919  1.00  0.00    -0.035 A 
HETATM   30  C   UNL     1     -42.003  53.655 -54.179  1.00  0.00     0.010 A 
HETATM   31  C   UNL     1     -40.938  52.762 -54.318  1.00  0.00     0.007 A 
HETATM   32  C   UNL     1     -40.236  52.315 -53.196  1.00  0.00    -0.062 A 
HETATM   33  C   UNL     1     -39.088  51.361 -53.337  1.00  0.00     0.048 C 
HETATM   34  C   UNL     1     -40.607  52.788 -51.936  1.00  0.00     0.007 A 
HETATM   35  C   UNL     1     -41.669  53.689 -51.799  1.00  0.00     0.010 A 
ENDBRANCH   1  29
TORSDOF 6
ENDMDL
MODEL 10
REMARK VINA RESULT:      -8.0      2.624      4.285
REMARK  6 active torsions:
REMARK  status: ('A' for Active; 'I' for Inactive)
REMARK    1  A    between atoms: C_5  and  C_6 
REMARK    2  A    between atoms: C_11  and  C_12 
REMARK       I    between atoms: C_12  and  N_13 
REMARK    3  A    between atoms: N_13  and  C_14 
REMARK    4  A    between atoms: C_16  and  C_17 
REMARK    5  A    between atoms: C_17  and  O_18 
REMARK    6  A    between atoms: C_25  and  C_26 
ROOT
HETATM    1  C   UNL     1     -43.229  57.325 -60.088  1.00  0.00     0.118 C 
HETATM    2  N   UNL     1     -43.273  56.068 -59.348  1.00  0.00    -0.366 N 
HETATM    3  C   UNL     1     -42.933  55.999 -58.044  1.00  0.00     0.123 A 
HETATM    4  N   UNL     1     -42.330  57.040 -57.397  1.00  0.00    -0.240 N 
HETATM    5  N   UNL     1     -42.001  56.769 -56.118  1.00  0.00    -0.165 NA
HETATM    6  C   UNL     1     -42.523  55.537 -55.914  1.00  0.00     0.148 A 
HETATM    7  C   UNL     1     -43.088  55.012 -57.107  1.00  0.00     0.089 A 
HETATM    8  C   UNL     1     -42.041  58.323 -58.006  1.00  0.00     0.221 C 
HETATM    9  C   UNL     1     -42.109  58.230 -59.543  1.00  0.00     0.066 C 
HETATM   10  H   UNL     1     -43.867  55.350 -59.763  1.00  0.00     0.161 HD
ENDROOT
BRANCH   6  11
HETATM   11  C   UNL     1     -42.496  54.873 -54.599  1.00  0.00     0.276 C 
HETATM   12  N   UNL     1     -41.243  54.384 -54.287  1.00  0.00    -0.322 N 
HETATM   13  H   UNL     1     -40.562  54.497 -55.034  1.00  0.00     0.169 HD
HETATM   14  O   UNL     1     -43.507  54.789 -53.909  1.00  0.00    -0.266 OA
BRANCH  12  15
HETATM   15  C   UNL     1     -40.822  53.775 -53.092  1.00  0.00     0.035 A 
HETATM   16  C   UNL     1     -40.884  54.401 -51.844  1.00  0.00     0.039 A 
HETATM   17  C   UNL     1     -40.423  53.759 -50.679  1.00  0.00    -0.028 A 
HETATM   18  C   UNL     1     -39.918  52.458 -50.787  1.00  0.00     0.010 A 
HETATM   19  C   UNL     1     -39.851  51.825 -52.029  1.00  0.00     0.003 A 
HETATM   20  C   UNL     1     -40.293  52.485 -53.176  1.00  0.00     0.029 A 
BRANCH  17  21
HETATM   21  C   UNL     1     -40.495  54.490 -49.355  1.00  0.00     0.147 C 
HETATM   22  C   UNL     1     -41.267  55.799 -49.473  1.00  0.00     0.044 C 
BRANCH  21  23
HETATM   23  O   UNL     1     -41.115  53.677 -48.360  1.00  0.00    -0.391 OA
HETATM   24  H   UNL     1     -40.540  53.701 -47.578  1.00  0.00     0.210 HD
ENDBRANCH  21  23
ENDBRANCH  17  21
ENDBRANCH  12  15
ENDBRANCH   6  11
BRANCH   8  25
HETATM   25  C   UNL     1     -42.933  59.396 -57.420  1.00  0.00     0.409 C 
HETATM   26  F   UNL     1     -42.514  59.868 -56.233  1.00  0.00    -0.169 F 
HETATM   27  F   UNL     1     -43.059  60.455 -58.255  1.00  0.00    -0.169 F 
HETATM   28  F   UNL     1     -44.189  58.911 -57.240  1.00  0.00    -0.169 F 
ENDBRANCH   8  25
BRANCH   1  29
HETATM   29  C   UNL     1     -44.591  57.982 -60.219  1.00  0.00    -0.035 A 
HETATM   30  C   UNL     1     -45.789  57.342 -59.863  1.00  0.00     0.010 A 
HETATM   31  C   UNL     1     -47.024  57.976 -60.024  1.00  0.00     0.007 A 
HETATM   32  C   UNL     1     -47.095  59.264 -60.562  1.00  0.00    -0.062 A 
HETATM   33  C   UNL     1     -48.416  59.953 -60.733  1.00  0.00     0.048 C 
HETATM   34  C   UNL     1     -45.911  59.911 -60.921  1.00  0.00     0.007 A 
HETATM   35  C   UNL     1     -44.675  59.279 -60.752  1.00  0.00     0.010 A 
ENDBRANCH   1  29
TORSDOF 6
ENDMDL
