MODEL 1
REMARK VINA RESULT:      -9.0      0.000      0.000
REMARK  4 active torsions:
REMARK  status: ('A' for Active; 'I' for Inactive)
REMARK    1  A    between atoms: C_4  and  C_5 
REMARK    2  A    between atoms: C_5  and  N_6 
REMARK    3  A    between atoms: C_9  and  C_10 
REMARK    4  A    between atoms: C_22  and  C_23 
ROOT
HETATM    1  N   UNL     1     -44.103  57.481 -52.617  1.00  0.00    -0.314 N 
HETATM    2  N   UNL     1     -43.307  56.395 -52.302  1.00  0.00    -0.203 NA
HETATM    3  C   UNL     1     -42.612  56.008 -53.449  1.00  0.00     0.041 C 
HETATM    4  C   UNL     1     -41.607  55.134 -53.605  1.00  0.00     0.044 C 
HETATM    5  C   UNL     1     -43.194  56.812 -54.554  1.00  0.00     0.015 C 
HETATM    6  C   UNL     1     -44.078  57.661 -53.986  1.00  0.00     0.119 C 
HETATM    7  H   UNL     1     -42.749  56.487 -51.447  1.00  0.00     0.153 HD
ENDROOT
BRANCH   4   8
HETATM    8  C   UNL     1     -41.005  54.290 -52.604  1.00  0.00     0.046 A 
HETATM    9  C   UNL     1     -40.734  54.644 -51.196  1.00  0.00     0.257 A 
HETATM   10  O   UNL     1     -40.831  55.656 -50.546  1.00  0.00    -0.267 OA
HETATM   11  N   UNL     1     -40.131  53.426 -50.519  1.00  0.00    -0.322 N 
HETATM   12  C   UNL     1     -40.037  52.548 -51.439  1.00  0.00     0.046 A 
HETATM   13  H   UNL     1     -39.855  53.395 -49.546  1.00  0.00     0.169 HD
HETATM   14  C   UNL     1     -40.552  53.030 -52.749  1.00  0.00     0.008 A 
HETATM   15  C   UNL     1     -39.494  51.186 -51.336  1.00  0.00     0.032 A 
HETATM   16  C   UNL     1     -40.506  52.145 -53.882  1.00  0.00     0.038 A 
HETATM   17  C   UNL     1     -39.992  50.911 -53.733  1.00  0.00     0.035 A 
HETATM   18  C   UNL     1     -39.489  50.437 -52.453  1.00  0.00     0.026 A 
HETATM   19 CL   UNL     1     -39.910  49.833 -55.075  1.00  0.00    -0.084 Cl
ENDBRANCH   4   8
BRANCH   5  20
HETATM   20  C   UNL     1     -42.972  56.730 -55.994  1.00  0.00    -0.005 A 
HETATM   21  C   UNL     1     -42.492  57.824 -56.709  1.00  0.00     0.128 A 
HETATM   22  N   UNL     1     -42.291  57.833 -58.048  1.00  0.00    -0.272 NA
HETATM   23  C   UNL     1     -42.544  56.681 -58.705  1.00  0.00     0.116 A 
HETATM   24  C   UNL     1     -43.004  55.530 -58.088  1.00  0.00     0.020 A 
HETATM   25  C   UNL     1     -43.226  55.559 -56.712  1.00  0.00     0.015 A 
ENDBRANCH   5  20
BRANCH   1  26
HETATM   26  C   UNL     1     -45.135  57.962 -51.703  1.00  0.00     0.181 C 
BRANCH  26  27
HETATM   27  C   UNL     1     -44.683  59.220 -50.994  1.00  0.00    -0.039 A 
HETATM   28  C   UNL     1     -45.560  59.911 -50.141  1.00  0.00     0.009 A 
HETATM   29  C   UNL     1     -45.135  61.047 -49.452  1.00  0.00     0.001 A 
HETATM   30  C   UNL     1     -43.827  61.503 -49.601  1.00  0.00     0.000 A 
HETATM   31  C   UNL     1     -42.945  60.825 -50.442  1.00  0.00     0.001 A 
HETATM   32  C   UNL     1     -43.370  59.689 -51.134  1.00  0.00     0.009 A 
ENDBRANCH  26  27
ENDBRANCH   1  26
TORSDOF 4
ENDMDL
MODEL 2
REMARK VINA RESULT:      -8.6      2.576      6.330
REMARK  4 active torsions:
REMARK  status: ('A' for Active; 'I' for Inactive)
REMARK    1  A    between atoms: C_4  and  C_5 
REMARK    2  A    between atoms: C_5  and  N_6 
REMARK    3  A    between atoms: C_9  and  C_10 
REMARK    4  A    between atoms: C_22  and  C_23 
ROOT
HETATM    1  N   UNL     1     -44.236  57.944 -56.099  1.00  0.00    -0.314 N 
HETATM    2  N   UNL     1     -43.479  56.918 -55.562  1.00  0.00    -0.203 NA
HETATM    3  C   UNL     1     -43.655  56.916 -54.178  1.00  0.00     0.041 C 
HETATM    4  C   UNL     1     -43.276  56.021 -53.253  1.00  0.00     0.044 C 
HETATM    5  C   UNL     1     -44.422  58.151 -53.875  1.00  0.00     0.015 C 
HETATM    6  C   UNL     1     -44.727  58.715 -55.064  1.00  0.00     0.119 C 
HETATM    7  H   UNL     1     -43.567  56.010 -56.030  1.00  0.00     0.153 HD
ENDROOT
BRANCH   4   8
HETATM    8  C   UNL     1     -42.505  54.820 -53.449  1.00  0.00     0.046 A 
HETATM    9  C   UNL     1     -42.535  53.933 -54.629  1.00  0.00     0.257 A 
HETATM   10  O   UNL     1     -43.199  53.887 -55.635  1.00  0.00    -0.267 OA
HETATM   11  N   UNL     1     -41.527  52.820 -54.399  1.00  0.00    -0.322 N 
HETATM   12  C   UNL     1     -41.052  53.038 -53.236  1.00  0.00     0.046 A 
HETATM   13  H   UNL     1     -41.343  52.075 -55.059  1.00  0.00     0.169 HD
HETATM   14  C   UNL     1     -41.627  54.254 -52.598  1.00  0.00     0.008 A 
HETATM   15  C   UNL     1     -40.053  52.247 -52.504  1.00  0.00     0.032 A 
HETATM   16  C   UNL     1     -41.186  54.621 -51.280  1.00  0.00     0.038 A 
HETATM   17  C   UNL     1     -40.275  53.857 -50.653  1.00  0.00     0.035 A 
HETATM   18  C   UNL     1     -39.710  52.669 -51.275  1.00  0.00     0.026 A 
HETATM   19 CL   UNL     1     -39.737  54.264 -49.067  1.00  0.00    -0.084 Cl
ENDBRANCH   4   8
BRANCH   5  20
HETATM   20  C   UNL     1     -44.767  58.752 -52.590  1.00  0.00    -0.005 A 
HETATM   21  C   UNL     1     -45.515  58.051 -51.648  1.00  0.00     0.128 A 
HETATM   22  N   UNL     1     -45.899  58.552 -50.451  1.00  0.00    -0.272 NA
HETATM   23  C   UNL     1     -45.483  59.803 -50.158  1.00  0.00     0.116 A 
HETATM   24  C   UNL     1     -44.719  60.579 -51.014  1.00  0.00     0.020 A 
HETATM   25  C   UNL     1     -44.361  60.045 -52.250  1.00  0.00     0.015 A 
ENDBRANCH   5  20
BRANCH   1  26
HETATM   26  C   UNL     1     -44.074  58.367 -57.487  1.00  0.00     0.181 C 
BRANCH  26  27
HETATM   27  C   UNL     1     -44.525  57.279 -58.438  1.00  0.00    -0.039 A 
HETATM   28  C   UNL     1     -45.818  57.304 -58.987  1.00  0.00     0.009 A 
HETATM   29  C   UNL     1     -46.224  56.328 -59.896  1.00  0.00     0.001 A 
HETATM   30  C   UNL     1     -45.341  55.318 -60.274  1.00  0.00     0.000 A 
HETATM   31  C   UNL     1     -44.054  55.283 -59.740  1.00  0.00     0.001 A 
HETATM   32  C   UNL     1     -43.647  56.259 -58.827  1.00  0.00     0.009 A 
ENDBRANCH  26  27
ENDBRANCH   1  26
TORSDOF 4
ENDMDL
MODEL 3
REMARK VINA RESULT:      -8.5      2.253      5.929
REMARK  4 active torsions:
REMARK  status: ('A' for Active; 'I' for Inactive)
REMARK    1  A    between atoms: C_4  and  C_5 
REMARK    2  A    between atoms: C_5  and  N_6 
REMARK    3  A    between atoms: C_9  and  C_10 
REMARK    4  A    between atoms: C_22  and  C_23 
ROOT
HETATM    1  N   UNL     1     -43.898  56.478 -52.303  1.00  0.00    -0.314 N 
HETATM    2  N   UNL     1     -43.518  56.999 -53.527  1.00  0.00    -0.203 NA
HETATM    3  C   UNL     1     -42.697  56.070 -54.167  1.00  0.00     0.041 C 
HETATM    4  C   UNL     1     -42.229  56.043 -55.424  1.00  0.00     0.044 C 
HETATM    5  C   UNL     1     -42.430  55.015 -53.157  1.00  0.00     0.015 C 
HETATM    6  C   UNL     1     -43.171  55.327 -52.072  1.00  0.00     0.119 C 
HETATM    7  H   UNL     1     -44.273  57.399 -54.093  1.00  0.00     0.153 HD
ENDROOT
BRANCH   4   8
HETATM    8  C   UNL     1     -42.406  57.032 -56.456  1.00  0.00     0.046 A 
HETATM    9  C   UNL     1     -42.080  58.470 -56.367  1.00  0.00     0.257 A 
HETATM   10  O   UNL     1     -41.700  59.197 -55.483  1.00  0.00    -0.267 OA
HETATM   11  N   UNL     1     -42.401  59.102 -57.710  1.00  0.00    -0.322 N 
HETATM   12  C   UNL     1     -42.883  58.156 -58.416  1.00  0.00     0.046 A 
HETATM   13  H   UNL     1     -42.266  60.082 -57.923  1.00  0.00     0.169 HD
HETATM   14  C   UNL     1     -42.919  56.858 -57.690  1.00  0.00     0.008 A 
HETATM   15  C   UNL     1     -43.382  58.221 -59.797  1.00  0.00     0.032 A 
HETATM   16  C   UNL     1     -43.442  55.699 -58.362  1.00  0.00     0.038 A 
HETATM   17  C   UNL     1     -43.893  55.818 -59.624  1.00  0.00     0.035 A 
HETATM   18  C   UNL     1     -43.857  57.086 -60.337  1.00  0.00     0.026 A 
HETATM   19 CL   UNL     1     -44.538  54.451 -60.451  1.00  0.00    -0.084 Cl
ENDBRANCH   4   8
BRANCH   5  20
HETATM   20  C   UNL     1     -41.519  53.875 -53.206  1.00  0.00    -0.005 A 
HETATM   21  C   UNL     1     -40.709  53.557 -52.118  1.00  0.00     0.128 A 
HETATM   22  N   UNL     1     -39.820  52.537 -52.101  1.00  0.00    -0.272 NA
HETATM   23  C   UNL     1     -39.761  51.768 -53.209  1.00  0.00     0.116 A 
HETATM   24  C   UNL     1     -40.535  51.984 -54.337  1.00  0.00     0.020 A 
HETATM   25  C   UNL     1     -41.423  53.058 -54.334  1.00  0.00     0.015 A 
ENDBRANCH   5  20
BRANCH   1  26
HETATM   26  C   UNL     1     -44.551  57.302 -51.291  1.00  0.00     0.181 C 
BRANCH  26  27
HETATM   27  C   UNL     1     -43.845  58.633 -51.142  1.00  0.00    -0.039 A 
HETATM   28  C   UNL     1     -44.577  59.832 -51.150  1.00  0.00     0.009 A 
HETATM   29  C   UNL     1     -43.935  61.058 -50.970  1.00  0.00     0.001 A 
HETATM   30  C   UNL     1     -42.556  61.100 -50.773  1.00  0.00     0.000 A 
HETATM   31  C   UNL     1     -41.819  59.917 -50.759  1.00  0.00     0.001 A 
HETATM   32  C   UNL     1     -42.459  58.690 -50.942  1.00  0.00     0.009 A 
ENDBRANCH  26  27
ENDBRANCH   1  26
TORSDOF 4
ENDMDL
MODEL 4
REMARK VINA RESULT:      -8.4      2.670      7.562
REMARK  4 active torsions:
REMARK  status: ('A' for Active; 'I' for Inactive)
REMARK    1  A    between atoms: C_4  and  C_5 
REMARK    2  A    between atoms: C_5  and  N_6 
REMARK    3  A    between atoms: C_9  and  C_10 
REMARK    4  A    between atoms: C_22  and  C_23 
ROOT
HETATM    1  N   UNL     1     -41.269  55.428 -51.450  1.00  0.00    -0.314 N 
HETATM    2  N   UNL     1     -41.796  55.442 -52.728  1.00  0.00    -0.203 NA
HETATM    3  C   UNL     1     -42.296  56.719 -52.988  1.00  0.00     0.041 C 
HETATM    4  C   UNL     1     -42.737  57.266 -54.130  1.00  0.00     0.044 C 
HETATM    5  C   UNL     1     -42.222  57.442 -51.692  1.00  0.00     0.015 C 
HETATM    6  C   UNL     1     -41.607  56.611 -50.823  1.00  0.00     0.119 C 
HETATM    7  H   UNL     1     -41.202  55.034 -53.457  1.00  0.00     0.153 HD
ENDROOT
BRANCH   4   8
HETATM    8  C   UNL     1     -42.876  56.635 -55.417  1.00  0.00     0.046 A 
HETATM    9  C   UNL     1     -43.235  55.226 -55.677  1.00  0.00     0.257 A 
HETATM   10  O   UNL     1     -43.410  54.256 -54.980  1.00  0.00    -0.267 OA
HETATM   11  N   UNL     1     -43.298  55.032 -57.181  1.00  0.00    -0.322 N 
HETATM   12  C   UNL     1     -42.970  56.161 -57.675  1.00  0.00     0.046 A 
HETATM   13  H   UNL     1     -43.529  54.156 -57.633  1.00  0.00     0.169 HD
HETATM   14  C   UNL     1     -42.689  57.185 -56.632  1.00  0.00     0.008 A 
HETATM   15  C   UNL     1     -42.844  56.526 -59.093  1.00  0.00     0.032 A 
HETATM   16  C   UNL     1     -42.302  58.508 -57.044  1.00  0.00     0.038 A 
HETATM   17  C   UNL     1     -42.195  58.785 -58.355  1.00  0.00     0.035 A 
HETATM   18  C   UNL     1     -42.471  57.786 -59.377  1.00  0.00     0.026 A 
HETATM   19 CL   UNL     1     -41.720  60.356 -58.878  1.00  0.00    -0.084 Cl
ENDBRANCH   4   8
BRANCH   5  20
HETATM   20  C   UNL     1     -42.740  58.755 -51.318  1.00  0.00    -0.005 A 
HETATM   21  C   UNL     1     -44.108  59.016 -51.328  1.00  0.00     0.128 A 
HETATM   22  N   UNL     1     -44.659  60.214 -51.024  1.00  0.00    -0.272 NA
HETATM   23  C   UNL     1     -43.808  61.194 -50.652  1.00  0.00     0.116 A 
HETATM   24  C   UNL     1     -42.433  61.035 -50.590  1.00  0.00     0.020 A 
HETATM   25  C   UNL     1     -41.893  59.797 -50.933  1.00  0.00     0.015 A 
ENDBRANCH   5  20
BRANCH   1  26
HETATM   26  C   UNL     1     -40.897  54.180 -50.791  1.00  0.00     0.181 C 
BRANCH  26  27
HETATM   27  C   UNL     1     -40.437  53.153 -51.803  1.00  0.00    -0.039 A 
HETATM   28  C   UNL     1     -39.864  51.942 -51.378  1.00  0.00     0.009 A 
HETATM   29  C   UNL     1     -39.477  50.974 -52.305  1.00  0.00     0.001 A 
HETATM   30  C   UNL     1     -39.665  51.201 -53.667  1.00  0.00     0.000 A 
HETATM   31  C   UNL     1     -40.236  52.395 -54.102  1.00  0.00     0.001 A 
HETATM   32  C   UNL     1     -40.621  53.367 -53.175  1.00  0.00     0.009 A 
ENDBRANCH  26  27
ENDBRANCH   1  26
TORSDOF 4
ENDMDL
MODEL 5
REMARK VINA RESULT:      -8.4      2.844      7.402
REMARK  4 active torsions:
REMARK  status: ('A' for Active; 'I' for Inactive)
REMARK    1  A    between atoms: C_4  and  C_5 
REMARK    2  A    between atoms: C_5  and  N_6 
REMARK    3  A    between atoms: C_9  and  C_10 
REMARK    4  A    between atoms: C_22  and  C_23 
ROOT
HETATM    1  N   UNL     1     -42.661  56.319 -55.228  1.00  0.00    -0.314 N 
HETATM    2  N   UNL     1     -42.486  57.118 -54.113  1.00  0.00    -0.203 NA
HETATM    3  C   UNL     1     -41.649  56.452 -53.218  1.00  0.00     0.041 C 
HETATM    4  C   UNL     1     -41.057  56.883 -52.094  1.00  0.00     0.044 C 
HETATM    5  C   UNL     1     -41.480  55.086 -53.776  1.00  0.00     0.015 C 
HETATM    6  C   UNL     1     -42.114  55.078 -54.968  1.00  0.00     0.119 C 
HETATM    7  H   UNL     1     -42.256  58.099 -54.301  1.00  0.00     0.153 HD
ENDROOT
BRANCH   4   8
HETATM    8  C   UNL     1     -41.189  58.171 -51.462  1.00  0.00     0.046 A 
HETATM    9  C   UNL     1     -40.092  59.044 -50.999  1.00  0.00     0.257 A 
HETATM   10  O   UNL     1     -38.893  58.929 -50.926  1.00  0.00    -0.267 OA
HETATM   11  N   UNL     1     -40.713  60.311 -50.437  1.00  0.00    -0.322 N 
HETATM   12  C   UNL     1     -41.973  60.133 -50.532  1.00  0.00     0.046 A 
HETATM   13  H   UNL     1     -40.183  61.083 -50.055  1.00  0.00     0.169 HD
HETATM   14  C   UNL     1     -42.324  58.825 -51.148  1.00  0.00     0.008 A 
HETATM   15  C   UNL     1     -43.048  61.041 -50.110  1.00  0.00     0.032 A 
HETATM   16  C   UNL     1     -43.712  58.485 -51.314  1.00  0.00     0.038 A 
HETATM   17  C   UNL     1     -44.655  59.351 -50.903  1.00  0.00     0.035 A 
HETATM   18  C   UNL     1     -44.314  60.631 -50.302  1.00  0.00     0.026 A 
HETATM   19 CL   UNL     1     -46.326  58.966 -51.077  1.00  0.00    -0.084 Cl
ENDBRANCH   4   8
BRANCH   5  20
HETATM   20  C   UNL     1     -40.839  53.908 -53.201  1.00  0.00    -0.005 A 
HETATM   21  C   UNL     1     -40.712  53.762 -51.821  1.00  0.00     0.128 A 
HETATM   22  N   UNL     1     -40.103  52.715 -51.217  1.00  0.00    -0.272 NA
HETATM   23  C   UNL     1     -39.630  51.742 -52.025  1.00  0.00     0.116 A 
HETATM   24  C   UNL     1     -39.722  51.778 -53.406  1.00  0.00     0.020 A 
HETATM   25  C   UNL     1     -40.332  52.882 -54.001  1.00  0.00     0.015 A 
ENDBRANCH   5  20
BRANCH   1  26
HETATM   26  C   UNL     1     -43.677  56.620 -56.232  1.00  0.00     0.181 C 
BRANCH  26  27
HETATM   27  C   UNL     1     -43.043  56.852 -57.588  1.00  0.00    -0.039 A 
HETATM   28  C   UNL     1     -43.127  55.870 -58.590  1.00  0.00     0.009 A 
HETATM   29  C   UNL     1     -42.582  56.096 -59.854  1.00  0.00     0.001 A 
HETATM   30  C   UNL     1     -41.952  57.307 -60.134  1.00  0.00     0.000 A 
HETATM   31  C   UNL     1     -41.865  58.291 -59.151  1.00  0.00     0.001 A 
HETATM   32  C   UNL     1     -42.408  58.065 -57.884  1.00  0.00     0.009 A 
ENDBRANCH  26  27
ENDBRANCH   1  26
TORSDOF 4
ENDMDL
MODEL 6
REMARK VINA RESULT:      -8.4      2.783      7.366
REMARK  4 active torsions:
REMARK  status: ('A' for Active; 'I' for Inactive)
REMARK    1  A    between atoms: C_4  and  C_5 
REMARK    2  A    between atoms: C_5  and  N_6 
REMARK    3  A    between atoms: C_9  and  C_10 
REMARK    4  A    between atoms: C_22  and  C_23 
ROOT
HETATM    1  N   UNL     1     -42.591  55.038 -55.917  1.00  0.00    -0.314 N 
HETATM    2  N   UNL     1     -42.861  55.871 -54.847  1.00  0.00    -0.203 NA
HETATM    3  C   UNL     1     -42.136  55.423 -53.742  1.00  0.00     0.041 C 
HETATM    4  C   UNL     1     -41.934  55.991 -52.544  1.00  0.00     0.044 C 
HETATM    5  C   UNL     1     -41.551  54.121 -54.155  1.00  0.00     0.015 C 
HETATM    6  C   UNL     1     -41.868  53.954 -55.457  1.00  0.00     0.119 C 
HETATM    7  H   UNL     1     -42.808  56.876 -55.043  1.00  0.00     0.153 HD
ENDROOT
BRANCH   4   8
HETATM    8  C   UNL     1     -42.485  57.225 -52.046  1.00  0.00     0.046 A 
HETATM    9  C   UNL     1     -43.896  57.657 -52.121  1.00  0.00     0.257 A 
HETATM   10  O   UNL     1     -44.889  57.212 -52.641  1.00  0.00    -0.267 OA
HETATM   11  N   UNL     1     -44.005  59.005 -51.431  1.00  0.00    -0.322 N 
HETATM   12  C   UNL     1     -42.815  59.294 -51.075  1.00  0.00     0.046 A 
HETATM   13  H   UNL     1     -44.868  59.526 -51.335  1.00  0.00     0.169 HD
HETATM   14  C   UNL     1     -41.834  58.235 -51.438  1.00  0.00     0.008 A 
HETATM   15  C   UNL     1     -42.346  60.504 -50.385  1.00  0.00     0.032 A 
HETATM   16  C   UNL     1     -40.449  58.427 -51.101  1.00  0.00     0.038 A 
HETATM   17  C   UNL     1     -40.073  59.557 -50.477  1.00  0.00     0.035 A 
HETATM   18  C   UNL     1     -41.031  60.593 -50.120  1.00  0.00     0.026 A 
HETATM   19 CL   UNL     1     -38.419  59.821 -50.073  1.00  0.00    -0.084 Cl
ENDBRANCH   4   8
BRANCH   5  20
HETATM   20  C   UNL     1     -40.827  53.125 -53.372  1.00  0.00    -0.005 A 
HETATM   21  C   UNL     1     -40.730  53.234 -51.987  1.00  0.00     0.128 A 
HETATM   22  N   UNL     1     -40.051  52.369 -51.198  1.00  0.00    -0.272 NA
HETATM   23  C   UNL     1     -39.469  51.318 -51.815  1.00  0.00     0.116 A 
HETATM   24  C   UNL     1     -39.521  51.104 -53.182  1.00  0.00     0.020 A 
HETATM   25  C   UNL     1     -40.207  52.027 -53.971  1.00  0.00     0.015 A 
ENDBRANCH   5  20
BRANCH   1  26
HETATM   26  C   UNL     1     -43.380  55.089 -57.144  1.00  0.00     0.181 C 
BRANCH  26  27
HETATM   27  C   UNL     1     -42.862  56.166 -58.073  1.00  0.00    -0.039 A 
HETATM   28  C   UNL     1     -42.791  55.938 -59.458  1.00  0.00     0.009 A 
HETATM   29  C   UNL     1     -42.355  56.942 -60.323  1.00  0.00     0.001 A 
HETATM   30  C   UNL     1     -41.991  58.188 -59.815  1.00  0.00     0.000 A 
HETATM   31  C   UNL     1     -42.060  58.429 -58.445  1.00  0.00     0.001 A 
HETATM   32  C   UNL     1     -42.494  57.424 -57.577  1.00  0.00     0.009 A 
ENDBRANCH  26  27
ENDBRANCH   1  26
TORSDOF 4
ENDMDL
MODEL 7
REMARK VINA RESULT:      -8.3      2.447      6.145
REMARK  4 active torsions:
REMARK  status: ('A' for Active; 'I' for Inactive)
REMARK    1  A    between atoms: C_4  and  C_5 
REMARK    2  A    between atoms: C_5  and  N_6 
REMARK    3  A    between atoms: C_9  and  C_10 
REMARK    4  A    between atoms: C_22  and  C_23 
ROOT
HETATM    1  N   UNL     1     -41.759  58.294 -52.543  1.00  0.00    -0.314 N 
HETATM    2  N   UNL     1     -41.898  58.400 -53.914  1.00  0.00    -0.203 NA
HETATM    3  C   UNL     1     -41.775  57.127 -54.472  1.00  0.00     0.041 C 
HETATM    4  C   UNL     1     -42.004  56.697 -55.721  1.00  0.00     0.044 C 
HETATM    5  C   UNL     1     -41.344  56.247 -53.355  1.00  0.00     0.015 C 
HETATM    6  C   UNL     1     -41.350  57.010 -52.241  1.00  0.00     0.119 C 
HETATM    7  H   UNL     1     -42.694  58.959 -54.238  1.00  0.00     0.153 HD
ENDROOT
BRANCH   4   8
HETATM    8  C   UNL     1     -42.389  57.479 -56.869  1.00  0.00     0.046 A 
HETATM    9  C   UNL     1     -42.149  58.921 -57.076  1.00  0.00     0.257 A 
HETATM   10  O   UNL     1     -41.697  59.809 -56.395  1.00  0.00    -0.267 OA
HETATM   11  N   UNL     1     -42.694  59.290 -58.444  1.00  0.00    -0.322 N 
HETATM   12  C   UNL     1     -43.206  58.214 -58.899  1.00  0.00     0.046 A 
HETATM   13  H   UNL     1     -42.655  60.221 -58.840  1.00  0.00     0.169 HD
HETATM   14  C   UNL     1     -43.055  57.066 -57.964  1.00  0.00     0.008 A 
HETATM   15  C   UNL     1     -43.896  58.012 -60.181  1.00  0.00     0.032 A 
HETATM   16  C   UNL     1     -43.590  55.786 -58.344  1.00  0.00     0.038 A 
HETATM   17  C   UNL     1     -44.218  55.660 -59.526  1.00  0.00     0.035 A 
HETATM   18  C   UNL     1     -44.366  56.781 -60.442  1.00  0.00     0.026 A 
HETATM   19 CL   UNL     1     -44.881  54.142 -60.003  1.00  0.00    -0.084 Cl
ENDBRANCH   4   8
BRANCH   5  20
HETATM   20  C   UNL     1     -40.916  54.852 -53.369  1.00  0.00    -0.005 A 
HETATM   21  C   UNL     1     -40.870  54.104 -52.195  1.00  0.00     0.128 A 
HETATM   22  N   UNL     1     -40.455  52.817 -52.125  1.00  0.00    -0.272 NA
HETATM   23  C   UNL     1     -40.105  52.231 -53.290  1.00  0.00     0.116 A 
HETATM   24  C   UNL     1     -40.134  52.877 -54.515  1.00  0.00     0.020 A 
HETATM   25  C   UNL     1     -40.542  54.209 -54.551  1.00  0.00     0.015 A 
ENDBRANCH   5  20
BRANCH   1  26
HETATM   26  C   UNL     1     -41.589  59.473 -51.699  1.00  0.00     0.181 C 
BRANCH  26  27
HETATM   27  C   UNL     1     -42.898  59.862 -51.046  1.00  0.00    -0.039 A 
HETATM   28  C   UNL     1     -44.065  59.117 -51.289  1.00  0.00     0.009 A 
HETATM   29  C   UNL     1     -45.264  59.445 -50.657  1.00  0.00     0.001 A 
HETATM   30  C   UNL     1     -45.311  60.518 -49.768  1.00  0.00     0.000 A 
HETATM   31  C   UNL     1     -44.161  61.263 -49.515  1.00  0.00     0.001 A 
HETATM   32  C   UNL     1     -42.960  60.937 -50.149  1.00  0.00     0.009 A 
ENDBRANCH  26  27
ENDBRANCH   1  26
TORSDOF 4
ENDMDL
MODEL 8
REMARK VINA RESULT:      -8.2      3.039      7.660
REMARK  4 active torsions:
REMARK  status: ('A' for Active; 'I' for Inactive)
REMARK    1  A    between atoms: C_4  and  C_5 
REMARK    2  A    between atoms: C_5  and  N_6 
REMARK    3  A    between atoms: C_9  and  C_10 
REMARK    4  A    between atoms: C_22  and  C_23 
ROOT
HETATM    1  N   UNL     1     -41.575  54.949 -52.910  1.00  0.00    -0.314 N 
HETATM    2  N   UNL     1     -42.355  55.991 -52.445  1.00  0.00    -0.203 NA
HETATM    3  C   UNL     1     -43.006  56.577 -53.531  1.00  0.00     0.041 C 
HETATM    4  C   UNL     1     -43.986  57.492 -53.570  1.00  0.00     0.044 C 
HETATM    5  C   UNL     1     -42.410  55.944 -54.736  1.00  0.00     0.015 C 
HETATM    6  C   UNL     1     -41.564  54.991 -54.290  1.00  0.00     0.119 C 
HETATM    7  H   UNL     1     -42.940  55.779 -51.630  1.00  0.00     0.153 HD
ENDROOT
BRANCH   4   8
HETATM    8  C   UNL     1     -44.597  58.181 -52.462  1.00  0.00     0.046 A 
HETATM    9  C   UNL     1     -44.833  57.641 -51.108  1.00  0.00     0.257 A 
HETATM   10  O   UNL     1     -44.692  56.559 -50.593  1.00  0.00    -0.267 OA
HETATM   11  N   UNL     1     -45.463  58.742 -50.273  1.00  0.00    -0.322 N 
HETATM   12  C   UNL     1     -45.601  59.726 -51.072  1.00  0.00     0.046 A 
HETATM   13  H   UNL     1     -45.724  58.639 -49.300  1.00  0.00     0.169 HD
HETATM   14  C   UNL     1     -45.092  59.433 -52.439  1.00  0.00     0.008 A 
HETATM   15  C   UNL     1     -46.185  61.045 -50.789  1.00  0.00     0.032 A 
HETATM   16  C   UNL     1     -45.186  60.453 -53.449  1.00  0.00     0.038 A 
HETATM   17  C   UNL     1     -45.737  61.639 -53.137  1.00  0.00     0.035 A 
HETATM   18  C   UNL     1     -46.234  61.929 -51.801  1.00  0.00     0.026 A 
HETATM   19 CL   UNL     1     -45.876  62.876 -54.329  1.00  0.00    -0.084 Cl
ENDBRANCH   4   8
BRANCH   5  20
HETATM   20  C   UNL     1     -42.587  56.263 -56.150  1.00  0.00    -0.005 A 
HETATM   21  C   UNL     1     -42.324  57.541 -56.635  1.00  0.00     0.128 A 
HETATM   22  N   UNL     1     -42.494  57.919 -57.924  1.00  0.00    -0.272 NA
HETATM   23  C   UNL     1     -42.909  56.964 -58.784  1.00  0.00     0.116 A 
HETATM   24  C   UNL     1     -43.180  55.659 -58.410  1.00  0.00     0.020 A 
HETATM   25  C   UNL     1     -43.020  55.306 -57.071  1.00  0.00     0.015 A 
ENDBRANCH   5  20
BRANCH   1  26
HETATM   26  C   UNL     1     -40.583  54.298 -52.060  1.00  0.00     0.181 C 
BRANCH  26  27
HETATM   27  C   UNL     1     -40.320  52.882 -52.523  1.00  0.00    -0.039 A 
HETATM   28  C   UNL     1     -40.558  52.513 -53.858  1.00  0.00     0.009 A 
HETATM   29  C   UNL     1     -40.278  51.220 -54.300  1.00  0.00     0.001 A 
HETATM   30  C   UNL     1     -39.751  50.281 -53.415  1.00  0.00     0.000 A 
HETATM   31  C   UNL     1     -39.507  50.634 -52.089  1.00  0.00     0.001 A 
HETATM   32  C   UNL     1     -39.789  51.928 -51.645  1.00  0.00     0.009 A 
ENDBRANCH  26  27
ENDBRANCH   1  26
TORSDOF 4
ENDMDL
MODEL 9
REMARK VINA RESULT:      -8.2     16.573     19.530
REMARK  4 active torsions:
REMARK  status: ('A' for Active; 'I' for Inactive)
REMARK    1  A    between atoms: C_4  and  C_5 
REMARK    2  A    between atoms: C_5  and  N_6 
REMARK    3  A    between atoms: C_9  and  C_10 
REMARK    4  A    between atoms: C_22  and  C_23 
ROOT
HETATM    1  N   UNL     1     -33.264  40.450 -52.751  1.00  0.00    -0.314 N 
HETATM    2  N   UNL     1     -33.865  40.847 -53.931  1.00  0.00    -0.203 NA
HETATM    3  C   UNL     1     -33.263  40.162 -54.987  1.00  0.00     0.041 C 
HETATM    4  C   UNL     1     -33.609  40.077 -56.280  1.00  0.00     0.044 C 
HETATM    5  C   UNL     1     -32.099  39.458 -54.389  1.00  0.00     0.015 C 
HETATM    6  C   UNL     1     -32.160  39.680 -53.058  1.00  0.00     0.119 C 
HETATM    7  H   UNL     1     -34.890  40.856 -53.926  1.00  0.00     0.153 HD
ENDROOT
BRANCH   4   8
HETATM    8  C   UNL     1     -34.693  40.747 -56.952  1.00  0.00     0.046 A 
HETATM    9  C   UNL     1     -35.197  42.107 -56.676  1.00  0.00     0.257 A 
HETATM   10  O   UNL     1     -34.953  42.946 -55.844  1.00  0.00    -0.267 OA
HETATM   11  N   UNL     1     -36.318  42.394 -57.659  1.00  0.00    -0.322 N 
HETATM   12  C   UNL     1     -36.445  41.323 -58.340  1.00  0.00     0.046 A 
HETATM   13  H   UNL     1     -36.837  43.263 -57.692  1.00  0.00     0.169 HD
HETATM   14  C   UNL     1     -35.474  40.269 -57.940  1.00  0.00     0.008 A 
HETATM   15  C   UNL     1     -37.406  41.045 -59.416  1.00  0.00     0.032 A 
HETATM   16  C   UNL     1     -35.503  39.003 -58.621  1.00  0.00     0.038 A 
HETATM   17  C   UNL     1     -36.409  38.800 -59.594  1.00  0.00     0.035 A 
HETATM   18  C   UNL     1     -37.358  39.829 -59.988  1.00  0.00     0.026 A 
HETATM   19 CL   UNL     1     -36.477  37.288 -60.419  1.00  0.00    -0.084 Cl
ENDBRANCH   4   8
BRANCH   5  20
HETATM   20  C   UNL     1     -31.020  38.713 -55.030  1.00  0.00    -0.005 A 
HETATM   21  C   UNL     1     -30.684  37.430 -54.605  1.00  0.00     0.128 A 
HETATM   22  N   UNL     1     -29.678  36.691 -55.128  1.00  0.00    -0.272 NA
HETATM   23  C   UNL     1     -28.996  37.241 -56.156  1.00  0.00     0.116 A 
HETATM   24  C   UNL     1     -29.262  38.500 -56.669  1.00  0.00     0.020 A 
HETATM   25  C   UNL     1     -30.287  39.247 -56.092  1.00  0.00     0.015 A 
ENDBRANCH   5  20
BRANCH   1  26
HETATM   26  C   UNL     1     -33.496  41.163 -51.498  1.00  0.00     0.181 C 
BRANCH  26  27
HETATM   27  C   UNL     1     -33.432  40.217 -50.319  1.00  0.00    -0.039 A 
HETATM   28  C   UNL     1     -34.511  39.363 -50.031  1.00  0.00     0.009 A 
HETATM   29  C   UNL     1     -34.440  38.459 -48.971  1.00  0.00     0.001 A 
HETATM   30  C   UNL     1     -33.288  38.392 -48.190  1.00  0.00     0.000 A 
HETATM   31  C   UNL     1     -32.209  39.230 -48.466  1.00  0.00     0.001 A 
HETATM   32  C   UNL     1     -32.279  40.137 -49.525  1.00  0.00     0.009 A 
ENDBRANCH  26  27
ENDBRANCH   1  26
TORSDOF 4
ENDMDL
MODEL 10
REMARK VINA RESULT:      -8.1      3.719      8.521
REMARK  4 active torsions:
REMARK  status: ('A' for Active; 'I' for Inactive)
REMARK    1  A    between atoms: C_4  and  C_5 
REMARK    2  A    between atoms: C_5  and  N_6 
REMARK    3  A    between atoms: C_9  and  C_10 
REMARK    4  A    between atoms: C_22  and  C_23 
ROOT
HETATM    1  N   UNL     1     -41.893  55.103 -54.715  1.00  0.00    -0.314 N 
HETATM    2  N   UNL     1     -42.259  55.922 -55.768  1.00  0.00    -0.203 NA
HETATM    3  C   UNL     1     -42.204  57.248 -55.338  1.00  0.00     0.041 C 
HETATM    4  C   UNL     1     -42.299  58.393 -56.030  1.00  0.00     0.044 C 
HETATM    5  C   UNL     1     -41.972  57.178 -53.872  1.00  0.00     0.015 C 
HETATM    6  C   UNL     1     -41.803  55.873 -53.572  1.00  0.00     0.119 C 
HETATM    7  H   UNL     1     -41.807  55.720 -56.665  1.00  0.00     0.153 HD
ENDROOT
BRANCH   4   8
HETATM    8  C   UNL     1     -42.556  58.556 -57.438  1.00  0.00     0.046 A 
HETATM    9  C   UNL     1     -43.335  57.649 -58.305  1.00  0.00     0.257 A 
HETATM   10  O   UNL     1     -43.856  56.572 -58.150  1.00  0.00    -0.267 OA
HETATM   11  N   UNL     1     -43.366  58.253 -59.698  1.00  0.00    -0.322 N 
HETATM   12  C   UNL     1     -42.661  59.312 -59.617  1.00  0.00     0.046 A 
HETATM   13  H   UNL     1     -43.840  57.834 -60.488  1.00  0.00     0.169 HD
HETATM   14  C   UNL     1     -42.128  59.544 -58.247  1.00  0.00     0.008 A 
HETATM   15  C   UNL     1     -42.339  60.268 -60.685  1.00  0.00     0.032 A 
HETATM   16  C   UNL     1     -41.310  60.703 -58.007  1.00  0.00     0.038 A 
HETATM   17  C   UNL     1     -41.040  61.541 -59.024  1.00  0.00     0.035 A 
HETATM   18  C   UNL     1     -41.562  61.317 -60.363  1.00  0.00     0.026 A 
HETATM   19 CL   UNL     1     -40.052  62.929 -58.770  1.00  0.00    -0.084 Cl
ENDBRANCH   4   8
BRANCH   5  20
HETATM   20  C   UNL     1     -41.975  58.238 -52.869  1.00  0.00    -0.005 A 
HETATM   21  C   UNL     1     -40.782  58.763 -52.376  1.00  0.00     0.128 A 
HETATM   22  N   UNL     1     -40.705  59.723 -51.425  1.00  0.00    -0.272 NA
HETATM   23  C   UNL     1     -41.876  60.216 -50.967  1.00  0.00     0.116 A 
HETATM   24  C   UNL     1     -43.116  59.780 -51.404  1.00  0.00     0.020 A 
HETATM   25  C   UNL     1     -43.163  58.772 -52.366  1.00  0.00     0.015 A 
ENDBRANCH   5  20
BRANCH   1  26
HETATM   26  C   UNL     1     -42.089  53.657 -54.768  1.00  0.00     0.181 C 
BRANCH  26  27
HETATM   27  C   UNL     1     -41.145  52.950 -53.820  1.00  0.00    -0.039 A 
HETATM   28  C   UNL     1     -40.269  51.959 -54.294  1.00  0.00     0.009 A 
HETATM   29  C   UNL     1     -39.367  51.334 -53.433  1.00  0.00     0.001 A 
HETATM   30  C   UNL     1     -39.324  51.697 -52.088  1.00  0.00     0.000 A 
HETATM   31  C   UNL     1     -40.184  52.682 -51.604  1.00  0.00     0.001 A 
HETATM   32  C   UNL     1     -41.090  53.306 -52.465  1.00  0.00     0.009 A 
ENDBRANCH  26  27
ENDBRANCH   1  26
TORSDOF 4
ENDMDL
