MODEL 1
REMARK VINA RESULT:      -9.0      0.000      0.000
REMARK  8 active torsions:
REMARK  status: ('A' for Active; 'I' for Inactive)
REMARK    1  A    between atoms: C_4  and  C_5 
REMARK    2  A    between atoms: C_5  and  N_6 
REMARK    3  A    between atoms: C_5  and  C_32 
REMARK       I    between atoms: N_10  and  C_11 
REMARK    4  A    between atoms: C_11  and  C_12 
REMARK    5  A    between atoms: C_13  and  N_14 
REMARK    6  A    between atoms: N_14  and  C_15 
REMARK    7  A    between atoms: C_15  and  N_16 
REMARK       I    between atoms: N_16  and  C_17 
REMARK    8  A    between atoms: C_17  and  C_18 
ROOT
HETATM    1  N   UNL     1     -43.381  58.076 -57.248  1.00  0.00    -0.056 N 
HETATM    2  H   UNL     1     -44.322  58.440 -57.066  1.00  0.00     0.281 HD
HETATM    3  C   UNL     1     -43.356  56.644 -56.711  1.00  0.00     0.256 C 
HETATM    4  C   UNL     1     -43.659  56.645 -55.204  1.00  0.00     0.154 C 
HETATM    5  N   UNL     1     -42.715  57.519 -54.507  1.00  0.00    -0.345 N 
HETATM    6  C   UNL     1     -41.461  57.083 -54.033  1.00  0.00     0.256 C 
HETATM    7  O   UNL     1     -40.537  57.873 -53.862  1.00  0.00    -0.267 OA
HETATM    8  C   UNL     1     -42.789  58.917 -54.950  1.00  0.00     0.154 C 
HETATM    9  C   UNL     1     -42.446  59.000 -56.456  1.00  0.00     0.256 C 
ENDROOT
BRANCH   6  10
HETATM   10  C   UNL     1     -41.189  55.627 -53.919  1.00  0.00     0.058 A 
HETATM   11  C   UNL     1     -41.850  54.750 -53.040  1.00  0.00     0.049 A 
HETATM   12  C   UNL     1     -41.705  53.368 -53.233  1.00  0.00     0.030 A 
HETATM   13  C   UNL     1     -40.845  52.870 -54.215  1.00  0.00     0.002 A 
HETATM   14  C   UNL     1     -40.131  53.744 -55.029  1.00  0.00     0.001 A 
HETATM   15  C   UNL     1     -40.308  55.119 -54.890  1.00  0.00     0.019 A 
BRANCH  11  16
HETATM   16  N   UNL     1     -42.713  55.142 -51.994  1.00  0.00    -0.337 N 
HETATM   17  H   UNL     1     -43.687  54.871 -52.081  1.00  0.00     0.168 HD
BRANCH  16  18
HETATM   18  C   UNL     1     -42.427  55.830 -50.863  1.00  0.00     0.157 C 
HETATM   19  S   UNL     1     -40.982  55.522 -50.078  1.00  0.00    -0.047 SA
BRANCH  18  20
HETATM   20  N   UNL     1     -43.219  56.845 -50.417  1.00  0.00    -0.199 NA
HETATM   21  C   UNL     1     -43.997  57.610 -51.281  1.00  0.00     0.261 C 
HETATM   22  O   UNL     1     -44.980  57.188 -51.880  1.00  0.00    -0.271 OA
HETATM   23  H   UNL     1     -42.665  57.442 -49.809  1.00  0.00     0.139 HD
BRANCH  21  24
HETATM   24  C   UNL     1     -43.566  58.992 -51.378  1.00  0.00     0.137 A 
HETATM   25  O   UNL     1     -44.424  59.930 -51.892  1.00  0.00    -0.318 OA
HETATM   26  C   UNL     1     -43.795  61.131 -51.813  1.00  0.00     0.143 A 
HETATM   27  C   UNL     1     -42.543  60.986 -51.263  1.00  0.00     0.027 A 
HETATM   28  C   UNL     1     -42.391  59.606 -50.989  1.00  0.00     0.044 A 
ENDBRANCH  21  24
ENDBRANCH  18  20
ENDBRANCH  16  18
ENDBRANCH  11  16
ENDBRANCH   6  10
BRANCH   1  29
HETATM   29  C   UNL     1     -43.245  58.110 -58.773  1.00  0.00     0.254 C 
BRANCH  29  30
HETATM   30  C   UNL     1     -43.029  59.496 -59.374  1.00  0.00    -0.023 A 
HETATM   31  C   UNL     1     -41.966  59.689 -60.281  1.00  0.00     0.009 A 
HETATM   32  C   UNL     1     -41.691  60.948 -60.820  1.00  0.00     0.001 A 
HETATM   33  C   UNL     1     -42.475  62.041 -60.470  1.00  0.00     0.000 A 
HETATM   34  C   UNL     1     -43.536  61.875 -59.586  1.00  0.00     0.001 A 
HETATM   35  C   UNL     1     -43.810  60.617 -59.042  1.00  0.00     0.009 A 
ENDBRANCH  29  30
BRANCH  29  36
HETATM   36  C   UNL     1     -44.211  57.149 -59.465  1.00  0.00    -0.023 A 
HETATM   37  C   UNL     1     -45.598  57.387 -59.330  1.00  0.00     0.009 A 
HETATM   38  C   UNL     1     -46.540  56.548 -59.926  1.00  0.00     0.001 A 
HETATM   39  C   UNL     1     -46.120  55.455 -60.672  1.00  0.00     0.000 A 
HETATM   40  C   UNL     1     -44.760  55.201 -60.820  1.00  0.00     0.001 A 
HETATM   41  C   UNL     1     -43.813  56.040 -60.225  1.00  0.00     0.009 A 
ENDBRANCH  29  36
ENDBRANCH   1  29
TORSDOF 8
ENDMDL
MODEL 2
REMARK VINA RESULT:      -9.0      1.792      2.872
REMARK  8 active torsions:
REMARK  status: ('A' for Active; 'I' for Inactive)
REMARK    1  A    between atoms: C_4  and  C_5 
REMARK    2  A    between atoms: C_5  and  N_6 
REMARK    3  A    between atoms: C_5  and  C_32 
REMARK       I    between atoms: N_10  and  C_11 
REMARK    4  A    between atoms: C_11  and  C_12 
REMARK    5  A    between atoms: C_13  and  N_14 
REMARK    6  A    between atoms: N_14  and  C_15 
REMARK    7  A    between atoms: C_15  and  N_16 
REMARK       I    between atoms: N_16  and  C_17 
REMARK    8  A    between atoms: C_17  and  C_18 
ROOT
HETATM    1  N   UNL     1     -43.510  58.395 -57.493  1.00  0.00    -0.056 N 
HETATM    2  H   UNL     1     -44.421  58.853 -57.389  1.00  0.00     0.281 HD
HETATM    3  C   UNL     1     -43.640  57.012 -56.851  1.00  0.00     0.256 C 
HETATM    4  C   UNL     1     -44.011  57.158 -55.366  1.00  0.00     0.154 C 
HETATM    5  N   UNL     1     -43.023  57.998 -54.687  1.00  0.00    -0.345 N 
HETATM    6  C   UNL     1     -41.838  57.492 -54.118  1.00  0.00     0.256 C 
HETATM    7  O   UNL     1     -40.853  58.209 -53.958  1.00  0.00    -0.267 OA
HETATM    8  C   UNL     1     -42.948  59.358 -55.237  1.00  0.00     0.154 C 
HETATM    9  C   UNL     1     -42.531  59.292 -56.724  1.00  0.00     0.256 C 
ENDROOT
BRANCH   6  10
HETATM   10  C   UNL     1     -41.705  56.032 -53.881  1.00  0.00     0.058 A 
HETATM   11  C   UNL     1     -42.599  55.253 -53.124  1.00  0.00     0.049 A 
HETATM   12  C   UNL     1     -42.521  53.856 -53.218  1.00  0.00     0.030 A 
HETATM   13  C   UNL     1     -41.515  53.245 -53.970  1.00  0.00     0.002 A 
HETATM   14  C   UNL     1     -40.584  54.021 -54.654  1.00  0.00     0.001 A 
HETATM   15  C   UNL     1     -40.682  55.411 -54.619  1.00  0.00     0.019 A 
BRANCH  11  16
HETATM   16  N   UNL     1     -43.630  55.763 -52.304  1.00  0.00    -0.337 N 
HETATM   17  H   UNL     1     -44.543  55.331 -52.399  1.00  0.00     0.168 HD
BRANCH  16  18
HETATM   18  C   UNL     1     -43.577  56.754 -51.382  1.00  0.00     0.157 C 
HETATM   19  S   UNL     1     -44.580  58.080 -51.569  1.00  0.00    -0.047 SA
BRANCH  18  20
HETATM   20  N   UNL     1     -42.827  56.646 -50.250  1.00  0.00    -0.199 NA
HETATM   21  C   UNL     1     -41.439  56.544 -50.291  1.00  0.00     0.261 C 
HETATM   22  O   UNL     1     -40.691  57.456 -50.626  1.00  0.00    -0.271 OA
HETATM   23  H   UNL     1     -43.224  55.912 -49.670  1.00  0.00     0.139 HD
BRANCH  21  24
HETATM   24  C   UNL     1     -40.939  55.257 -49.846  1.00  0.00     0.137 A 
HETATM   25  O   UNL     1     -41.128  54.877 -48.542  1.00  0.00    -0.318 OA
HETATM   26  C   UNL     1     -40.621  53.623 -48.416  1.00  0.00     0.143 A 
HETATM   27  C   UNL     1     -40.104  53.188 -49.613  1.00  0.00     0.027 A 
HETATM   28  C   UNL     1     -40.301  54.244 -50.534  1.00  0.00     0.044 A 
ENDBRANCH  21  24
ENDBRANCH  18  20
ENDBRANCH  16  18
ENDBRANCH  11  16
ENDBRANCH   6  10
BRANCH   1  29
HETATM   29  C   UNL     1     -43.302  58.295 -59.008  1.00  0.00     0.254 C 
BRANCH  29  30
HETATM   30  C   UNL     1     -43.054  59.625 -59.716  1.00  0.00    -0.023 A 
HETATM   31  C   UNL     1     -41.951  59.738 -60.589  1.00  0.00     0.009 A 
HETATM   32  C   UNL     1     -41.647  60.945 -61.221  1.00  0.00     0.001 A 
HETATM   33  C   UNL     1     -42.440  62.065 -61.001  1.00  0.00     0.000 A 
HETATM   34  C   UNL     1     -43.540  61.977 -60.153  1.00  0.00     0.001 A 
HETATM   35  C   UNL     1     -43.842  60.771 -59.516  1.00  0.00     0.009 A 
ENDBRANCH  29  30
BRANCH  29  36
HETATM   36  C   UNL     1     -44.237  57.278 -59.659  1.00  0.00    -0.023 A 
HETATM   37  C   UNL     1     -45.623  57.555 -59.663  1.00  0.00     0.009 A 
HETATM   38  C   UNL     1     -46.539  56.668 -60.232  1.00  0.00     0.001 A 
HETATM   39  C   UNL     1     -46.092  55.487 -60.810  1.00  0.00     0.000 A 
HETATM   40  C   UNL     1     -44.732  55.194 -60.818  1.00  0.00     0.001 A 
HETATM   41  C   UNL     1     -43.812  56.080 -60.250  1.00  0.00     0.009 A 
ENDBRANCH  29  36
ENDBRANCH   1  29
TORSDOF 8
ENDMDL
MODEL 3
REMARK VINA RESULT:      -8.8      2.745      7.226
REMARK  8 active torsions:
REMARK  status: ('A' for Active; 'I' for Inactive)
REMARK    1  A    between atoms: C_4  and  C_5 
REMARK    2  A    between atoms: C_5  and  N_6 
REMARK    3  A    between atoms: C_5  and  C_32 
REMARK       I    between atoms: N_10  and  C_11 
REMARK    4  A    between atoms: C_11  and  C_12 
REMARK    5  A    between atoms: C_13  and  N_14 
REMARK    6  A    between atoms: N_14  and  C_15 
REMARK    7  A    between atoms: C_15  and  N_16 
REMARK       I    between atoms: N_16  and  C_17 
REMARK    8  A    between atoms: C_17  and  C_18 
ROOT
HETATM    1  N   UNL     1     -41.861  55.616 -52.359  1.00  0.00    -0.056 N 
HETATM    2  H   UNL     1     -41.561  55.025 -51.578  1.00  0.00     0.281 HD
HETATM    3  C   UNL     1     -41.358  57.029 -52.057  1.00  0.00     0.256 C 
HETATM    4  C   UNL     1     -41.960  57.526 -50.733  1.00  0.00     0.154 C 
HETATM    5  N   UNL     1     -43.421  57.456 -50.794  1.00  0.00    -0.345 N 
HETATM    6  C   UNL     1     -44.225  58.496 -51.301  1.00  0.00     0.256 C 
HETATM    7  O   UNL     1     -45.349  58.272 -51.745  1.00  0.00    -0.267 OA
HETATM    8  C   UNL     1     -43.923  56.091 -50.997  1.00  0.00     0.154 C 
HETATM    9  C   UNL     1     -43.394  55.540 -52.341  1.00  0.00     0.256 C 
ENDROOT
BRANCH   6  10
HETATM   10  C   UNL     1     -43.643  59.851 -51.478  1.00  0.00     0.058 A 
HETATM   11  C   UNL     1     -43.255  60.407 -52.710  1.00  0.00     0.049 A 
HETATM   12  C   UNL     1     -42.995  61.784 -52.775  1.00  0.00     0.030 A 
HETATM   13  C   UNL     1     -43.023  62.572 -51.622  1.00  0.00     0.002 A 
HETATM   14  C   UNL     1     -43.329  62.000 -50.391  1.00  0.00     0.001 A 
HETATM   15  C   UNL     1     -43.648  60.645 -50.318  1.00  0.00     0.019 A 
BRANCH  11  16
HETATM   16  N   UNL     1     -43.160  59.700 -53.929  1.00  0.00    -0.337 N 
HETATM   17  H   UNL     1     -42.638  58.830 -53.911  1.00  0.00     0.168 HD
BRANCH  16  18
HETATM   18  C   UNL     1     -43.683  60.010 -55.140  1.00  0.00     0.157 C 
HETATM   19  S   UNL     1     -42.660  60.573 -56.337  1.00  0.00    -0.047 SA
BRANCH  18  20
HETATM   20  N   UNL     1     -44.987  59.761 -55.446  1.00  0.00    -0.199 NA
HETATM   21  C   UNL     1     -45.435  58.489 -55.794  1.00  0.00     0.261 C 
HETATM   22  O   UNL     1     -45.502  57.546 -55.014  1.00  0.00    -0.271 OA
HETATM   23  H   UNL     1     -45.294  60.449 -56.129  1.00  0.00     0.139 HD
BRANCH  21  24
HETATM   24  C   UNL     1     -45.871  58.386 -57.174  1.00  0.00     0.137 A 
HETATM   25  O   UNL     1     -45.004  58.725 -58.180  1.00  0.00    -0.318 OA
HETATM   26  C   UNL     1     -45.642  58.481 -59.354  1.00  0.00     0.143 A 
HETATM   27  C   UNL     1     -46.908  57.996 -59.124  1.00  0.00     0.027 A 
HETATM   28  C   UNL     1     -47.059  57.941 -57.719  1.00  0.00     0.044 A 
ENDBRANCH  21  24
ENDBRANCH  18  20
ENDBRANCH  16  18
ENDBRANCH  11  16
ENDBRANCH   6  10
BRANCH   1  29
HETATM   29  C   UNL     1     -41.161  55.018 -53.583  1.00  0.00     0.254 C 
BRANCH  29  30
HETATM   30  C   UNL     1     -41.858  55.273 -54.918  1.00  0.00    -0.023 A 
HETATM   31  C   UNL     1     -41.681  56.520 -55.552  1.00  0.00     0.009 A 
HETATM   32  C   UNL     1     -42.337  56.827 -56.746  1.00  0.00     0.001 A 
HETATM   33  C   UNL     1     -43.179  55.891 -57.337  1.00  0.00     0.000 A 
HETATM   34  C   UNL     1     -43.361  54.649 -56.737  1.00  0.00     0.001 A 
HETATM   35  C   UNL     1     -42.710  54.344 -55.539  1.00  0.00     0.009 A 
ENDBRANCH  29  30
BRANCH  29  36
HETATM   36  C   UNL     1     -40.588  53.629 -53.306  1.00  0.00    -0.023 A 
HETATM   37  C   UNL     1     -40.396  53.245 -51.959  1.00  0.00     0.009 A 
HETATM   38  C   UNL     1     -39.869  51.995 -51.628  1.00  0.00     0.001 A 
HETATM   39  C   UNL     1     -39.525  51.101 -52.633  1.00  0.00     0.000 A 
HETATM   40  C   UNL     1     -39.706  51.457 -53.966  1.00  0.00     0.001 A 
HETATM   41  C   UNL     1     -40.234  52.707 -54.301  1.00  0.00     0.009 A 
ENDBRANCH  29  36
ENDBRANCH   1  29
TORSDOF 8
ENDMDL
MODEL 4
REMARK VINA RESULT:      -8.8      3.017      8.613
REMARK  8 active torsions:
REMARK  status: ('A' for Active; 'I' for Inactive)
REMARK    1  A    between atoms: C_4  and  C_5 
REMARK    2  A    between atoms: C_5  and  N_6 
REMARK    3  A    between atoms: C_5  and  C_32 
REMARK       I    between atoms: N_10  and  C_11 
REMARK    4  A    between atoms: C_11  and  C_12 
REMARK    5  A    between atoms: C_13  and  N_14 
REMARK    6  A    between atoms: N_14  and  C_15 
REMARK    7  A    between atoms: C_15  and  N_16 
REMARK       I    between atoms: N_16  and  C_17 
REMARK    8  A    between atoms: C_17  and  C_18 
ROOT
HETATM    1  N   UNL     1     -41.774  54.271 -54.030  1.00  0.00    -0.056 N 
HETATM    2  H   UNL     1     -42.285  53.432 -54.321  1.00  0.00     0.281 HD
HETATM    3  C   UNL     1     -42.795  55.192 -53.359  1.00  0.00     0.256 C 
HETATM    4  C   UNL     1     -43.911  55.549 -54.354  1.00  0.00     0.154 C 
HETATM    5  N   UNL     1     -43.331  56.144 -55.560  1.00  0.00    -0.345 N 
HETATM    6  C   UNL     1     -43.068  57.522 -55.693  1.00  0.00     0.256 C 
HETATM    7  O   UNL     1     -42.217  57.933 -56.478  1.00  0.00    -0.267 OA
HETATM    8  C   UNL     1     -42.414  55.238 -56.264  1.00  0.00     0.154 C 
HETATM    9  C   UNL     1     -41.234  54.872 -55.335  1.00  0.00     0.256 C 
ENDROOT
BRANCH   6  10
HETATM   10  C   UNL     1     -43.689  58.480 -54.743  1.00  0.00     0.058 A 
HETATM   11  C   UNL     1     -44.964  59.055 -54.895  1.00  0.00     0.049 A 
HETATM   12  C   UNL     1     -45.543  59.708 -53.797  1.00  0.00     0.030 A 
HETATM   13  C   UNL     1     -44.830  59.874 -52.607  1.00  0.00     0.002 A 
HETATM   14  C   UNL     1     -43.537  59.373 -52.490  1.00  0.00     0.001 A 
HETATM   15  C   UNL     1     -42.970  58.669 -53.551  1.00  0.00     0.019 A 
BRANCH  11  16
HETATM   16  N   UNL     1     -45.757  58.979 -56.060  1.00  0.00    -0.337 N 
HETATM   17  H   UNL     1     -46.439  58.228 -56.100  1.00  0.00     0.168 HD
BRANCH  16  18
HETATM   18  C   UNL     1     -45.753  59.783 -57.151  1.00  0.00     0.157 C 
HETATM   19  S   UNL     1     -45.675  61.440 -56.927  1.00  0.00    -0.047 SA
BRANCH  18  20
HETATM   20  N   UNL     1     -45.687  59.282 -58.415  1.00  0.00    -0.199 NA
HETATM   21  C   UNL     1     -45.841  57.924 -58.681  1.00  0.00     0.261 C 
HETATM   22  O   UNL     1     -46.899  57.315 -58.562  1.00  0.00    -0.271 OA
HETATM   23  H   UNL     1     -44.846  59.641 -58.860  1.00  0.00     0.139 HD
BRANCH  21  24
HETATM   24  C   UNL     1     -44.633  57.288 -59.170  1.00  0.00     0.137 A 
HETATM   25  O   UNL     1     -43.574  58.067 -59.562  1.00  0.00    -0.318 OA
HETATM   26  C   UNL     1     -42.569  57.224 -59.913  1.00  0.00     0.143 A 
HETATM   27  C   UNL     1     -42.960  55.915 -59.761  1.00  0.00     0.027 A 
HETATM   28  C   UNL     1     -44.293  55.955 -59.289  1.00  0.00     0.044 A 
ENDBRANCH  21  24
ENDBRANCH  18  20
ENDBRANCH  16  18
ENDBRANCH  11  16
ENDBRANCH   6  10
BRANCH   1  29
HETATM   29  C   UNL     1     -40.733  53.760 -53.029  1.00  0.00     0.254 C 
BRANCH  29  30
HETATM   30  C   UNL     1     -40.374  52.282 -53.168  1.00  0.00    -0.023 A 
HETATM   31  C   UNL     1     -39.701  51.642 -52.106  1.00  0.00     0.009 A 
HETATM   32  C   UNL     1     -39.301  50.307 -52.201  1.00  0.00     0.001 A 
HETATM   33  C   UNL     1     -39.570  49.580 -53.354  1.00  0.00     0.000 A 
HETATM   34  C   UNL     1     -40.243  50.186 -54.411  1.00  0.00     0.001 A 
HETATM   35  C   UNL     1     -40.638  51.523 -54.320  1.00  0.00     0.009 A 
ENDBRANCH  29  30
BRANCH  29  36
HETATM   36  C   UNL     1     -40.935  54.341 -51.631  1.00  0.00    -0.023 A 
HETATM   37  C   UNL     1     -40.732  55.728 -51.451  1.00  0.00     0.009 A 
HETATM   38  C   UNL     1     -40.889  56.329 -50.201  1.00  0.00     0.001 A 
HETATM   39  C   UNL     1     -41.254  55.560 -49.104  1.00  0.00     0.000 A 
HETATM   40  C   UNL     1     -41.459  54.192 -49.257  1.00  0.00     0.001 A 
HETATM   41  C   UNL     1     -41.303  53.587 -50.508  1.00  0.00     0.009 A 
ENDBRANCH  29  36
ENDBRANCH   1  29
TORSDOF 8
ENDMDL
MODEL 5
REMARK VINA RESULT:      -8.6      3.213      8.724
REMARK  8 active torsions:
REMARK  status: ('A' for Active; 'I' for Inactive)
REMARK    1  A    between atoms: C_4  and  C_5 
REMARK    2  A    between atoms: C_5  and  N_6 
REMARK    3  A    between atoms: C_5  and  C_32 
REMARK       I    between atoms: N_10  and  C_11 
REMARK    4  A    between atoms: C_11  and  C_12 
REMARK    5  A    between atoms: C_13  and  N_14 
REMARK    6  A    between atoms: N_14  and  C_15 
REMARK    7  A    between atoms: C_15  and  N_16 
REMARK       I    between atoms: N_16  and  C_17 
REMARK    8  A    between atoms: C_17  and  C_18 
ROOT
HETATM    1  N   UNL     1     -43.038  57.486 -53.790  1.00  0.00    -0.056 N 
HETATM    2  H   UNL     1     -43.496  57.272 -52.898  1.00  0.00     0.281 HD
HETATM    3  C   UNL     1     -43.253  58.979 -54.044  1.00  0.00     0.256 C 
HETATM    4  C   UNL     1     -44.758  59.287 -54.115  1.00  0.00     0.154 C 
HETATM    5  N   UNL     1     -45.388  58.451 -55.138  1.00  0.00    -0.345 N 
HETATM    6  C   UNL     1     -45.469  58.819 -56.495  1.00  0.00     0.256 C 
HETATM    7  O   UNL     1     -45.586  57.971 -57.377  1.00  0.00    -0.267 OA
HETATM    8  C   UNL     1     -45.266  57.014 -54.862  1.00  0.00     0.154 C 
HETATM    9  C   UNL     1     -43.771  56.620 -54.824  1.00  0.00     0.256 C 
ENDROOT
BRANCH   6  10
HETATM   10  C   UNL     1     -45.222  60.230 -56.887  1.00  0.00     0.058 A 
HETATM   11  C   UNL     1     -44.096  60.684 -57.597  1.00  0.00     0.049 A 
HETATM   12  C   UNL     1     -44.123  61.973 -58.149  1.00  0.00     0.030 A 
HETATM   13  C   UNL     1     -45.204  62.827 -57.918  1.00  0.00     0.002 A 
HETATM   14  C   UNL     1     -46.281  62.400 -57.147  1.00  0.00     0.001 A 
HETATM   15  C   UNL     1     -46.296  61.102 -56.640  1.00  0.00     0.019 A 
BRANCH  11  16
HETATM   16  N   UNL     1     -42.937  59.921 -57.860  1.00  0.00    -0.337 N 
HETATM   17  H   UNL     1     -42.170  60.016 -57.203  1.00  0.00     0.168 HD
BRANCH  16  18
HETATM   18  C   UNL     1     -42.697  59.054 -58.873  1.00  0.00     0.157 C 
HETATM   19  S   UNL     1     -42.408  59.666 -60.403  1.00  0.00    -0.047 SA
BRANCH  18  20
HETATM   20  N   UNL     1     -42.564  57.715 -58.659  1.00  0.00    -0.199 NA
HETATM   21  C   UNL     1     -42.345  56.818 -59.701  1.00  0.00     0.261 C 
HETATM   22  O   UNL     1     -41.306  56.756 -60.349  1.00  0.00    -0.271 OA
HETATM   23  H   UNL     1     -43.335  57.405 -58.074  1.00  0.00     0.139 HD
BRANCH  21  24
HETATM   24  C   UNL     1     -43.454  55.911 -59.927  1.00  0.00     0.137 A 
HETATM   25  O   UNL     1     -44.090  55.918 -61.142  1.00  0.00    -0.318 OA
HETATM   26  C   UNL     1     -45.037  54.944 -61.100  1.00  0.00     0.143 A 
HETATM   27  C   UNL     1     -45.028  54.313 -59.879  1.00  0.00     0.027 A 
HETATM   28  C   UNL     1     -44.012  54.940 -59.119  1.00  0.00     0.044 A 
ENDBRANCH  21  24
ENDBRANCH  18  20
ENDBRANCH  16  18
ENDBRANCH  11  16
ENDBRANCH   6  10
BRANCH   1  29
HETATM   29  C   UNL     1     -41.560  57.161 -53.550  1.00  0.00     0.254 C 
BRANCH  29  30
HETATM   30  C   UNL     1     -41.192  55.685 -53.680  1.00  0.00    -0.023 A 
HETATM   31  C   UNL     1     -40.492  55.256 -54.827  1.00  0.00     0.009 A 
HETATM   32  C   UNL     1     -40.177  53.909 -55.022  1.00  0.00     0.001 A 
HETATM   33  C   UNL     1     -40.547  52.963 -54.074  1.00  0.00     0.000 A 
HETATM   34  C   UNL     1     -41.229  53.363 -52.929  1.00  0.00     0.001 A 
HETATM   35  C   UNL     1     -41.550  54.709 -52.735  1.00  0.00     0.009 A 
ENDBRANCH  29  30
BRANCH  29  36
HETATM   36  C   UNL     1     -40.966  57.970 -52.398  1.00  0.00    -0.023 A 
HETATM   37  C   UNL     1     -39.750  58.654 -52.622  1.00  0.00     0.009 A 
HETATM   38  C   UNL     1     -39.143  59.406 -51.615  1.00  0.00     0.001 A 
HETATM   39  C   UNL     1     -39.737  59.493 -50.363  1.00  0.00     0.000 A 
HETATM   40  C   UNL     1     -40.935  58.829 -50.119  1.00  0.00     0.001 A 
HETATM   41  C   UNL     1     -41.546  58.075 -51.126  1.00  0.00     0.009 A 
ENDBRANCH  29  36
ENDBRANCH   1  29
TORSDOF 8
ENDMDL
MODEL 6
REMARK VINA RESULT:      -8.5      3.173      8.449
REMARK  8 active torsions:
REMARK  status: ('A' for Active; 'I' for Inactive)
REMARK    1  A    between atoms: C_4  and  C_5 
REMARK    2  A    between atoms: C_5  and  N_6 
REMARK    3  A    between atoms: C_5  and  C_32 
REMARK       I    between atoms: N_10  and  C_11 
REMARK    4  A    between atoms: C_11  and  C_12 
REMARK    5  A    between atoms: C_13  and  N_14 
REMARK    6  A    between atoms: N_14  and  C_15 
REMARK    7  A    between atoms: C_15  and  N_16 
REMARK       I    between atoms: N_16  and  C_17 
REMARK    8  A    between atoms: C_17  and  C_18 
ROOT
HETATM    1  N   UNL     1     -42.491  55.925 -53.038  1.00  0.00    -0.056 N 
HETATM    2  H   UNL     1     -42.512  54.901 -53.057  1.00  0.00     0.281 HD
HETATM    3  C   UNL     1     -43.822  56.400 -53.625  1.00  0.00     0.256 C 
HETATM    4  C   UNL     1     -43.973  55.883 -55.064  1.00  0.00     0.154 C 
HETATM    5  N   UNL     1     -42.826  56.308 -55.868  1.00  0.00    -0.345 N 
HETATM    6  C   UNL     1     -42.771  57.541 -56.547  1.00  0.00     0.256 C 
HETATM    7  O   UNL     1     -41.696  58.063 -56.832  1.00  0.00    -0.267 OA
HETATM    8  C   UNL     1     -41.547  55.787 -55.367  1.00  0.00     0.154 C 
HETATM    9  C   UNL     1     -41.304  56.308 -53.932  1.00  0.00     0.256 C 
ENDROOT
BRANCH   6  10
HETATM   10  C   UNL     1     -44.020  58.317 -56.757  1.00  0.00     0.058 A 
HETATM   11  C   UNL     1     -45.093  57.914 -57.572  1.00  0.00     0.049 A 
HETATM   12  C   UNL     1     -46.317  58.588 -57.457  1.00  0.00     0.030 A 
HETATM   13  C   UNL     1     -46.444  59.701 -56.622  1.00  0.00     0.002 A 
HETATM   14  C   UNL     1     -45.356  60.144 -55.877  1.00  0.00     0.001 A 
HETATM   15  C   UNL     1     -44.149  59.451 -55.935  1.00  0.00     0.019 A 
BRANCH  11  16
HETATM   16  N   UNL     1     -45.066  56.828 -58.475  1.00  0.00    -0.337 N 
HETATM   17  H   UNL     1     -44.804  55.925 -58.093  1.00  0.00     0.168 HD
BRANCH  16  18
HETATM   18  C   UNL     1     -45.356  56.809 -59.798  1.00  0.00     0.157 C 
HETATM   19  S   UNL     1     -46.864  56.270 -60.282  1.00  0.00    -0.047 SA
BRANCH  18  20
HETATM   20  N   UNL     1     -44.508  57.328 -60.729  1.00  0.00    -0.199 NA
HETATM   21  C   UNL     1     -43.167  57.577 -60.450  1.00  0.00     0.261 C 
HETATM   22  O   UNL     1     -42.329  56.702 -60.263  1.00  0.00    -0.271 OA
HETATM   23  H   UNL     1     -44.947  58.146 -61.143  1.00  0.00     0.139 HD
BRANCH  21  24
HETATM   24  C   UNL     1     -42.829  58.987 -60.449  1.00  0.00     0.137 A 
HETATM   25  O   UNL     1     -41.707  59.410 -61.115  1.00  0.00    -0.318 OA
HETATM   26  C   UNL     1     -41.664  60.763 -61.001  1.00  0.00     0.143 A 
HETATM   27  C   UNL     1     -42.733  61.221 -60.269  1.00  0.00     0.027 A 
HETATM   28  C   UNL     1     -43.482  60.077 -59.906  1.00  0.00     0.044 A 
ENDBRANCH  21  24
ENDBRANCH  18  20
ENDBRANCH  16  18
ENDBRANCH  11  16
ENDBRANCH   6  10
BRANCH   1  29
HETATM   29  C   UNL     1     -42.371  56.280 -51.552  1.00  0.00     0.254 C 
BRANCH  29  30
HETATM   30  C   UNL     1     -42.044  57.742 -51.259  1.00  0.00    -0.023 A 
HETATM   31  C   UNL     1     -40.721  58.089 -50.914  1.00  0.00     0.009 A 
HETATM   32  C   UNL     1     -40.378  59.402 -50.584  1.00  0.00     0.001 A 
HETATM   33  C   UNL     1     -41.347  60.399 -50.600  1.00  0.00     0.000 A 
HETATM   34  C   UNL     1     -42.657  60.084 -50.948  1.00  0.00     0.001 A 
HETATM   35  C   UNL     1     -43.003  58.770 -51.272  1.00  0.00     0.009 A 
ENDBRANCH  29  30
BRANCH  29  36
HETATM   36  C   UNL     1     -41.661  55.191 -50.750  1.00  0.00    -0.023 A 
HETATM   37  C   UNL     1     -41.235  54.030 -51.434  1.00  0.00     0.009 A 
HETATM   38  C   UNL     1     -40.586  52.990 -50.766  1.00  0.00     0.001 A 
HETATM   39  C   UNL     1     -40.348  53.086 -49.401  1.00  0.00     0.000 A 
HETATM   40  C   UNL     1     -40.758  54.220 -48.707  1.00  0.00     0.001 A 
HETATM   41  C   UNL     1     -41.407  55.264 -49.373  1.00  0.00     0.009 A 
ENDBRANCH  29  36
ENDBRANCH   1  29
TORSDOF 8
ENDMDL
MODEL 7
REMARK VINA RESULT:      -8.4      2.058      4.525
REMARK  8 active torsions:
REMARK  status: ('A' for Active; 'I' for Inactive)
REMARK    1  A    between atoms: C_4  and  C_5 
REMARK    2  A    between atoms: C_5  and  N_6 
REMARK    3  A    between atoms: C_5  and  C_32 
REMARK       I    between atoms: N_10  and  C_11 
REMARK    4  A    between atoms: C_11  and  C_12 
REMARK    5  A    between atoms: C_13  and  N_14 
REMARK    6  A    between atoms: N_14  and  C_15 
REMARK    7  A    between atoms: C_15  and  N_16 
REMARK       I    between atoms: N_16  and  C_17 
REMARK    8  A    between atoms: C_17  and  C_18 
ROOT
HETATM    1  N   UNL     1     -42.310  56.936 -57.639  1.00  0.00    -0.056 N 
HETATM    2  H   UNL     1     -41.291  56.855 -57.709  1.00  0.00     0.281 HD
HETATM    3  C   UNL     1     -42.592  57.932 -56.512  1.00  0.00     0.256 C 
HETATM    4  C   UNL     1     -41.993  57.414 -55.194  1.00  0.00     0.154 C 
HETATM    5  N   UNL     1     -42.515  56.078 -54.901  1.00  0.00    -0.345 N 
HETATM    6  C   UNL     1     -43.712  55.854 -54.193  1.00  0.00     0.256 C 
HETATM    7  O   UNL     1     -44.346  54.811 -54.332  1.00  0.00    -0.267 OA
HETATM    8  C   UNL     1     -42.177  55.090 -55.933  1.00  0.00     0.154 C 
HETATM    9  C   UNL     1     -42.791  55.522 -57.285  1.00  0.00     0.256 C 
ENDROOT
BRANCH   6  10
HETATM   10  C   UNL     1     -44.320  56.962 -53.414  1.00  0.00     0.058 A 
HETATM   11  C   UNL     1     -44.291  57.073 -52.012  1.00  0.00     0.049 A 
HETATM   12  C   UNL     1     -44.643  58.297 -51.425  1.00  0.00     0.030 A 
HETATM   13  C   UNL     1     -45.107  59.357 -52.208  1.00  0.00     0.002 A 
HETATM   14  C   UNL     1     -45.210  59.215 -53.589  1.00  0.00     0.001 A 
HETATM   15  C   UNL     1     -44.809  58.025 -54.193  1.00  0.00     0.019 A 
BRANCH  11  16
HETATM   16  N   UNL     1     -43.873  56.058 -51.124  1.00  0.00    -0.337 N 
HETATM   17  H   UNL     1     -44.594  55.622 -50.558  1.00  0.00     0.168 HD
BRANCH  16  18
HETATM   18  C   UNL     1     -42.630  55.559 -50.920  1.00  0.00     0.157 C 
HETATM   19  S   UNL     1     -41.389  56.620 -50.553  1.00  0.00    -0.047 SA
BRANCH  18  20
HETATM   20  N   UNL     1     -42.388  54.219 -50.883  1.00  0.00    -0.199 NA
HETATM   21  C   UNL     1     -41.111  53.704 -50.675  1.00  0.00     0.261 C 
HETATM   22  O   UNL     1     -40.502  53.781 -49.614  1.00  0.00    -0.271 OA
HETATM   23  H   UNL     1     -42.819  53.792 -51.698  1.00  0.00     0.139 HD
BRANCH  21  24
HETATM   24  C   UNL     1     -40.572  53.010 -51.829  1.00  0.00     0.137 A 
HETATM   25  O   UNL     1     -39.861  51.852 -51.646  1.00  0.00    -0.318 OA
HETATM   26  C   UNL     1     -39.530  51.390 -52.879  1.00  0.00     0.143 A 
HETATM   27  C   UNL     1     -40.009  52.230 -53.856  1.00  0.00     0.027 A 
HETATM   28  C   UNL     1     -40.675  53.280 -53.180  1.00  0.00     0.044 A 
ENDBRANCH  21  24
ENDBRANCH  18  20
ENDBRANCH  16  18
ENDBRANCH  11  16
ENDBRANCH   6  10
BRANCH   1  29
HETATM   29  C   UNL     1     -42.747  57.486 -59.000  1.00  0.00     0.254 C 
BRANCH  29  30
HETATM   30  C   UNL     1     -42.289  58.912 -59.299  1.00  0.00    -0.023 A 
HETATM   31  C   UNL     1     -42.282  59.360 -60.637  1.00  0.00     0.009 A 
HETATM   32  C   UNL     1     -41.823  60.636 -60.973  1.00  0.00     0.001 A 
HETATM   33  C   UNL     1     -41.368  61.494 -59.979  1.00  0.00     0.000 A 
HETATM   34  C   UNL     1     -41.375  61.081 -58.651  1.00  0.00     0.001 A 
HETATM   35  C   UNL     1     -41.828  59.803 -58.314  1.00  0.00     0.009 A 
ENDBRANCH  29  30
BRANCH  29  36
HETATM   36  C   UNL     1     -44.174  57.080 -59.362  1.00  0.00    -0.023 A 
HETATM   37  C   UNL     1     -44.352  56.053 -60.318  1.00  0.00     0.009 A 
HETATM   38  C   UNL     1     -45.626  55.634 -60.705  1.00  0.00     0.001 A 
HETATM   39  C   UNL     1     -46.749  56.229 -60.146  1.00  0.00     0.000 A 
HETATM   40  C   UNL     1     -46.599  57.241 -59.204  1.00  0.00     0.001 A 
HETATM   41  C   UNL     1     -45.325  57.663 -58.813  1.00  0.00     0.009 A 
ENDBRANCH  29  36
ENDBRANCH   1  29
TORSDOF 8
ENDMDL
MODEL 8
REMARK VINA RESULT:      -8.3      3.347      8.243
REMARK  8 active torsions:
REMARK  status: ('A' for Active; 'I' for Inactive)
REMARK    1  A    between atoms: C_4  and  C_5 
REMARK    2  A    between atoms: C_5  and  N_6 
REMARK    3  A    between atoms: C_5  and  C_32 
REMARK       I    between atoms: N_10  and  C_11 
REMARK    4  A    between atoms: C_11  and  C_12 
REMARK    5  A    between atoms: C_13  and  N_14 
REMARK    6  A    between atoms: N_14  and  C_15 
REMARK    7  A    between atoms: C_15  and  N_16 
REMARK       I    between atoms: N_16  and  C_17 
REMARK    8  A    between atoms: C_17  and  C_18 
ROOT
HETATM    1  N   UNL     1     -42.898  55.999 -54.410  1.00  0.00    -0.056 N 
HETATM    2  H   UNL     1     -43.585  55.243 -54.502  1.00  0.00     0.281 HD
HETATM    3  C   UNL     1     -43.693  57.305 -54.338  1.00  0.00     0.256 C 
HETATM    4  C   UNL     1     -44.529  57.479 -55.616  1.00  0.00     0.154 C 
HETATM    5  N   UNL     1     -43.659  57.420 -56.792  1.00  0.00    -0.345 N 
HETATM    6  C   UNL     1     -43.003  58.546 -57.326  1.00  0.00     0.256 C 
HETATM    7  O   UNL     1     -41.979  58.428 -57.995  1.00  0.00    -0.267 OA
HETATM    8  C   UNL     1     -42.955  56.138 -56.923  1.00  0.00     0.154 C 
HETATM    9  C   UNL     1     -42.052  55.915 -55.687  1.00  0.00     0.256 C 
ENDROOT
BRANCH   6  10
HETATM   10  C   UNL     1     -43.441  59.907 -56.924  1.00  0.00     0.058 A 
HETATM   11  C   UNL     1     -44.532  60.601 -57.478  1.00  0.00     0.049 A 
HETATM   12  C   UNL     1     -45.011  61.742 -56.818  1.00  0.00     0.030 A 
HETATM   13  C   UNL     1     -44.358  62.239 -55.687  1.00  0.00     0.002 A 
HETATM   14  C   UNL     1     -43.230  61.594 -55.190  1.00  0.00     0.001 A 
HETATM   15  C   UNL     1     -42.776  60.426 -55.799  1.00  0.00     0.019 A 
BRANCH  11  16
HETATM   16  N   UNL     1     -45.243  60.209 -58.633  1.00  0.00    -0.337 N 
HETATM   17  H   UNL     1     -46.224  59.978 -58.508  1.00  0.00     0.168 HD
BRANCH  16  18
HETATM   18  C   UNL     1     -44.807  60.106 -59.912  1.00  0.00     0.157 C 
HETATM   19  S   UNL     1     -43.661  61.194 -60.460  1.00  0.00    -0.047 SA
BRANCH  18  20
HETATM   20  N   UNL     1     -45.181  59.074 -60.719  1.00  0.00    -0.199 NA
HETATM   21  C   UNL     1     -46.000  58.042 -60.269  1.00  0.00     0.261 C 
HETATM   22  O   UNL     1     -47.187  58.175 -59.994  1.00  0.00    -0.271 OA
HETATM   23  H   UNL     1     -44.350  58.703 -61.171  1.00  0.00     0.139 HD
BRANCH  21  24
HETATM   24  C   UNL     1     -45.328  56.758 -60.201  1.00  0.00     0.137 A 
HETATM   25  O   UNL     1     -46.071  55.619 -60.025  1.00  0.00    -0.318 OA
HETATM   26  C   UNL     1     -45.206  54.572 -60.055  1.00  0.00     0.143 A 
HETATM   27  C   UNL     1     -43.918  55.014 -60.242  1.00  0.00     0.027 A 
HETATM   28  C   UNL     1     -43.994  56.424 -60.329  1.00  0.00     0.044 A 
ENDBRANCH  21  24
ENDBRANCH  18  20
ENDBRANCH  16  18
ENDBRANCH  11  16
ENDBRANCH   6  10
BRANCH   1  29
HETATM   29  C   UNL     1     -42.177  55.704 -53.091  1.00  0.00     0.254 C 
BRANCH  29  30
HETATM   30  C   UNL     1     -41.515  56.911 -52.431  1.00  0.00    -0.023 A 
HETATM   31  C   UNL     1     -40.634  57.707 -53.192  1.00  0.00     0.009 A 
HETATM   32  C   UNL     1     -39.961  58.791 -52.624  1.00  0.00     0.001 A 
HETATM   33  C   UNL     1     -40.156  59.107 -51.285  1.00  0.00     0.000 A 
HETATM   34  C   UNL     1     -41.028  58.343 -50.515  1.00  0.00     0.001 A 
HETATM   35  C   UNL     1     -41.699  57.255 -51.081  1.00  0.00     0.009 A 
ENDBRANCH  29  30
BRANCH  29  36
HETATM   36  C   UNL     1     -41.423  54.376 -53.124  1.00  0.00    -0.023 A 
HETATM   37  C   UNL     1     -40.704  53.989 -51.970  1.00  0.00     0.009 A 
HETATM   38  C   UNL     1     -39.984  52.794 -51.929  1.00  0.00     0.001 A 
HETATM   39  C   UNL     1     -39.967  51.958 -53.038  1.00  0.00     0.000 A 
HETATM   40  C   UNL     1     -40.667  52.318 -54.185  1.00  0.00     0.001 A 
HETATM   41  C   UNL     1     -41.390  53.514 -54.229  1.00  0.00     0.009 A 
ENDBRANCH  29  36
ENDBRANCH   1  29
TORSDOF 8
ENDMDL
MODEL 9
REMARK VINA RESULT:      -8.1      3.156      6.826
REMARK  8 active torsions:
REMARK  status: ('A' for Active; 'I' for Inactive)
REMARK    1  A    between atoms: C_4  and  C_5 
REMARK    2  A    between atoms: C_5  and  N_6 
REMARK    3  A    between atoms: C_5  and  C_32 
REMARK       I    between atoms: N_10  and  C_11 
REMARK    4  A    between atoms: C_11  and  C_12 
REMARK    5  A    between atoms: C_13  and  N_14 
REMARK    6  A    between atoms: N_14  and  C_15 
REMARK    7  A    between atoms: C_15  and  N_16 
REMARK       I    between atoms: N_16  and  C_17 
REMARK    8  A    between atoms: C_17  and  C_18 
ROOT
HETATM    1  N   UNL     1     -43.024  56.581 -54.350  1.00  0.00    -0.056 N 
HETATM    2  H   UNL     1     -43.342  55.735 -54.833  1.00  0.00     0.281 HD
HETATM    3  C   UNL     1     -44.281  57.314 -53.878  1.00  0.00     0.256 C 
HETATM    4  C   UNL     1     -45.161  57.674 -55.086  1.00  0.00     0.154 C 
HETATM    5  N   UNL     1     -44.387  58.459 -56.049  1.00  0.00    -0.345 N 
HETATM    6  C   UNL     1     -44.272  59.862 -55.990  1.00  0.00     0.256 C 
HETATM    7  O   UNL     1     -43.314  60.443 -56.495  1.00  0.00    -0.267 OA
HETATM    8  C   UNL     1     -43.224  57.735 -56.578  1.00  0.00     0.154 C 
HETATM    9  C   UNL     1     -42.265  57.380 -55.418  1.00  0.00     0.256 C 
ENDROOT
BRANCH   6  10
HETATM   10  C   UNL     1     -45.215  60.638 -55.145  1.00  0.00     0.058 A 
HETATM   11  C   UNL     1     -45.026  60.927 -53.781  1.00  0.00     0.049 A 
HETATM   12  C   UNL     1     -45.836  61.901 -53.181  1.00  0.00     0.030 A 
HETATM   13  C   UNL     1     -46.876  62.504 -53.893  1.00  0.00     0.002 A 
HETATM   14  C   UNL     1     -47.110  62.155 -55.220  1.00  0.00     0.001 A 
HETATM   15  C   UNL     1     -46.277  61.232 -55.849  1.00  0.00     0.019 A 
BRANCH  11  16
HETATM   16  N   UNL     1     -44.032  60.355 -52.958  1.00  0.00    -0.337 N 
HETATM   17  H   UNL     1     -43.438  59.650 -53.383  1.00  0.00     0.168 HD
BRANCH  16  18
HETATM   18  C   UNL     1     -43.737  60.621 -51.663  1.00  0.00     0.157 C 
HETATM   19  S   UNL     1     -43.004  62.078 -51.289  1.00  0.00    -0.047 SA
BRANCH  18  20
HETATM   20  N   UNL     1     -44.129  59.797 -50.651  1.00  0.00    -0.199 NA
HETATM   21  C   UNL     1     -45.422  59.822 -50.137  1.00  0.00     0.261 C 
HETATM   22  O   UNL     1     -46.414  59.440 -50.749  1.00  0.00    -0.271 OA
HETATM   23  H   UNL     1     -43.443  59.860 -49.903  1.00  0.00     0.139 HD
BRANCH  21  24
HETATM   24  C   UNL     1     -45.493  60.300 -48.769  1.00  0.00     0.137 A 
HETATM   25  O   UNL     1     -46.205  59.584 -47.842  1.00  0.00    -0.318 OA
HETATM   26  C   UNL     1     -46.056  60.218 -46.650  1.00  0.00     0.143 A 
HETATM   27  C   UNL     1     -45.266  61.334 -46.791  1.00  0.00     0.027 A 
HETATM   28  C   UNL     1     -44.908  61.393 -48.159  1.00  0.00     0.044 A 
ENDBRANCH  21  24
ENDBRANCH  18  20
ENDBRANCH  16  18
ENDBRANCH  11  16
ENDBRANCH   6  10
BRANCH   1  29
HETATM   29  C   UNL     1     -42.198  56.061 -53.169  1.00  0.00     0.254 C 
BRANCH  29  30
HETATM   30  C   UNL     1     -41.511  57.138 -52.334  1.00  0.00    -0.023 A 
HETATM   31  C   UNL     1     -40.658  58.060 -52.976  1.00  0.00     0.009 A 
HETATM   32  C   UNL     1     -39.964  59.032 -52.253  1.00  0.00     0.001 A 
HETATM   33  C   UNL     1     -40.111  59.110 -50.873  1.00  0.00     0.000 A 
HETATM   34  C   UNL     1     -40.955  58.220 -50.217  1.00  0.00     0.001 A 
HETATM   35  C   UNL     1     -41.647  57.243 -50.939  1.00  0.00     0.009 A 
ENDBRANCH  29  30
BRANCH  29  36
HETATM   36  C   UNL     1     -41.422  54.792 -53.517  1.00  0.00    -0.023 A 
HETATM   37  C   UNL     1     -41.134  53.880 -52.475  1.00  0.00     0.009 A 
HETATM   38  C   UNL     1     -40.422  52.704 -52.715  1.00  0.00     0.001 A 
HETATM   39  C   UNL     1     -39.982  52.411 -53.999  1.00  0.00     0.000 A 
HETATM   40  C   UNL     1     -40.254  53.293 -55.040  1.00  0.00     0.001 A 
HETATM   41  C   UNL     1     -40.968  54.471 -54.804  1.00  0.00     0.009 A 
ENDBRANCH  29  36
ENDBRANCH   1  29
TORSDOF 8
ENDMDL
MODEL 10
REMARK VINA RESULT:      -8.1      2.722      5.577
REMARK  8 active torsions:
REMARK  status: ('A' for Active; 'I' for Inactive)
REMARK    1  A    between atoms: C_4  and  C_5 
REMARK    2  A    between atoms: C_5  and  N_6 
REMARK    3  A    between atoms: C_5  and  C_32 
REMARK       I    between atoms: N_10  and  C_11 
REMARK    4  A    between atoms: C_11  and  C_12 
REMARK    5  A    between atoms: C_13  and  N_14 
REMARK    6  A    between atoms: N_14  and  C_15 
REMARK    7  A    between atoms: C_15  and  N_16 
REMARK       I    between atoms: N_16  and  C_17 
REMARK    8  A    between atoms: C_17  and  C_18 
ROOT
HETATM    1  N   UNL     1     -43.956  56.446 -55.008  1.00  0.00    -0.056 N 
HETATM    2  H   UNL     1     -44.849  56.002 -54.771  1.00  0.00     0.281 HD
HETATM    3  C   UNL     1     -43.163  56.557 -53.705  1.00  0.00     0.256 C 
HETATM    4  C   UNL     1     -43.943  57.407 -52.689  1.00  0.00     0.154 C 
HETATM    5  N   UNL     1     -44.251  58.716 -53.267  1.00  0.00    -0.345 N 
HETATM    6  C   UNL     1     -43.378  59.819 -53.194  1.00  0.00     0.256 C 
HETATM    7  O   UNL     1     -43.433  60.729 -54.018  1.00  0.00    -0.267 OA
HETATM    8  C   UNL     1     -45.087  58.630 -54.472  1.00  0.00     0.154 C 
HETATM    9  C   UNL     1     -44.342  57.825 -55.562  1.00  0.00     0.256 C 
ENDROOT
BRANCH   6  10
HETATM   10  C   UNL     1     -42.253  59.798 -52.225  1.00  0.00     0.058 A 
HETATM   11  C   UNL     1     -42.375  60.020 -50.841  1.00  0.00     0.049 A 
HETATM   12  C   UNL     1     -41.296  59.690 -50.008  1.00  0.00     0.030 A 
HETATM   13  C   UNL     1     -40.088  59.242 -50.548  1.00  0.00     0.002 A 
HETATM   14  C   UNL     1     -39.946  59.101 -51.925  1.00  0.00     0.001 A 
HETATM   15  C   UNL     1     -41.027  59.369 -52.762  1.00  0.00     0.019 A 
BRANCH  11  16
HETATM   16  N   UNL     1     -43.534  60.500 -50.193  1.00  0.00    -0.337 N 
HETATM   17  H   UNL     1     -44.015  59.851 -49.579  1.00  0.00     0.168 HD
BRANCH  16  18
HETATM   18  C   UNL     1     -44.105  61.727 -50.261  1.00  0.00     0.157 C 
HETATM   19  S   UNL     1     -43.112  63.071 -50.357  1.00  0.00    -0.047 SA
BRANCH  18  20
HETATM   20  N   UNL     1     -45.452  61.890 -50.377  1.00  0.00    -0.199 NA
HETATM   21  C   UNL     1     -46.228  61.070 -51.191  1.00  0.00     0.261 C 
HETATM   22  O   UNL     1     -46.452  59.886 -50.963  1.00  0.00    -0.271 OA
HETATM   23  H   UNL     1     -45.642  62.870 -50.568  1.00  0.00     0.139 HD
BRANCH  21  24
HETATM   24  C   UNL     1     -46.802  61.762 -52.330  1.00  0.00     0.137 A 
HETATM   25  O   UNL     1     -48.157  61.707 -52.536  1.00  0.00    -0.318 OA
HETATM   26  C   UNL     1     -48.425  62.479 -53.622  1.00  0.00     0.143 A 
HETATM   27  C   UNL     1     -47.268  63.026 -54.123  1.00  0.00     0.027 A 
HETATM   28  C   UNL     1     -46.220  62.559 -53.296  1.00  0.00     0.044 A 
ENDBRANCH  21  24
ENDBRANCH  18  20
ENDBRANCH  16  18
ENDBRANCH  11  16
ENDBRANCH   6  10
BRANCH   1  29
HETATM   29  C   UNL     1     -43.294  55.476 -55.991  1.00  0.00     0.254 C 
BRANCH  29  30
HETATM   30  C   UNL     1     -42.229  54.566 -55.384  1.00  0.00    -0.023 A 
HETATM   31  C   UNL     1     -40.871  54.929 -55.506  1.00  0.00     0.009 A 
HETATM   32  C   UNL     1     -39.854  54.107 -55.016  1.00  0.00     0.001 A 
HETATM   33  C   UNL     1     -40.169  52.908 -54.388  1.00  0.00     0.000 A 
HETATM   34  C   UNL     1     -41.502  52.533 -54.245  1.00  0.00     0.001 A 
HETATM   35  C   UNL     1     -42.521  53.351 -54.739  1.00  0.00     0.009 A 
ENDBRANCH  29  30
BRANCH  29  36
HETATM   36  C   UNL     1     -43.027  56.116 -57.352  1.00  0.00    -0.023 A 
HETATM   37  C   UNL     1     -42.344  57.354 -57.383  1.00  0.00     0.009 A 
HETATM   38  C   UNL     1     -42.071  58.003 -58.588  1.00  0.00     0.001 A 
HETATM   39  C   UNL     1     -42.472  57.432 -59.788  1.00  0.00     0.000 A 
HETATM   40  C   UNL     1     -43.145  56.214 -59.783  1.00  0.00     0.001 A 
HETATM   41  C   UNL     1     -43.419  55.560 -58.577  1.00  0.00     0.009 A 
ENDBRANCH  29  36
ENDBRANCH   1  29
TORSDOF 8
ENDMDL
