MODEL 1
REMARK VINA RESULT:      -7.7      0.000      0.000
REMARK  4 active torsions:
REMARK  status: ('A' for Active; 'I' for Inactive)
REMARK    1  A    between atoms: C_8  and  N_9 
REMARK       I    between atoms: N_9  and  C_10 
REMARK       I    between atoms: C_10  and  N_11 
REMARK    2  A    between atoms: N_11  and  C_12 
REMARK    3  A    between atoms: C_15  and  C_16 
REMARK       I    between atoms: C_16  and  N_17 
REMARK    4  A    between atoms: N_17  and  C_18 
ROOT
HETATM    1  C   UNL     1     -43.283  57.242 -51.455  1.00  0.00     0.036 A 
HETATM    2  C   UNL     1     -42.153  56.774 -50.781  1.00  0.00     0.030 A 
HETATM    3  C   UNL     1     -41.246  55.917 -51.417  1.00  0.00     0.019 A 
HETATM    4  C   UNL     1     -41.472  55.500 -52.732  1.00  0.00     0.032 A 
HETATM    5  C   UNL     1     -42.570  56.016 -53.430  1.00  0.00     0.019 A 
HETATM    6  C   UNL     1     -43.467  56.881 -52.795  1.00  0.00     0.030 A 
ENDROOT
BRANCH   1   7
HETATM    7  N   UNL     1     -44.299  58.011 -50.851  1.00  0.00    -0.309 N 
HETATM    8  C   UNL     1     -44.399  59.397 -50.803  1.00  0.00     0.325 C 
HETATM    9  N   UNL     1     -45.332  59.768 -49.848  1.00  0.00    -0.305 N 
HETATM   10  O   UNL     1     -43.729  60.169 -51.472  1.00  0.00    -0.247 OA
HETATM   11  H   UNL     1     -45.568  59.068 -49.164  1.00  0.00     0.171 HD
HETATM   12  H   UNL     1     -45.059  57.498 -50.434  1.00  0.00     0.170 HD
BRANCH   9  13
HETATM   13  C   UNL     1     -45.718  61.059 -49.528  1.00  0.00     0.086 A 
HETATM   14  C   UNL     1     -45.497  61.593 -48.271  1.00  0.00     0.052 A 
HETATM   15  C   UNL     1     -44.857  61.055 -47.048  1.00  0.00     0.072 C 
HETATM   16  N   UNL     1     -45.977  62.871 -48.319  1.00  0.00    -0.280 N 
HETATM   17  H   UNL     1     -45.968  63.573 -47.587  1.00  0.00     0.189 HD
HETATM   18  N   UNL     1     -46.524  63.199 -49.491  1.00  0.00    -0.177 NA
HETATM   19  C   UNL     1     -46.379  62.099 -50.247  1.00  0.00     0.079 A 
HETATM   20  C   UNL     1     -46.929  62.120 -51.625  1.00  0.00     0.075 C 
ENDBRANCH   9  13
ENDBRANCH   1   7
BRANCH   4  21
HETATM   21  C   UNL     1     -40.614  54.485 -53.412  1.00  0.00     0.252 C 
HETATM   22  N   UNL     1     -40.426  53.299 -52.730  1.00  0.00    -0.352 N 
HETATM   23  H   UNL     1     -40.992  53.139 -51.909  1.00  0.00     0.163 HD
HETATM   24  O   UNL     1     -40.184  54.708 -54.538  1.00  0.00    -0.268 OA
BRANCH  22  25
HETATM   25  C   UNL     1     -39.842  52.111 -53.319  1.00  0.00     0.084 C 
HETATM   26  C   UNL     1     -39.597  50.983 -52.318  1.00  0.00     0.025 C 
HETATM   27  C   UNL     1     -39.411  49.774 -53.218  1.00  0.00     0.002 C 
HETATM   28  C   UNL     1     -40.484  49.960 -54.282  1.00  0.00     0.002 C 
HETATM   29  C   UNL     1     -40.617  51.472 -54.478  1.00  0.00     0.025 C 
ENDBRANCH  22  25
ENDBRANCH   4  21
TORSDOF 4
ENDMDL
MODEL 2
REMARK VINA RESULT:      -7.4      0.990      1.987
REMARK  4 active torsions:
REMARK  status: ('A' for Active; 'I' for Inactive)
REMARK    1  A    between atoms: C_8  and  N_9 
REMARK       I    between atoms: N_9  and  C_10 
REMARK       I    between atoms: C_10  and  N_11 
REMARK    2  A    between atoms: N_11  and  C_12 
REMARK    3  A    between atoms: C_15  and  C_16 
REMARK       I    between atoms: C_16  and  N_17 
REMARK    4  A    between atoms: N_17  and  C_18 
ROOT
HETATM    1  C   UNL     1     -42.302  57.877 -51.588  1.00  0.00     0.036 A 
HETATM    2  C   UNL     1     -41.873  58.083 -52.901  1.00  0.00     0.030 A 
HETATM    3  C   UNL     1     -41.327  57.032 -53.648  1.00  0.00     0.019 A 
HETATM    4  C   UNL     1     -41.184  55.762 -53.080  1.00  0.00     0.032 A 
HETATM    5  C   UNL     1     -41.669  55.537 -51.787  1.00  0.00     0.019 A 
HETATM    6  C   UNL     1     -42.225  56.587 -51.048  1.00  0.00     0.030 A 
ENDROOT
BRANCH   1   7
HETATM    7  N   UNL     1     -42.754  58.905 -50.736  1.00  0.00    -0.309 N 
HETATM    8  C   UNL     1     -44.062  59.329 -50.538  1.00  0.00     0.325 C 
HETATM    9  N   UNL     1     -44.067  60.560 -49.902  1.00  0.00    -0.305 N 
HETATM   10  O   UNL     1     -45.056  58.725 -50.912  1.00  0.00    -0.247 OA
HETATM   11  H   UNL     1     -43.205  61.081 -49.939  1.00  0.00     0.171 HD
HETATM   12  H   UNL     1     -42.050  59.364 -50.180  1.00  0.00     0.170 HD
BRANCH   9  13
HETATM   13  C   UNL     1     -45.181  61.289 -49.520  1.00  0.00     0.086 A 
HETATM   14  C   UNL     1     -45.856  62.105 -50.411  1.00  0.00     0.052 A 
HETATM   15  C   UNL     1     -45.657  62.406 -51.848  1.00  0.00     0.072 C 
HETATM   16  N   UNL     1     -46.896  62.642 -49.709  1.00  0.00    -0.280 N 
HETATM   17  H   UNL     1     -47.618  63.273 -50.042  1.00  0.00     0.189 HD
HETATM   18  N   UNL     1     -46.932  62.273 -48.428  1.00  0.00    -0.177 NA
HETATM   19  C   UNL     1     -45.885  61.445 -48.289  1.00  0.00     0.079 A 
HETATM   20  C   UNL     1     -45.615  60.879 -46.945  1.00  0.00     0.075 C 
ENDBRANCH   9  13
ENDBRANCH   1   7
BRANCH   4  21
HETATM   21  C   UNL     1     -40.488  54.642 -53.780  1.00  0.00     0.252 C 
HETATM   22  N   UNL     1     -40.293  53.494 -53.037  1.00  0.00    -0.352 N 
HETATM   23  H   UNL     1     -40.760  53.432 -52.143  1.00  0.00     0.163 HD
HETATM   24  O   UNL     1     -40.191  54.756 -54.963  1.00  0.00    -0.268 OA
BRANCH  22  25
HETATM   25  C   UNL     1     -39.869  52.228 -53.601  1.00  0.00     0.084 C 
HETATM   26  C   UNL     1     -39.523  51.171 -52.553  1.00  0.00     0.025 C 
HETATM   27  C   UNL     1     -39.541  49.885 -53.360  1.00  0.00     0.002 C 
HETATM   28  C   UNL     1     -40.759  50.051 -54.259  1.00  0.00     0.002 C 
HETATM   29  C   UNL     1     -40.848  51.548 -54.565  1.00  0.00     0.025 C 
ENDBRANCH  22  25
ENDBRANCH   4  21
TORSDOF 4
ENDMDL
MODEL 3
REMARK VINA RESULT:      -7.3     17.970     20.720
REMARK  4 active torsions:
REMARK  status: ('A' for Active; 'I' for Inactive)
REMARK    1  A    between atoms: C_8  and  N_9 
REMARK       I    between atoms: N_9  and  C_10 
REMARK       I    between atoms: C_10  and  N_11 
REMARK    2  A    between atoms: N_11  and  C_12 
REMARK    3  A    between atoms: C_15  and  C_16 
REMARK       I    between atoms: C_16  and  N_17 
REMARK    4  A    between atoms: N_17  and  C_18 
ROOT
HETATM    1  C   UNL     1     -37.221  41.195 -57.289  1.00  0.00     0.036 A 
HETATM    2  C   UNL     1     -37.939  40.906 -56.126  1.00  0.00     0.030 A 
HETATM    3  C   UNL     1     -37.400  41.189 -54.865  1.00  0.00     0.019 A 
HETATM    4  C   UNL     1     -36.121  41.745 -54.753  1.00  0.00     0.032 A 
HETATM    5  C   UNL     1     -35.426  42.092 -55.916  1.00  0.00     0.019 A 
HETATM    6  C   UNL     1     -35.973  41.819 -57.174  1.00  0.00     0.030 A 
ENDROOT
BRANCH   1   7
HETATM    7  N   UNL     1     -37.645  40.837 -58.585  1.00  0.00    -0.309 N 
HETATM    8  C   UNL     1     -37.965  39.568 -59.053  1.00  0.00     0.325 C 
HETATM    9  N   UNL     1     -38.004  39.574 -60.438  1.00  0.00    -0.305 N 
HETATM   10  O   UNL     1     -38.139  38.587 -58.347  1.00  0.00    -0.247 OA
HETATM   11  H   UNL     1     -37.538  40.344 -60.891  1.00  0.00     0.171 HD
HETATM   12  H   UNL     1     -37.763  41.594 -59.240  1.00  0.00     0.170 HD
BRANCH   9  13
HETATM   13  C   UNL     1     -38.307  38.502 -61.261  1.00  0.00     0.086 A 
HETATM   14  C   UNL     1     -37.348  37.903 -62.057  1.00  0.00     0.052 A 
HETATM   15  C   UNL     1     -35.900  38.154 -62.250  1.00  0.00     0.072 C 
HETATM   16  N   UNL     1     -37.985  36.884 -62.706  1.00  0.00    -0.280 N 
HETATM   17  H   UNL     1     -37.593  36.212 -63.358  1.00  0.00     0.189 HD
HETATM   18  N   UNL     1     -39.286  36.794 -62.425  1.00  0.00    -0.177 NA
HETATM   19  C   UNL     1     -39.506  37.782 -61.543  1.00  0.00     0.079 A 
HETATM   20  C   UNL     1     -40.891  37.983 -61.050  1.00  0.00     0.075 C 
ENDBRANCH   9  13
ENDBRANCH   1   7
BRANCH   4  21
HETATM   21  C   UNL     1     -35.444  41.942 -53.437  1.00  0.00     0.252 C 
HETATM   22  N   UNL     1     -34.668  40.888 -52.993  1.00  0.00    -0.352 N 
HETATM   23  H   UNL     1     -34.490  40.135 -53.643  1.00  0.00     0.163 HD
HETATM   24  O   UNL     1     -35.541  43.017 -52.857  1.00  0.00    -0.268 OA
BRANCH  22  25
HETATM   25  C   UNL     1     -33.745  40.976 -51.880  1.00  0.00     0.084 C 
HETATM   26  C   UNL     1     -34.168  40.156 -50.662  1.00  0.00     0.025 C 
HETATM   27  C   UNL     1     -32.883  40.070 -49.857  1.00  0.00     0.002 C 
HETATM   28  C   UNL     1     -31.819  39.821 -50.918  1.00  0.00     0.002 C 
HETATM   29  C   UNL     1     -32.293  40.573 -52.165  1.00  0.00     0.025 C 
ENDBRANCH  22  25
ENDBRANCH   4  21
TORSDOF 4
ENDMDL
MODEL 4
REMARK VINA RESULT:      -7.3      5.652      7.220
REMARK  4 active torsions:
REMARK  status: ('A' for Active; 'I' for Inactive)
REMARK    1  A    between atoms: C_8  and  N_9 
REMARK       I    between atoms: N_9  and  C_10 
REMARK       I    between atoms: C_10  and  N_11 
REMARK    2  A    between atoms: N_11  and  C_12 
REMARK    3  A    between atoms: C_15  and  C_16 
REMARK       I    between atoms: C_16  and  N_17 
REMARK    4  A    between atoms: N_17  and  C_18 
ROOT
HETATM    1  C   UNL     1     -42.973  56.118 -55.800  1.00  0.00     0.036 A 
HETATM    2  C   UNL     1     -42.057  56.730 -54.941  1.00  0.00     0.030 A 
HETATM    3  C   UNL     1     -41.272  55.964 -54.070  1.00  0.00     0.019 A 
HETATM    4  C   UNL     1     -41.411  54.572 -54.035  1.00  0.00     0.032 A 
HETATM    5  C   UNL     1     -42.282  53.953 -54.936  1.00  0.00     0.019 A 
HETATM    6  C   UNL     1     -43.056  54.720 -55.813  1.00  0.00     0.030 A 
ENDROOT
BRANCH   1   7
HETATM    7  N   UNL     1     -43.877  56.824 -56.620  1.00  0.00    -0.309 N 
HETATM    8  C   UNL     1     -43.672  57.272 -57.919  1.00  0.00     0.325 C 
HETATM    9  N   UNL     1     -44.644  58.201 -58.255  1.00  0.00    -0.305 N 
HETATM   10  O   UNL     1     -42.744  56.930 -58.638  1.00  0.00    -0.247 OA
HETATM   11  H   UNL     1     -45.141  58.620 -57.486  1.00  0.00     0.171 HD
HETATM   12  H   UNL     1     -44.791  56.994 -56.231  1.00  0.00     0.170 HD
BRANCH   9  13
HETATM   13  C   UNL     1     -44.780  58.853 -59.470  1.00  0.00     0.086 A 
HETATM   14  C   UNL     1     -45.835  58.588 -60.323  1.00  0.00     0.052 A 
HETATM   15  C   UNL     1     -47.002  57.678 -60.229  1.00  0.00     0.072 C 
HETATM   16  N   UNL     1     -45.664  59.414 -61.397  1.00  0.00    -0.280 N 
HETATM   17  H   UNL     1     -46.257  59.514 -62.213  1.00  0.00     0.189 HD
HETATM   18  N   UNL     1     -44.564  60.168 -61.328  1.00  0.00    -0.177 NA
HETATM   19  C   UNL     1     -44.004  59.835 -60.154  1.00  0.00     0.079 A 
HETATM   20  C   UNL     1     -42.719  60.478 -59.787  1.00  0.00     0.075 C 
ENDBRANCH   9  13
ENDBRANCH   1   7
BRANCH   4  21
HETATM   21  C   UNL     1     -40.701  53.720 -53.036  1.00  0.00     0.252 C 
HETATM   22  N   UNL     1     -40.576  52.383 -53.363  1.00  0.00    -0.352 N 
HETATM   23  H   UNL     1     -40.830  52.107 -54.301  1.00  0.00     0.163 HD
HETATM   24  O   UNL     1     -40.212  54.233 -52.036  1.00  0.00    -0.268 OA
BRANCH  22  25
HETATM   25  C   UNL     1     -39.717  51.454 -52.656  1.00  0.00     0.084 C 
HETATM   26  C   UNL     1     -40.134  51.210 -51.206  1.00  0.00     0.025 C 
HETATM   27  C   UNL     1     -39.383  49.938 -50.855  1.00  0.00     0.002 C 
HETATM   28  C   UNL     1     -39.538  49.082 -52.105  1.00  0.00     0.002 C 
HETATM   29  C   UNL     1     -39.559  50.062 -53.280  1.00  0.00     0.025 C 
ENDBRANCH  22  25
ENDBRANCH   4  21
TORSDOF 4
ENDMDL
MODEL 5
REMARK VINA RESULT:      -7.1     18.187     21.020
REMARK  4 active torsions:
REMARK  status: ('A' for Active; 'I' for Inactive)
REMARK    1  A    between atoms: C_8  and  N_9 
REMARK       I    between atoms: N_9  and  C_10 
REMARK       I    between atoms: C_10  and  N_11 
REMARK    2  A    between atoms: N_11  and  C_12 
REMARK    3  A    between atoms: C_15  and  C_16 
REMARK       I    between atoms: C_16  and  N_17 
REMARK    4  A    between atoms: N_17  and  C_18 
ROOT
HETATM    1  C   UNL     1     -33.582  40.753 -52.114  1.00  0.00     0.036 A 
HETATM    2  C   UNL     1     -34.320  40.494 -50.956  1.00  0.00     0.030 A 
HETATM    3  C   UNL     1     -33.689  40.020 -49.799  1.00  0.00     0.019 A 
HETATM    4  C   UNL     1     -32.312  39.778 -49.794  1.00  0.00     0.032 A 
HETATM    5  C   UNL     1     -31.562  40.094 -50.932  1.00  0.00     0.019 A 
HETATM    6  C   UNL     1     -32.194  40.578 -52.082  1.00  0.00     0.030 A 
ENDROOT
BRANCH   1   7
HETATM    7  N   UNL     1     -34.157  41.120 -53.347  1.00  0.00    -0.309 N 
HETATM    8  C   UNL     1     -34.708  40.283 -54.310  1.00  0.00     0.325 C 
HETATM    9  N   UNL     1     -34.854  40.971 -55.504  1.00  0.00    -0.305 N 
HETATM   10  O   UNL     1     -34.980  39.104 -54.137  1.00  0.00    -0.247 OA
HETATM   11  H   UNL     1     -34.310  41.813 -55.599  1.00  0.00     0.171 HD
HETATM   12  H   UNL     1     -34.205  42.108 -53.540  1.00  0.00     0.170 HD
BRANCH   9  13
HETATM   13  C   UNL     1     -35.386  40.476 -56.684  1.00  0.00     0.086 A 
HETATM   14  C   UNL     1     -36.553  40.983 -57.225  1.00  0.00     0.052 A 
HETATM   15  C   UNL     1     -37.469  42.069 -56.802  1.00  0.00     0.072 C 
HETATM   16  N   UNL     1     -36.763  40.286 -58.379  1.00  0.00    -0.280 N 
HETATM   17  H   UNL     1     -37.513  40.399 -59.053  1.00  0.00     0.189 HD
HETATM   18  N   UNL     1     -35.849  39.342 -58.614  1.00  0.00    -0.177 NA
HETATM   19  C   UNL     1     -34.996  39.439 -57.583  1.00  0.00     0.079 A 
HETATM   20  C   UNL     1     -33.863  38.483 -57.521  1.00  0.00     0.075 C 
ENDBRANCH   9  13
ENDBRANCH   1   7
BRANCH   4  21
HETATM   21  C   UNL     1     -31.611  39.147 -48.637  1.00  0.00     0.252 C 
HETATM   22  N   UNL     1     -30.981  40.015 -47.766  1.00  0.00    -0.352 N 
HETATM   23  H   UNL     1     -31.162  41.002 -47.881  1.00  0.00     0.163 HD
HETATM   24  O   UNL     1     -31.678  37.934 -48.472  1.00  0.00    -0.268 OA
BRANCH  22  25
HETATM   25  C   UNL     1     -30.466  39.627 -46.468  1.00  0.00     0.084 C 
HETATM   26  C   UNL     1     -29.864  40.785 -45.673  1.00  0.00     0.025 C 
HETATM   27  C   UNL     1     -29.812  40.226 -44.261  1.00  0.00     0.002 C 
HETATM   28  C   UNL     1     -31.139  39.493 -44.125  1.00  0.00     0.002 C 
HETATM   29  C   UNL     1     -31.457  38.945 -45.517  1.00  0.00     0.025 C 
ENDBRANCH  22  25
ENDBRANCH   4  21
TORSDOF 4
ENDMDL
MODEL 6
REMARK VINA RESULT:      -7.1      6.706     10.436
REMARK  4 active torsions:
REMARK  status: ('A' for Active; 'I' for Inactive)
REMARK    1  A    between atoms: C_8  and  N_9 
REMARK       I    between atoms: N_9  and  C_10 
REMARK       I    between atoms: C_10  and  N_11 
REMARK    2  A    between atoms: N_11  and  C_12 
REMARK    3  A    between atoms: C_15  and  C_16 
REMARK       I    between atoms: C_16  and  N_17 
REMARK    4  A    between atoms: N_17  and  C_18 
ROOT
HETATM    1  C   UNL     1     -43.198  56.045 -57.748  1.00  0.00     0.036 A 
HETATM    2  C   UNL     1     -43.715  55.488 -58.920  1.00  0.00     0.030 A 
HETATM    3  C   UNL     1     -44.786  56.096 -59.588  1.00  0.00     0.019 A 
HETATM    4  C   UNL     1     -45.367  57.260 -59.076  1.00  0.00     0.032 A 
HETATM    5  C   UNL     1     -44.812  57.853 -57.937  1.00  0.00     0.019 A 
HETATM    6  C   UNL     1     -43.735  57.250 -57.280  1.00  0.00     0.030 A 
ENDROOT
BRANCH   1   7
HETATM    7  N   UNL     1     -42.202  55.434 -56.959  1.00  0.00    -0.309 N 
HETATM    8  C   UNL     1     -42.361  54.804 -55.731  1.00  0.00     0.325 C 
HETATM    9  N   UNL     1     -41.126  54.638 -55.124  1.00  0.00    -0.305 N 
HETATM   10  O   UNL     1     -43.435  54.487 -55.242  1.00  0.00    -0.247 OA
HETATM   11  H   UNL     1     -40.379  55.215 -55.475  1.00  0.00     0.171 HD
HETATM   12  H   UNL     1     -41.272  55.423 -57.346  1.00  0.00     0.170 HD
BRANCH   9  13
HETATM   13  C   UNL     1     -40.879  54.033 -53.902  1.00  0.00     0.086 A 
HETATM   14  C   UNL     1     -40.986  54.729 -52.712  1.00  0.00     0.052 A 
HETATM   15  C   UNL     1     -41.360  56.128 -52.395  1.00  0.00     0.072 C 
HETATM   16  N   UNL     1     -40.699  53.829 -51.726  1.00  0.00    -0.280 N 
HETATM   17  H   UNL     1     -40.698  53.977 -50.723  1.00  0.00     0.189 HD
HETATM   18  N   UNL     1     -40.379  52.616 -52.180  1.00  0.00    -0.177 NA
HETATM   19  C   UNL     1     -40.480  52.720 -53.514  1.00  0.00     0.079 A 
HETATM   20  C   UNL     1     -40.144  51.531 -54.335  1.00  0.00     0.075 C 
ENDBRANCH   9  13
ENDBRANCH   1   7
BRANCH   4  21
HETATM   21  C   UNL     1     -46.592  57.874 -59.669  1.00  0.00     0.252 C 
HETATM   22  N   UNL     1     -46.825  57.593 -61.001  1.00  0.00    -0.352 N 
HETATM   23  H   UNL     1     -46.251  56.883 -61.434  1.00  0.00     0.163 HD
HETATM   24  O   UNL     1     -47.352  58.523 -58.959  1.00  0.00    -0.268 OA
BRANCH  22  25
HETATM   25  C   UNL     1     -48.070  57.883 -61.683  1.00  0.00     0.084 C 
HETATM   26  C   UNL     1     -48.112  59.270 -62.323  1.00  0.00     0.025 C 
HETATM   27  C   UNL     1     -49.275  59.152 -63.294  1.00  0.00     0.002 C 
HETATM   28  C   UNL     1     -49.088  57.769 -63.901  1.00  0.00     0.002 C 
HETATM   29  C   UNL     1     -48.485  56.905 -62.790  1.00  0.00     0.025 C 
ENDBRANCH  22  25
ENDBRANCH   4  21
TORSDOF 4
ENDMDL
MODEL 7
REMARK VINA RESULT:      -7.1      5.755      9.994
REMARK  4 active torsions:
REMARK  status: ('A' for Active; 'I' for Inactive)
REMARK    1  A    between atoms: C_8  and  N_9 
REMARK       I    between atoms: N_9  and  C_10 
REMARK       I    between atoms: C_10  and  N_11 
REMARK    2  A    between atoms: N_11  and  C_12 
REMARK    3  A    between atoms: C_15  and  C_16 
REMARK       I    between atoms: C_16  and  N_17 
REMARK    4  A    between atoms: N_17  and  C_18 
ROOT
HETATM    1  C   UNL     1     -42.602  55.958 -55.902  1.00  0.00     0.036 A 
HETATM    2  C   UNL     1     -42.421  57.334 -56.055  1.00  0.00     0.030 A 
HETATM    3  C   UNL     1     -42.593  57.943 -57.305  1.00  0.00     0.019 A 
HETATM    4  C   UNL     1     -42.929  57.174 -58.424  1.00  0.00     0.032 A 
HETATM    5  C   UNL     1     -43.171  55.806 -58.261  1.00  0.00     0.019 A 
HETATM    6  C   UNL     1     -43.010  55.204 -57.010  1.00  0.00     0.030 A 
ENDROOT
BRANCH   1   7
HETATM    7  N   UNL     1     -42.337  55.256 -54.709  1.00  0.00    -0.309 N 
HETATM    8  C   UNL     1     -41.226  54.476 -54.412  1.00  0.00     0.325 C 
HETATM    9  N   UNL     1     -41.485  53.693 -53.298  1.00  0.00    -0.305 N 
HETATM   10  O   UNL     1     -40.193  54.454 -55.065  1.00  0.00    -0.247 OA
HETATM   11  H   UNL     1     -42.455  53.573 -53.057  1.00  0.00     0.171 HD
HETATM   12  H   UNL     1     -43.016  55.359 -53.971  1.00  0.00     0.170 HD
BRANCH   9  13
HETATM   13  C   UNL     1     -40.613  52.803 -52.693  1.00  0.00     0.086 A 
HETATM   14  C   UNL     1     -40.102  53.033 -51.428  1.00  0.00     0.052 A 
HETATM   15  C   UNL     1     -40.301  54.124 -50.445  1.00  0.00     0.072 C 
HETATM   16  N   UNL     1     -39.309  51.958 -51.145  1.00  0.00    -0.280 N 
HETATM   17  H   UNL     1     -38.787  51.770 -50.296  1.00  0.00     0.189 HD
HETATM   18  N   UNL     1     -39.234  51.066 -52.135  1.00  0.00    -0.177 NA
HETATM   19  C   UNL     1     -40.024  51.569 -53.097  1.00  0.00     0.079 A 
HETATM   20  C   UNL     1     -40.129  50.821 -54.375  1.00  0.00     0.075 C 
ENDBRANCH   9  13
ENDBRANCH   1   7
BRANCH   4  21
HETATM   21  C   UNL     1     -42.993  57.746 -59.801  1.00  0.00     0.252 C 
HETATM   22  N   UNL     1     -43.321  59.086 -59.885  1.00  0.00    -0.352 N 
HETATM   23  H   UNL     1     -43.344  59.614 -59.024  1.00  0.00     0.163 HD
HETATM   24  O   UNL     1     -42.695  57.049 -60.764  1.00  0.00    -0.268 OA
BRANCH  22  25
HETATM   25  C   UNL     1     -43.194  59.876 -61.093  1.00  0.00     0.084 C 
HETATM   26  C   UNL     1     -44.167  61.052 -61.165  1.00  0.00     0.025 C 
HETATM   27  C   UNL     1     -43.556  61.923 -62.249  1.00  0.00     0.002 C 
HETATM   28  C   UNL     1     -42.065  61.867 -61.945  1.00  0.00     0.002 C 
HETATM   29  C   UNL     1     -41.808  60.469 -61.377  1.00  0.00     0.025 C 
ENDBRANCH  22  25
ENDBRANCH   4  21
TORSDOF 4
ENDMDL
MODEL 8
REMARK VINA RESULT:      -7.1      5.858     10.224
REMARK  4 active torsions:
REMARK  status: ('A' for Active; 'I' for Inactive)
REMARK    1  A    between atoms: C_8  and  N_9 
REMARK       I    between atoms: N_9  and  C_10 
REMARK       I    between atoms: C_10  and  N_11 
REMARK    2  A    between atoms: N_11  and  C_12 
REMARK    3  A    between atoms: C_15  and  C_16 
REMARK       I    between atoms: C_16  and  N_17 
REMARK    4  A    between atoms: N_17  and  C_18 
ROOT
HETATM    1  C   UNL     1     -41.971  55.517 -55.918  1.00  0.00     0.036 A 
HETATM    2  C   UNL     1     -42.009  56.771 -55.304  1.00  0.00     0.030 A 
HETATM    3  C   UNL     1     -42.766  57.813 -55.854  1.00  0.00     0.019 A 
HETATM    4  C   UNL     1     -43.478  57.617 -57.042  1.00  0.00     0.032 A 
HETATM    5  C   UNL     1     -43.490  56.346 -57.626  1.00  0.00     0.019 A 
HETATM    6  C   UNL     1     -42.743  55.304 -57.066  1.00  0.00     0.030 A 
ENDROOT
BRANCH   1   7
HETATM    7  N   UNL     1     -41.146  54.456 -55.491  1.00  0.00    -0.309 N 
HETATM    8  C   UNL     1     -41.318  53.643 -54.377  1.00  0.00     0.325 C 
HETATM    9  N   UNL     1     -40.144  52.957 -54.110  1.00  0.00    -0.305 N 
HETATM   10  O   UNL     1     -42.339  53.580 -53.709  1.00  0.00    -0.247 OA
HETATM   11  H   UNL     1     -39.307  53.332 -54.528  1.00  0.00     0.171 HD
HETATM   12  H   UNL     1     -40.358  54.240 -56.080  1.00  0.00     0.170 HD
BRANCH   9  13
HETATM   13  C   UNL     1     -39.935  52.040 -53.093  1.00  0.00     0.086 A 
HETATM   14  C   UNL     1     -39.762  50.693 -53.352  1.00  0.00     0.052 A 
HETATM   15  C   UNL     1     -39.726  49.907 -54.608  1.00  0.00     0.072 C 
HETATM   16  N   UNL     1     -39.562  50.102 -52.138  1.00  0.00    -0.280 N 
HETATM   17  H   UNL     1     -39.379  49.124 -51.938  1.00  0.00     0.189 HD
HETATM   18  N   UNL     1     -39.628  50.948 -51.108  1.00  0.00    -0.177 NA
HETATM   19  C   UNL     1     -39.861  52.143 -51.672  1.00  0.00     0.079 A 
HETATM   20  C   UNL     1     -40.030  53.316 -50.779  1.00  0.00     0.075 C 
ENDBRANCH   9  13
ENDBRANCH   1   7
BRANCH   4  21
HETATM   21  C   UNL     1     -44.190  58.725 -57.744  1.00  0.00     0.252 C 
HETATM   22  N   UNL     1     -44.906  58.366 -58.870  1.00  0.00    -0.352 N 
HETATM   23  H   UNL     1     -45.025  57.380 -59.051  1.00  0.00     0.163 HD
HETATM   24  O   UNL     1     -44.170  59.857 -57.273  1.00  0.00    -0.268 OA
BRANCH  22  25
HETATM   25  C   UNL     1     -45.852  59.236 -59.538  1.00  0.00     0.084 C 
HETATM   26  C   UNL     1     -45.289  59.919 -60.784  1.00  0.00     0.025 C 
HETATM   27  C   UNL     1     -46.543  60.390 -61.500  1.00  0.00     0.002 C 
HETATM   28  C   UNL     1     -47.500  59.217 -61.341  1.00  0.00     0.002 C 
HETATM   29  C   UNL     1     -47.173  58.595 -59.982  1.00  0.00     0.025 C 
ENDBRANCH  22  25
ENDBRANCH   4  21
TORSDOF 4
ENDMDL
MODEL 9
REMARK VINA RESULT:      -7.0      2.220      3.760
REMARK  4 active torsions:
REMARK  status: ('A' for Active; 'I' for Inactive)
REMARK    1  A    between atoms: C_8  and  N_9 
REMARK       I    between atoms: N_9  and  C_10 
REMARK       I    between atoms: C_10  and  N_11 
REMARK    2  A    between atoms: N_11  and  C_12 
REMARK    3  A    between atoms: C_15  and  C_16 
REMARK       I    between atoms: C_16  and  N_17 
REMARK    4  A    between atoms: N_17  and  C_18 
ROOT
HETATM    1  C   UNL     1     -44.597  60.029 -51.343  1.00  0.00     0.036 A 
HETATM    2  C   UNL     1     -45.275  59.802 -52.543  1.00  0.00     0.030 A 
HETATM    3  C   UNL     1     -44.884  58.765 -53.399  1.00  0.00     0.019 A 
HETATM    4  C   UNL     1     -43.793  57.953 -53.072  1.00  0.00     0.032 A 
HETATM    5  C   UNL     1     -43.152  58.138 -51.843  1.00  0.00     0.019 A 
HETATM    6  C   UNL     1     -43.552  59.168 -50.985  1.00  0.00     0.030 A 
ENDROOT
BRANCH   1   7
HETATM    7  N   UNL     1     -44.855  61.119 -50.487  1.00  0.00    -0.309 N 
HETATM    8  C   UNL     1     -45.610  61.121 -49.320  1.00  0.00     0.325 C 
HETATM    9  N   UNL     1     -45.907  62.424 -48.955  1.00  0.00    -0.305 N 
HETATM   10  O   UNL     1     -45.992  60.120 -48.733  1.00  0.00    -0.247 OA
HETATM   11  H   UNL     1     -45.811  63.120 -49.677  1.00  0.00     0.171 HD
HETATM   12  H   UNL     1     -44.412  61.991 -50.729  1.00  0.00     0.170 HD
BRANCH   9  13
HETATM   13  C   UNL     1     -46.624  62.827 -47.840  1.00  0.00     0.086 A 
HETATM   14  C   UNL     1     -47.823  63.508 -47.954  1.00  0.00     0.052 A 
HETATM   15  C   UNL     1     -48.624  63.945 -49.121  1.00  0.00     0.072 C 
HETATM   16  N   UNL     1     -48.253  63.722 -46.676  1.00  0.00    -0.280 N 
HETATM   17  H   UNL     1     -49.107  64.175 -46.368  1.00  0.00     0.189 HD
HETATM   18  N   UNL     1     -47.415  63.269 -45.741  1.00  0.00    -0.177 NA
HETATM   19  C   UNL     1     -46.406  62.720 -46.434  1.00  0.00     0.079 A 
HETATM   20  C   UNL     1     -45.266  62.149 -45.675  1.00  0.00     0.075 C 
ENDBRANCH   9  13
ENDBRANCH   1   7
BRANCH   4  21
HETATM   21  C   UNL     1     -43.250  56.923 -54.006  1.00  0.00     0.252 C 
HETATM   22  N   UNL     1     -42.331  56.043 -53.467  1.00  0.00    -0.352 N 
HETATM   23  H   UNL     1     -42.206  56.056 -52.465  1.00  0.00     0.163 HD
HETATM   24  O   UNL     1     -43.678  56.855 -55.153  1.00  0.00    -0.268 OA
BRANCH  22  25
HETATM   25  C   UNL     1     -41.882  54.836 -54.131  1.00  0.00     0.084 C 
HETATM   26  C   UNL     1     -40.558  54.999 -54.877  1.00  0.00     0.025 C 
HETATM   27  C   UNL     1     -40.118  53.561 -55.090  1.00  0.00     0.002 C 
HETATM   28  C   UNL     1     -40.450  52.892 -53.764  1.00  0.00     0.002 C 
HETATM   29  C   UNL     1     -41.706  53.596 -53.246  1.00  0.00     0.025 C 
ENDBRANCH  22  25
ENDBRANCH   4  21
TORSDOF 4
ENDMDL
MODEL 10
REMARK VINA RESULT:      -6.9      5.647      9.557
REMARK  4 active torsions:
REMARK  status: ('A' for Active; 'I' for Inactive)
REMARK    1  A    between atoms: C_8  and  N_9 
REMARK       I    between atoms: N_9  and  C_10 
REMARK       I    between atoms: C_10  and  N_11 
REMARK    2  A    between atoms: N_11  and  C_12 
REMARK    3  A    between atoms: C_15  and  C_16 
REMARK       I    between atoms: C_16  and  N_17 
REMARK    4  A    between atoms: N_17  and  C_18 
ROOT
HETATM    1  C   UNL     1     -42.943  56.121 -55.884  1.00  0.00     0.036 A 
HETATM    2  C   UNL     1     -42.925  57.515 -55.967  1.00  0.00     0.030 A 
HETATM    3  C   UNL     1     -42.845  58.156 -57.210  1.00  0.00     0.019 A 
HETATM    4  C   UNL     1     -42.760  57.406 -58.387  1.00  0.00     0.032 A 
HETATM    5  C   UNL     1     -42.839  56.011 -58.311  1.00  0.00     0.019 A 
HETATM    6  C   UNL     1     -42.931  55.375 -57.069  1.00  0.00     0.030 A 
ENDROOT
BRANCH   1   7
HETATM    7  N   UNL     1     -42.906  55.404 -54.671  1.00  0.00    -0.309 N 
HETATM    8  C   UNL     1     -41.789  55.079 -53.911  1.00  0.00     0.325 C 
HETATM    9  N   UNL     1     -42.116  54.097 -52.990  1.00  0.00    -0.305 N 
HETATM   10  O   UNL     1     -40.676  55.558 -54.066  1.00  0.00    -0.247 OA
HETATM   11  H   UNL     1     -42.958  53.576 -53.178  1.00  0.00     0.171 HD
HETATM   12  H   UNL     1     -43.797  55.123 -54.293  1.00  0.00     0.170 HD
BRANCH   9  13
HETATM   13  C   UNL     1     -41.272  53.533 -52.047  1.00  0.00     0.086 A 
HETATM   14  C   UNL     1     -40.361  52.548 -52.384  1.00  0.00     0.052 A 
HETATM   15  C   UNL     1     -40.022  51.887 -53.666  1.00  0.00     0.072 C 
HETATM   16  N   UNL     1     -39.694  52.247 -51.232  1.00  0.00    -0.280 N 
HETATM   17  H   UNL     1     -38.938  51.584 -51.099  1.00  0.00     0.189 HD
HETATM   18  N   UNL     1     -40.121  52.929 -50.167  1.00  0.00    -0.177 NA
HETATM   19  C   UNL     1     -41.093  53.721 -50.645  1.00  0.00     0.079 A 
HETATM   20  C   UNL     1     -41.815  54.596 -49.688  1.00  0.00     0.075 C 
ENDBRANCH   9  13
ENDBRANCH   1   7
BRANCH   4  21
HETATM   21  C   UNL     1     -42.538  58.031 -59.724  1.00  0.00     0.252 C 
HETATM   22  N   UNL     1     -42.502  59.412 -59.747  1.00  0.00    -0.352 N 
HETATM   23  H   UNL     1     -42.474  59.891 -58.859  1.00  0.00     0.163 HD
HETATM   24  O   UNL     1     -42.333  57.320 -60.702  1.00  0.00    -0.268 OA
BRANCH  22  25
HETATM   25  C   UNL     1     -42.056  60.190 -60.885  1.00  0.00     0.084 C 
HETATM   26  C   UNL     1     -43.182  60.587 -61.839  1.00  0.00     0.025 C 
HETATM   27  C   UNL     1     -42.551  61.705 -62.651  1.00  0.00     0.002 C 
HETATM   28  C   UNL     1     -41.786  62.507 -61.608  1.00  0.00     0.002 C 
HETATM   29  C   UNL     1     -41.305  61.490 -60.571  1.00  0.00     0.025 C 
ENDBRANCH  22  25
ENDBRANCH   4  21
TORSDOF 4
ENDMDL
