MODEL 1
REMARK VINA RESULT:      -8.1      0.000      0.000
REMARK  10 active torsions:
REMARK  status: ('A' for Active; 'I' for Inactive)
REMARK    1  A    between atoms: C_8  and  N_9 
REMARK    2  A    between atoms: C_10  and  S_11 
REMARK    3  A    between atoms: S_11  and  C_12 
REMARK    4  A    between atoms: C_12  and  C_13 
REMARK       I    between atoms: C_13  and  N_14 
REMARK    5  A    between atoms: N_14  and  C_15 
REMARK    6  A    between atoms: C_15  and  C_16 
REMARK    7  A    between atoms: C_16  and  C_17 
REMARK    8  A    between atoms: C_19  and  O_20 
REMARK    9  A    between atoms: C_22  and  O_23 
REMARK   10  A    between atoms: C_31  and  N_32 
ROOT
HETATM    1  N   UNL     1     -43.952  58.606 -54.596  1.00  0.00    -0.275 N 
HETATM    2  C   UNL     1     -42.552  58.821 -54.712  1.00  0.00     0.177 A 
HETATM    3  N   UNL     1     -41.826  58.582 -55.777  1.00  0.00    -0.204 NA
HETATM    4  C   UNL     1     -42.530  58.094 -56.821  1.00  0.00     0.162 A 
HETATM    5  C   UNL     1     -43.864  57.802 -56.908  1.00  0.00     0.081 A 
HETATM    6  C   UNL     1     -44.657  58.039 -55.739  1.00  0.00     0.124 A 
HETATM    7  N   UNL     1     -42.016  57.796 -58.048  1.00  0.00    -0.260 N 
HETATM    8  H   UNL     1     -41.057  57.894 -58.361  1.00  0.00     0.191 HD
HETATM    9  N   UNL     1     -42.944  57.322 -58.908  1.00  0.00    -0.177 NA
HETATM   10  C   UNL     1     -44.091  57.330 -58.209  1.00  0.00     0.068 A 
HETATM   11  C   UNL     1     -45.343  56.879 -58.860  1.00  0.00     0.073 C 
ENDROOT
BRANCH   2  12
HETATM   12  S   UNL     1     -41.642  59.477 -53.337  1.00  0.00    -0.082 SA
BRANCH  12  13
HETATM   13  C   UNL     1     -41.239  57.920 -52.490  1.00  0.00     0.185 C 
BRANCH  13  14
HETATM   14  C   UNL     1     -40.983  58.125 -51.004  1.00  0.00     0.227 C 
HETATM   15  N   UNL     1     -41.392  57.139 -50.138  1.00  0.00    -0.360 N 
HETATM   16  H   UNL     1     -41.236  57.384 -49.165  1.00  0.00     0.162 HD
HETATM   17  O   UNL     1     -40.395  59.099 -50.537  1.00  0.00    -0.273 OA
BRANCH  15  18
HETATM   18  C   UNL     1     -42.239  56.006 -50.457  1.00  0.00     0.127 C 
BRANCH  18  19
HETATM   19  C   UNL     1     -41.655  54.667 -50.006  1.00  0.00     0.058 C 
BRANCH  19  20
HETATM   20  C   UNL     1     -41.182  53.878 -51.203  1.00  0.00    -0.054 A 
HETATM   21  C   UNL     1     -41.764  54.082 -52.465  1.00  0.00     0.046 A 
HETATM   22  C   UNL     1     -41.391  53.293 -53.561  1.00  0.00     0.102 A 
HETATM   23  C   UNL     1     -40.424  52.283 -53.395  1.00  0.00     0.101 A 
HETATM   24  C   UNL     1     -39.830  52.096 -52.143  1.00  0.00     0.040 A 
HETATM   25  C   UNL     1     -40.210  52.885 -51.055  1.00  0.00     0.010 A 
BRANCH  22  26
HETATM   26  O   UNL     1     -41.928  53.412 -54.819  1.00  0.00    -0.353 OA
HETATM   27  C   UNL     1     -41.845  54.676 -55.460  1.00  0.00     0.210 C 
ENDBRANCH  22  26
BRANCH  23  28
HETATM   28  O   UNL     1     -40.126  51.542 -54.512  1.00  0.00    -0.353 OA
HETATM   29  C   UNL     1     -39.968  50.140 -54.349  1.00  0.00     0.210 C 
ENDBRANCH  23  28
ENDBRANCH  19  20
ENDBRANCH  18  19
ENDBRANCH  15  18
ENDBRANCH  13  14
ENDBRANCH  12  13
ENDBRANCH   2  12
BRANCH   1  30
HETATM   30  C   UNL     1     -44.668  58.962 -53.410  1.00  0.00     0.051 A 
HETATM   31  C   UNL     1     -45.386  60.179 -53.323  1.00  0.00    -0.013 A 
HETATM   32  C   UNL     1     -45.346  61.193 -54.440  1.00  0.00     0.052 C 
HETATM   33  C   UNL     1     -46.165  60.417 -52.174  1.00  0.00     0.042 A 
HETATM   34 CL   UNL     1     -47.140  61.836 -52.015  1.00  0.00    -0.084 Cl
HETATM   35  C   UNL     1     -46.201  59.495 -51.124  1.00  0.00     0.024 A 
HETATM   36  C   UNL     1     -45.474  58.311 -51.206  1.00  0.00     0.004 A 
HETATM   37  C   UNL     1     -44.724  58.040 -52.348  1.00  0.00     0.031 A 
ENDBRANCH   1  30
BRANCH   6  38
HETATM   38  N   UNL     1     -45.941  57.738 -55.708  1.00  0.00    -0.384 N 
HETATM   39  H   UNL     1     -46.653  58.417 -55.935  1.00  0.00     0.157 HD
HETATM   40  H   UNL     1     -46.234  56.799 -55.470  1.00  0.00     0.157 HD
ENDBRANCH   6  38
TORSDOF 10
ENDMDL
MODEL 2
REMARK VINA RESULT:      -8.1      3.179      5.162
REMARK  10 active torsions:
REMARK  status: ('A' for Active; 'I' for Inactive)
REMARK    1  A    between atoms: C_8  and  N_9 
REMARK    2  A    between atoms: C_10  and  S_11 
REMARK    3  A    between atoms: S_11  and  C_12 
REMARK    4  A    between atoms: C_12  and  C_13 
REMARK       I    between atoms: C_13  and  N_14 
REMARK    5  A    between atoms: N_14  and  C_15 
REMARK    6  A    between atoms: C_15  and  C_16 
REMARK    7  A    between atoms: C_16  and  C_17 
REMARK    8  A    between atoms: C_19  and  O_20 
REMARK    9  A    between atoms: C_22  and  O_23 
REMARK   10  A    between atoms: C_31  and  N_32 
ROOT
HETATM    1  N   UNL     1     -42.579  58.965 -58.772  1.00  0.00    -0.275 N 
HETATM    2  C   UNL     1     -42.321  59.346 -57.427  1.00  0.00     0.177 A 
HETATM    3  N   UNL     1     -41.701  60.436 -57.045  1.00  0.00    -0.204 NA
HETATM    4  C   UNL     1     -41.303  61.225 -58.066  1.00  0.00     0.162 A 
HETATM    5  C   UNL     1     -41.437  61.035 -59.414  1.00  0.00     0.081 A 
HETATM    6  C   UNL     1     -42.092  59.833 -59.836  1.00  0.00     0.124 A 
HETATM    7  N   UNL     1     -40.669  62.425 -57.933  1.00  0.00    -0.260 N 
HETATM    8  H   UNL     1     -40.409  62.900 -57.077  1.00  0.00     0.191 HD
HETATM    9  N   UNL     1     -40.383  63.005 -59.121  1.00  0.00    -0.177 NA
HETATM   10  C   UNL     1     -40.863  62.151 -60.040  1.00  0.00     0.068 A 
HETATM   11  C   UNL     1     -40.734  62.482 -61.478  1.00  0.00     0.073 C 
ENDROOT
BRANCH   2  12
HETATM   12  S   UNL     1     -42.863  58.306 -56.094  1.00  0.00    -0.082 SA
BRANCH  12  13
HETATM   13  C   UNL     1     -41.850  59.003 -54.756  1.00  0.00     0.185 C 
BRANCH  13  14
HETATM   14  C   UNL     1     -42.296  58.513 -53.385  1.00  0.00     0.227 C 
HETATM   15  N   UNL     1     -41.767  57.333 -52.921  1.00  0.00    -0.360 N 
HETATM   16  H   UNL     1     -42.163  57.052 -52.028  1.00  0.00     0.162 HD
HETATM   17  O   UNL     1     -43.066  59.132 -52.653  1.00  0.00    -0.273 OA
BRANCH  15  18
HETATM   18  C   UNL     1     -40.985  56.377 -53.682  1.00  0.00     0.127 C 
BRANCH  18  19
HETATM   19  C   UNL     1     -41.693  55.037 -53.882  1.00  0.00     0.058 C 
BRANCH  19  20
HETATM   20  C   UNL     1     -40.932  53.938 -53.181  1.00  0.00    -0.054 A 
HETATM   21  C   UNL     1     -40.400  52.863 -53.912  1.00  0.00     0.046 A 
HETATM   22  C   UNL     1     -39.769  51.797 -53.260  1.00  0.00     0.102 A 
HETATM   23  C   UNL     1     -39.667  51.801 -51.855  1.00  0.00     0.101 A 
HETATM   24  C   UNL     1     -40.178  52.882 -51.130  1.00  0.00     0.040 A 
HETATM   25  C   UNL     1     -40.808  53.941 -51.789  1.00  0.00     0.010 A 
BRANCH  22  26
HETATM   26  O   UNL     1     -39.246  50.698 -53.897  1.00  0.00    -0.353 OA
HETATM   27  C   UNL     1     -40.141  49.851 -54.602  1.00  0.00     0.210 C 
ENDBRANCH  22  26
BRANCH  23  28
HETATM   28  O   UNL     1     -39.051  50.712 -51.290  1.00  0.00    -0.353 OA
HETATM   29  C   UNL     1     -39.878  49.723 -50.695  1.00  0.00     0.210 C 
ENDBRANCH  23  28
ENDBRANCH  19  20
ENDBRANCH  18  19
ENDBRANCH  15  18
ENDBRANCH  13  14
ENDBRANCH  12  13
ENDBRANCH   2  12
BRANCH   1  30
HETATM   30  C   UNL     1     -43.324  57.785 -59.086  1.00  0.00     0.051 A 
HETATM   31  C   UNL     1     -44.729  57.828 -59.259  1.00  0.00    -0.013 A 
HETATM   32  C   UNL     1     -45.509  59.098 -59.023  1.00  0.00     0.052 C 
HETATM   33  C   UNL     1     -45.388  56.656 -59.681  1.00  0.00     0.042 A 
HETATM   34 CL   UNL     1     -47.087  56.634 -59.998  1.00  0.00    -0.084 Cl
HETATM   35  C   UNL     1     -44.682  55.468 -59.888  1.00  0.00     0.024 A 
HETATM   36  C   UNL     1     -43.305  55.428 -59.693  1.00  0.00     0.004 A 
HETATM   37  C   UNL     1     -42.629  56.582 -59.308  1.00  0.00     0.031 A 
ENDBRANCH   1  30
BRANCH   6  38
HETATM   38  N   UNL     1     -42.220  59.535 -61.115  1.00  0.00    -0.384 N 
HETATM   39  H   UNL     1     -43.053  59.095 -61.479  1.00  0.00     0.157 HD
HETATM   40  H   UNL     1     -41.478  59.764 -61.764  1.00  0.00     0.157 HD
ENDBRANCH   6  38
TORSDOF 10
ENDMDL
MODEL 3
REMARK VINA RESULT:      -8.0      3.295      5.277
REMARK  10 active torsions:
REMARK  status: ('A' for Active; 'I' for Inactive)
REMARK    1  A    between atoms: C_8  and  N_9 
REMARK    2  A    between atoms: C_10  and  S_11 
REMARK    3  A    between atoms: S_11  and  C_12 
REMARK    4  A    between atoms: C_12  and  C_13 
REMARK       I    between atoms: C_13  and  N_14 
REMARK    5  A    between atoms: N_14  and  C_15 
REMARK    6  A    between atoms: C_15  and  C_16 
REMARK    7  A    between atoms: C_16  and  C_17 
REMARK    8  A    between atoms: C_19  and  O_20 
REMARK    9  A    between atoms: C_22  and  O_23 
REMARK   10  A    between atoms: C_31  and  N_32 
ROOT
HETATM    1  N   UNL     1     -42.603  58.984 -58.774  1.00  0.00    -0.275 N 
HETATM    2  C   UNL     1     -42.395  59.365 -57.422  1.00  0.00     0.177 A 
HETATM    3  N   UNL     1     -41.784  60.453 -57.017  1.00  0.00    -0.204 NA
HETATM    4  C   UNL     1     -41.342  61.238 -58.022  1.00  0.00     0.162 A 
HETATM    5  C   UNL     1     -41.425  61.047 -59.375  1.00  0.00     0.081 A 
HETATM    6  C   UNL     1     -42.069  59.847 -59.820  1.00  0.00     0.124 A 
HETATM    7  N   UNL     1     -40.708  62.435 -57.867  1.00  0.00    -0.260 N 
HETATM    8  H   UNL     1     -40.479  62.910 -57.001  1.00  0.00     0.191 HD
HETATM    9  N   UNL     1     -40.373  63.011 -59.042  1.00  0.00    -0.177 NA
HETATM   10  C   UNL     1     -40.821  62.158 -59.978  1.00  0.00     0.068 A 
HETATM   11  C   UNL     1     -40.634  62.487 -61.411  1.00  0.00     0.073 C 
ENDROOT
BRANCH   2  12
HETATM   12  S   UNL     1     -42.994  58.330 -56.110  1.00  0.00    -0.082 SA
BRANCH  12  13
HETATM   13  C   UNL     1     -41.853  58.846 -54.793  1.00  0.00     0.185 C 
BRANCH  13  14
HETATM   14  C   UNL     1     -42.189  58.198 -53.457  1.00  0.00     0.227 C 
HETATM   15  N   UNL     1     -41.541  57.033 -53.125  1.00  0.00    -0.360 N 
HETATM   16  H   UNL     1     -41.869  56.640 -52.247  1.00  0.00     0.162 HD
HETATM   17  O   UNL     1     -42.973  58.679 -52.640  1.00  0.00    -0.273 OA
BRANCH  15  18
HETATM   18  C   UNL     1     -40.719  56.222 -54.002  1.00  0.00     0.127 C 
BRANCH  18  19
HETATM   19  C   UNL     1     -41.393  54.917 -54.430  1.00  0.00     0.058 C 
BRANCH  19  20
HETATM   20  C   UNL     1     -40.857  53.765 -53.615  1.00  0.00    -0.054 A 
HETATM   21  C   UNL     1     -40.907  53.803 -52.212  1.00  0.00     0.046 A 
HETATM   22  C   UNL     1     -40.333  52.778 -51.448  1.00  0.00     0.102 A 
HETATM   23  C   UNL     1     -39.699  51.700 -52.093  1.00  0.00     0.101 A 
HETATM   24  C   UNL     1     -39.669  51.653 -53.491  1.00  0.00     0.040 A 
HETATM   25  C   UNL     1     -40.241  52.681 -54.245  1.00  0.00     0.010 A 
BRANCH  22  26
HETATM   26  O   UNL     1     -40.317  52.751 -50.075  1.00  0.00    -0.353 OA
HETATM   27  C   UNL     1     -39.939  53.937 -49.392  1.00  0.00     0.210 C 
ENDBRANCH  22  26
BRANCH  23  28
HETATM   28  O   UNL     1     -39.146  50.745 -51.276  1.00  0.00    -0.353 OA
HETATM   29  C   UNL     1     -39.745  49.458 -51.268  1.00  0.00     0.210 C 
ENDBRANCH  23  28
ENDBRANCH  19  20
ENDBRANCH  18  19
ENDBRANCH  15  18
ENDBRANCH  13  14
ENDBRANCH  12  13
ENDBRANCH   2  12
BRANCH   1  30
HETATM   30  C   UNL     1     -43.341  57.808 -59.116  1.00  0.00     0.051 A 
HETATM   31  C   UNL     1     -44.738  57.857 -59.344  1.00  0.00    -0.013 A 
HETATM   32  C   UNL     1     -45.519  59.132 -59.141  1.00  0.00     0.052 C 
HETATM   33  C   UNL     1     -45.386  56.689 -59.790  1.00  0.00     0.042 A 
HETATM   34 CL   UNL     1     -47.071  56.675 -60.173  1.00  0.00    -0.084 Cl
HETATM   35  C   UNL     1     -44.679  55.496 -59.967  1.00  0.00     0.024 A 
HETATM   36  C   UNL     1     -43.311  55.449 -59.719  1.00  0.00     0.004 A 
HETATM   37  C   UNL     1     -42.644  56.600 -59.310  1.00  0.00     0.031 A 
ENDBRANCH   1  30
BRANCH   6  38
HETATM   38  N   UNL     1     -42.150  59.548 -61.103  1.00  0.00    -0.384 N 
HETATM   39  H   UNL     1     -42.628  60.145 -61.761  1.00  0.00     0.157 HD
HETATM   40  H   UNL     1     -41.708  58.708 -61.454  1.00  0.00     0.157 HD
ENDBRANCH   6  38
TORSDOF 10
ENDMDL
MODEL 4
REMARK VINA RESULT:      -8.0      3.555      5.565
REMARK  10 active torsions:
REMARK  status: ('A' for Active; 'I' for Inactive)
REMARK    1  A    between atoms: C_8  and  N_9 
REMARK    2  A    between atoms: C_10  and  S_11 
REMARK    3  A    between atoms: S_11  and  C_12 
REMARK    4  A    between atoms: C_12  and  C_13 
REMARK       I    between atoms: C_13  and  N_14 
REMARK    5  A    between atoms: N_14  and  C_15 
REMARK    6  A    between atoms: C_15  and  C_16 
REMARK    7  A    between atoms: C_16  and  C_17 
REMARK    8  A    between atoms: C_19  and  O_20 
REMARK    9  A    between atoms: C_22  and  O_23 
REMARK   10  A    between atoms: C_31  and  N_32 
ROOT
HETATM    1  N   UNL     1     -43.806  58.936 -58.860  1.00  0.00    -0.275 N 
HETATM    2  C   UNL     1     -43.681  59.138 -57.459  1.00  0.00     0.177 A 
HETATM    3  N   UNL     1     -42.911  60.025 -56.877  1.00  0.00    -0.204 NA
HETATM    4  C   UNL     1     -42.205  60.785 -57.741  1.00  0.00     0.162 A 
HETATM    5  C   UNL     1     -42.168  60.741 -59.108  1.00  0.00     0.081 A 
HETATM    6  C   UNL     1     -42.990  59.756 -59.746  1.00  0.00     0.124 A 
HETATM    7  N   UNL     1     -41.360  61.797 -57.391  1.00  0.00    -0.260 N 
HETATM    8  H   UNL     1     -41.140  62.130 -56.459  1.00  0.00     0.191 HD
HETATM    9  N   UNL     1     -40.781  62.393 -58.457  1.00  0.00    -0.177 NA
HETATM   10  C   UNL     1     -41.283  61.747 -59.522  1.00  0.00     0.068 A 
HETATM   11  C   UNL     1     -40.868  62.158 -60.884  1.00  0.00     0.073 C 
ENDROOT
BRANCH   2  12
HETATM   12  S   UNL     1     -44.628  58.141 -56.336  1.00  0.00    -0.082 SA
BRANCH  12  13
HETATM   13  C   UNL     1     -43.277  57.168 -55.607  1.00  0.00     0.185 C 
BRANCH  13  14
HETATM   14  C   UNL     1     -43.716  56.429 -54.350  1.00  0.00     0.227 C 
HETATM   15  N   UNL     1     -43.294  55.132 -54.186  1.00  0.00    -0.360 N 
HETATM   16  H   UNL     1     -43.681  54.698 -53.352  1.00  0.00     0.162 HD
HETATM   17  O   UNL     1     -44.387  56.939 -53.455  1.00  0.00    -0.273 OA
BRANCH  15  18
HETATM   18  C   UNL     1     -42.647  54.301 -55.183  1.00  0.00     0.127 C 
BRANCH  18  19
HETATM   19  C   UNL     1     -41.121  54.313 -55.084  1.00  0.00     0.058 C 
BRANCH  19  20
HETATM   20  C   UNL     1     -40.657  53.286 -54.079  1.00  0.00    -0.054 A 
HETATM   21  C   UNL     1     -40.541  53.623 -52.721  1.00  0.00     0.046 A 
HETATM   22  C   UNL     1     -40.029  52.703 -51.797  1.00  0.00     0.102 A 
HETATM   23  C   UNL     1     -39.624  51.428 -52.236  1.00  0.00     0.101 A 
HETATM   24  C   UNL     1     -39.760  51.087 -53.585  1.00  0.00     0.040 A 
HETATM   25  C   UNL     1     -40.270  52.012 -54.500  1.00  0.00     0.010 A 
BRANCH  22  26
HETATM   26  O   UNL     1     -39.860  52.961 -50.459  1.00  0.00    -0.353 OA
HETATM   27  C   UNL     1     -40.318  54.209 -49.960  1.00  0.00     0.210 C 
ENDBRANCH  22  26
BRANCH  23  28
HETATM   28  O   UNL     1     -39.116  50.590 -51.273  1.00  0.00    -0.353 OA
HETATM   29  C   UNL     1     -39.855  49.417 -50.966  1.00  0.00     0.210 C 
ENDBRANCH  23  28
ENDBRANCH  19  20
ENDBRANCH  18  19
ENDBRANCH  15  18
ENDBRANCH  13  14
ENDBRANCH  12  13
ENDBRANCH   2  12
BRANCH   1  30
HETATM   30  C   UNL     1     -44.726  57.984 -59.401  1.00  0.00     0.051 A 
HETATM   31  C   UNL     1     -44.377  56.618 -59.533  1.00  0.00    -0.013 A 
HETATM   32  C   UNL     1     -42.990  56.128 -59.198  1.00  0.00     0.052 C 
HETATM   33  C   UNL     1     -45.367  55.713 -59.964  1.00  0.00     0.042 A 
HETATM   34 CL   UNL     1     -45.059  54.015 -60.074  1.00  0.00    -0.084 Cl
HETATM   35  C   UNL     1     -46.652  56.153 -60.292  1.00  0.00     0.024 A 
HETATM   36  C   UNL     1     -46.980  57.501 -60.184  1.00  0.00     0.004 A 
HETATM   37  C   UNL     1     -46.027  58.408 -59.728  1.00  0.00     0.031 A 
ENDBRANCH   1  30
BRANCH   6  38
HETATM   38  N   UNL     1     -42.981  59.601 -61.057  1.00  0.00    -0.384 N 
HETATM   39  H   UNL     1     -43.833  59.495 -61.586  1.00  0.00     0.157 HD
HETATM   40  H   UNL     1     -42.102  59.604 -61.559  1.00  0.00     0.157 HD
ENDBRANCH   6  38
TORSDOF 10
ENDMDL
MODEL 5
REMARK VINA RESULT:      -7.9      1.535      2.568
REMARK  10 active torsions:
REMARK  status: ('A' for Active; 'I' for Inactive)
REMARK    1  A    between atoms: C_8  and  N_9 
REMARK    2  A    between atoms: C_10  and  S_11 
REMARK    3  A    between atoms: S_11  and  C_12 
REMARK    4  A    between atoms: C_12  and  C_13 
REMARK       I    between atoms: C_13  and  N_14 
REMARK    5  A    between atoms: N_14  and  C_15 
REMARK    6  A    between atoms: C_15  and  C_16 
REMARK    7  A    between atoms: C_16  and  C_17 
REMARK    8  A    between atoms: C_19  and  O_20 
REMARK    9  A    between atoms: C_22  and  O_23 
REMARK   10  A    between atoms: C_31  and  N_32 
ROOT
HETATM    1  N   UNL     1     -44.217  58.688 -56.360  1.00  0.00    -0.275 N 
HETATM    2  C   UNL     1     -42.799  58.605 -56.410  1.00  0.00     0.177 A 
HETATM    3  N   UNL     1     -42.101  57.925 -57.288  1.00  0.00    -0.204 NA
HETATM    4  C   UNL     1     -42.855  57.273 -58.199  1.00  0.00     0.162 A 
HETATM    5  C   UNL     1     -44.217  57.210 -58.315  1.00  0.00     0.081 A 
HETATM    6  C   UNL     1     -44.983  57.932 -57.343  1.00  0.00     0.124 A 
HETATM    7  N   UNL     1     -42.372  56.526 -59.232  1.00  0.00    -0.260 N 
HETATM    8  H   UNL     1     -41.403  56.351 -59.473  1.00  0.00     0.191 HD
HETATM    9  N   UNL     1     -43.348  55.983 -59.993  1.00  0.00    -0.177 NA
HETATM   10  C   UNL     1     -44.492  56.410 -59.432  1.00  0.00     0.068 A 
HETATM   11  C   UNL     1     -45.788  56.011 -60.030  1.00  0.00     0.073 C 
ENDROOT
BRANCH   2  12
HETATM   12  S   UNL     1     -41.820  59.479 -55.215  1.00  0.00    -0.082 SA
BRANCH  12  13
HETATM   13  C   UNL     1     -41.283  58.071 -54.199  1.00  0.00     0.185 C 
BRANCH  13  14
HETATM   14  C   UNL     1     -40.990  58.480 -52.762  1.00  0.00     0.227 C 
HETATM   15  N   UNL     1     -41.190  57.546 -51.774  1.00  0.00    -0.360 N 
HETATM   16  H   UNL     1     -41.027  57.920 -50.843  1.00  0.00     0.162 HD
HETATM   17  O   UNL     1     -40.545  59.580 -52.439  1.00  0.00    -0.273 OA
BRANCH  15  18
HETATM   18  C   UNL     1     -41.857  56.266 -51.916  1.00  0.00     0.127 C 
BRANCH  18  19
HETATM   19  C   UNL     1     -41.305  55.187 -50.984  1.00  0.00     0.058 C 
BRANCH  19  20
HETATM   20  C   UNL     1     -40.834  53.999 -51.788  1.00  0.00    -0.054 A 
HETATM   21  C   UNL     1     -40.205  52.916 -51.153  1.00  0.00     0.046 A 
HETATM   22  C   UNL     1     -39.687  51.850 -51.901  1.00  0.00     0.102 A 
HETATM   23  C   UNL     1     -39.797  51.866 -53.304  1.00  0.00     0.101 A 
HETATM   24  C   UNL     1     -40.443  52.936 -53.933  1.00  0.00     0.040 A 
HETATM   25  C   UNL     1     -40.954  53.995 -53.180  1.00  0.00     0.010 A 
BRANCH  22  26
HETATM   26  O   UNL     1     -39.038  50.768 -51.360  1.00  0.00    -0.353 OA
HETATM   27  C   UNL     1     -39.809  49.829 -50.625  1.00  0.00     0.210 C 
ENDBRANCH  22  26
BRANCH  23  28
HETATM   28  O   UNL     1     -39.250  50.795 -53.966  1.00  0.00    -0.353 OA
HETATM   29  C   UNL     1     -40.140  49.890 -54.603  1.00  0.00     0.210 C 
ENDBRANCH  23  28
ENDBRANCH  19  20
ENDBRANCH  18  19
ENDBRANCH  15  18
ENDBRANCH  13  14
ENDBRANCH  12  13
ENDBRANCH   2  12
BRANCH   1  30
HETATM   30  C   UNL     1     -44.885  59.512 -55.402  1.00  0.00     0.051 A 
HETATM   31  C   UNL     1     -45.140  59.052 -54.087  1.00  0.00    -0.013 A 
HETATM   32  C   UNL     1     -44.804  57.641 -53.673  1.00  0.00     0.052 C 
HETATM   33  C   UNL     1     -45.697  59.953 -53.158  1.00  0.00     0.042 A 
HETATM   34 CL   UNL     1     -45.966  59.507 -51.510  1.00  0.00    -0.084 Cl
HETATM   35  C   UNL     1     -46.028  61.259 -53.531  1.00  0.00     0.024 A 
HETATM   36  C   UNL     1     -45.797  61.697 -54.831  1.00  0.00     0.004 A 
HETATM   37  C   UNL     1     -45.217  60.834 -55.756  1.00  0.00     0.031 A 
ENDBRANCH   1  30
BRANCH   6  38
HETATM   38  N   UNL     1     -46.302  57.889 -57.340  1.00  0.00    -0.384 N 
HETATM   39  H   UNL     1     -46.824  57.499 -58.110  1.00  0.00     0.157 HD
HETATM   40  H   UNL     1     -46.817  58.237 -56.540  1.00  0.00     0.157 HD
ENDBRANCH   6  38
TORSDOF 10
ENDMDL
MODEL 6
REMARK VINA RESULT:      -7.8      2.929      5.342
REMARK  10 active torsions:
REMARK  status: ('A' for Active; 'I' for Inactive)
REMARK    1  A    between atoms: C_8  and  N_9 
REMARK    2  A    between atoms: C_10  and  S_11 
REMARK    3  A    between atoms: S_11  and  C_12 
REMARK    4  A    between atoms: C_12  and  C_13 
REMARK       I    between atoms: C_13  and  N_14 
REMARK    5  A    between atoms: N_14  and  C_15 
REMARK    6  A    between atoms: C_15  and  C_16 
REMARK    7  A    between atoms: C_16  and  C_17 
REMARK    8  A    between atoms: C_19  and  O_20 
REMARK    9  A    between atoms: C_22  and  O_23 
REMARK   10  A    between atoms: C_31  and  N_32 
ROOT
HETATM    1  N   UNL     1     -42.945  60.006 -51.828  1.00  0.00    -0.275 N 
HETATM    2  C   UNL     1     -42.575  60.409 -53.139  1.00  0.00     0.177 A 
HETATM    3  N   UNL     1     -42.859  61.562 -53.695  1.00  0.00    -0.204 NA
HETATM    4  C   UNL     1     -43.562  62.395 -52.899  1.00  0.00     0.162 A 
HETATM    5  C   UNL     1     -44.027  62.195 -51.627  1.00  0.00     0.081 A 
HETATM    6  C   UNL     1     -43.739  60.927 -51.025  1.00  0.00     0.124 A 
HETATM    7  N   UNL     1     -43.952  63.660 -53.228  1.00  0.00    -0.260 N 
HETATM    8  H   UNL     1     -43.777  64.158 -54.093  1.00  0.00     0.191 HD
HETATM    9  N   UNL     1     -44.645  64.272 -52.243  1.00  0.00    -0.177 NA
HETATM   10  C   UNL     1     -44.688  63.371 -51.248  1.00  0.00     0.068 A 
HETATM   11  C   UNL     1     -45.372  63.720 -49.981  1.00  0.00     0.073 C 
ENDROOT
BRANCH   2  12
HETATM   12  S   UNL     1     -41.637  59.310 -54.171  1.00  0.00    -0.082 SA
BRANCH  12  13
HETATM   13  C   UNL     1     -43.009  58.481 -55.028  1.00  0.00     0.185 C 
BRANCH  13  14
HETATM   14  C   UNL     1     -42.525  57.632 -56.195  1.00  0.00     0.227 C 
HETATM   15  N   UNL     1     -42.293  56.297 -55.967  1.00  0.00    -0.360 N 
HETATM   16  H   UNL     1     -41.918  55.821 -56.782  1.00  0.00     0.162 HD
HETATM   17  O   UNL     1     -42.373  58.060 -57.338  1.00  0.00    -0.273 OA
BRANCH  15  18
HETATM   18  C   UNL     1     -42.250  55.635 -54.677  1.00  0.00     0.127 C 
BRANCH  18  19
HETATM   19  C   UNL     1     -40.846  55.567 -54.077  1.00  0.00     0.058 C 
BRANCH  19  20
HETATM   20  C   UNL     1     -40.550  54.163 -53.607  1.00  0.00    -0.054 A 
HETATM   21  C   UNL     1     -40.515  53.866 -52.234  1.00  0.00     0.046 A 
HETATM   22  C   UNL     1     -40.155  52.588 -51.788  1.00  0.00     0.102 A 
HETATM   23  C   UNL     1     -39.823  51.591 -52.726  1.00  0.00     0.101 A 
HETATM   24  C   UNL     1     -39.878  51.883 -54.092  1.00  0.00     0.040 A 
HETATM   25  C   UNL     1     -40.236  53.161 -54.528  1.00  0.00     0.010 A 
BRANCH  22  26
HETATM   26  O   UNL     1     -40.073  52.223 -50.467  1.00  0.00    -0.353 OA
HETATM   27  C   UNL     1     -40.490  53.166 -49.491  1.00  0.00     0.210 C 
ENDBRANCH  22  26
BRANCH  23  28
HETATM   28  O   UNL     1     -39.464  50.370 -52.209  1.00  0.00    -0.353 OA
HETATM   29  C   UNL     1     -39.488  49.252 -53.084  1.00  0.00     0.210 C 
ENDBRANCH  23  28
ENDBRANCH  19  20
ENDBRANCH  18  19
ENDBRANCH  15  18
ENDBRANCH  13  14
ENDBRANCH  12  13
ENDBRANCH   2  12
BRANCH   1  30
HETATM   30  C   UNL     1     -42.529  58.749 -51.286  1.00  0.00     0.051 A 
HETATM   31  C   UNL     1     -43.359  57.604 -51.365  1.00  0.00    -0.013 A 
HETATM   32  C   UNL     1     -44.752  57.685 -51.938  1.00  0.00     0.052 C 
HETATM   33  C   UNL     1     -42.844  56.372 -50.916  1.00  0.00     0.042 A 
HETATM   34 CL   UNL     1     -43.750  54.906 -51.050  1.00  0.00    -0.084 Cl
HETATM   35  C   UNL     1     -41.561  56.284 -50.369  1.00  0.00     0.024 A 
HETATM   36  C   UNL     1     -40.761  57.418 -50.272  1.00  0.00     0.004 A 
HETATM   37  C   UNL     1     -41.237  58.640 -50.740  1.00  0.00     0.031 A 
ENDBRANCH   1  30
BRANCH   6  38
HETATM   38  N   UNL     1     -44.191  60.621 -49.824  1.00  0.00    -0.384 N 
HETATM   39  H   UNL     1     -43.568  60.398 -49.061  1.00  0.00     0.157 HD
HETATM   40  H   UNL     1     -45.187  60.622 -49.643  1.00  0.00     0.157 HD
ENDBRANCH   6  38
TORSDOF 10
ENDMDL
MODEL 7
REMARK VINA RESULT:      -7.8      2.357      4.442
REMARK  10 active torsions:
REMARK  status: ('A' for Active; 'I' for Inactive)
REMARK    1  A    between atoms: C_8  and  N_9 
REMARK    2  A    between atoms: C_10  and  S_11 
REMARK    3  A    between atoms: S_11  and  C_12 
REMARK    4  A    between atoms: C_12  and  C_13 
REMARK       I    between atoms: C_13  and  N_14 
REMARK    5  A    between atoms: N_14  and  C_15 
REMARK    6  A    between atoms: C_15  and  C_16 
REMARK    7  A    between atoms: C_16  and  C_17 
REMARK    8  A    between atoms: C_19  and  O_20 
REMARK    9  A    between atoms: C_22  and  O_23 
REMARK   10  A    between atoms: C_31  and  N_32 
ROOT
HETATM    1  N   UNL     1     -43.473  59.675 -54.184  1.00  0.00    -0.275 N 
HETATM    2  C   UNL     1     -42.630  59.761 -53.044  1.00  0.00     0.177 A 
HETATM    3  N   UNL     1     -42.965  60.258 -51.877  1.00  0.00    -0.204 NA
HETATM    4  C   UNL     1     -44.237  60.707 -51.820  1.00  0.00     0.162 A 
HETATM    5  C   UNL     1     -45.195  60.732 -52.797  1.00  0.00     0.081 A 
HETATM    6  C   UNL     1     -44.824  60.212 -54.080  1.00  0.00     0.124 A 
HETATM    7  N   UNL     1     -44.837  61.237 -50.716  1.00  0.00    -0.260 N 
HETATM    8  H   UNL     1     -44.436  61.369 -49.794  1.00  0.00     0.191 HD
HETATM    9  N   UNL     1     -46.117  61.607 -50.937  1.00  0.00    -0.177 NA
HETATM   10  C   UNL     1     -46.345  61.290 -52.222  1.00  0.00     0.068 A 
HETATM   11  C   UNL     1     -47.681  61.549 -52.809  1.00  0.00     0.073 C 
ENDROOT
BRANCH   2  12
HETATM   12  S   UNL     1     -40.964  59.153 -53.129  1.00  0.00    -0.082 SA
BRANCH  12  13
HETATM   13  C   UNL     1     -41.181  57.592 -52.225  1.00  0.00     0.185 C 
BRANCH  13  14
HETATM   14  C   UNL     1     -41.001  57.770 -50.723  1.00  0.00     0.227 C 
HETATM   15  N   UNL     1     -41.448  56.766 -49.898  1.00  0.00    -0.360 N 
HETATM   16  H   UNL     1     -41.342  56.994 -48.914  1.00  0.00     0.162 HD
HETATM   17  O   UNL     1     -40.441  58.737 -50.210  1.00  0.00    -0.273 OA
BRANCH  15  18
HETATM   18  C   UNL     1     -42.274  55.637 -50.280  1.00  0.00     0.127 C 
BRANCH  18  19
HETATM   19  C   UNL     1     -41.764  54.302 -49.738  1.00  0.00     0.058 C 
BRANCH  19  20
HETATM   20  C   UNL     1     -41.059  53.534 -50.829  1.00  0.00    -0.054 A 
HETATM   21  C   UNL     1     -41.206  53.912 -52.174  1.00  0.00     0.046 A 
HETATM   22  C   UNL     1     -40.626  53.153 -53.198  1.00  0.00     0.102 A 
HETATM   23  C   UNL     1     -39.890  51.996 -52.877  1.00  0.00     0.101 A 
HETATM   24  C   UNL     1     -39.727  51.633 -51.536  1.00  0.00     0.040 A 
HETATM   25  C   UNL     1     -40.311  52.395 -50.521  1.00  0.00     0.010 A 
BRANCH  22  26
HETATM   26  O   UNL     1     -40.742  53.439 -54.536  1.00  0.00    -0.353 OA
HETATM   27  C   UNL     1     -40.330  54.724 -54.978  1.00  0.00     0.210 C 
ENDBRANCH  22  26
BRANCH  23  28
HETATM   28  O   UNL     1     -39.369  51.296 -53.937  1.00  0.00    -0.353 OA
HETATM   29  C   UNL     1     -39.882  49.995 -54.183  1.00  0.00     0.210 C 
ENDBRANCH  23  28
ENDBRANCH  19  20
ENDBRANCH  18  19
ENDBRANCH  15  18
ENDBRANCH  13  14
ENDBRANCH  12  13
ENDBRANCH   2  12
BRANCH   1  30
HETATM   30  C   UNL     1     -43.035  59.053 -55.395  1.00  0.00     0.051 A 
HETATM   31  C   UNL     1     -43.242  57.671 -55.627  1.00  0.00    -0.013 A 
HETATM   32  C   UNL     1     -43.846  56.781 -54.569  1.00  0.00     0.052 C 
HETATM   33  C   UNL     1     -42.892  57.144 -56.886  1.00  0.00     0.042 A 
HETATM   34 CL   UNL     1     -43.185  55.489 -57.291  1.00  0.00    -0.084 Cl
HETATM   35  C   UNL     1     -42.319  57.953 -57.871  1.00  0.00     0.024 A 
HETATM   36  C   UNL     1     -42.096  59.304 -57.627  1.00  0.00     0.004 A 
HETATM   37  C   UNL     1     -42.465  59.853 -56.402  1.00  0.00     0.031 A 
ENDBRANCH   1  30
BRANCH   6  38
HETATM   38  N   UNL     1     -45.661  60.242 -55.099  1.00  0.00    -0.384 N 
HETATM   39  H   UNL     1     -45.379  59.971 -56.029  1.00  0.00     0.157 HD
HETATM   40  H   UNL     1     -46.622  60.528 -54.956  1.00  0.00     0.157 HD
ENDBRANCH   6  38
TORSDOF 10
ENDMDL
MODEL 8
REMARK VINA RESULT:      -7.6      3.165      4.956
REMARK  10 active torsions:
REMARK  status: ('A' for Active; 'I' for Inactive)
REMARK    1  A    between atoms: C_8  and  N_9 
REMARK    2  A    between atoms: C_10  and  S_11 
REMARK    3  A    between atoms: S_11  and  C_12 
REMARK    4  A    between atoms: C_12  and  C_13 
REMARK       I    between atoms: C_13  and  N_14 
REMARK    5  A    between atoms: N_14  and  C_15 
REMARK    6  A    between atoms: C_15  and  C_16 
REMARK    7  A    between atoms: C_16  and  C_17 
REMARK    8  A    between atoms: C_19  and  O_20 
REMARK    9  A    between atoms: C_22  and  O_23 
REMARK   10  A    between atoms: C_31  and  N_32 
ROOT
HETATM    1  N   UNL     1     -42.539  59.091 -58.684  1.00  0.00    -0.275 N 
HETATM    2  C   UNL     1     -42.298  59.499 -57.344  1.00  0.00     0.177 A 
HETATM    3  N   UNL     1     -41.695  60.604 -56.976  1.00  0.00    -0.204 NA
HETATM    4  C   UNL     1     -41.298  61.380 -58.006  1.00  0.00     0.162 A 
HETATM    5  C   UNL     1     -41.417  61.164 -59.353  1.00  0.00     0.081 A 
HETATM    6  C   UNL     1     -42.053  59.947 -59.759  1.00  0.00     0.124 A 
HETATM    7  N   UNL     1     -40.681  62.591 -57.889  1.00  0.00    -0.260 N 
HETATM    8  H   UNL     1     -40.435  63.084 -57.039  1.00  0.00     0.191 HD
HETATM    9  N   UNL     1     -40.392  63.153 -59.084  1.00  0.00    -0.177 NA
HETATM   10  C   UNL     1     -40.852  62.276 -59.992  1.00  0.00     0.068 A 
HETATM   11  C   UNL     1     -40.714  62.585 -61.435  1.00  0.00     0.073 C 
ENDROOT
BRANCH   2  12
HETATM   12  S   UNL     1     -42.839  58.476 -55.998  1.00  0.00    -0.082 SA
BRANCH  12  13
HETATM   13  C   UNL     1     -41.737  59.105 -54.698  1.00  0.00     0.185 C 
BRANCH  13  14
HETATM   14  C   UNL     1     -42.510  59.645 -53.503  1.00  0.00     0.227 C 
HETATM   15  N   UNL     1     -42.083  59.290 -52.246  1.00  0.00    -0.360 N 
HETATM   16  H   UNL     1     -42.690  59.644 -51.512  1.00  0.00     0.162 HD
HETATM   17  O   UNL     1     -43.466  60.414 -53.595  1.00  0.00    -0.273 OA
BRANCH  15  18
HETATM   18  C   UNL     1     -41.098  58.276 -51.923  1.00  0.00     0.127 C 
BRANCH  18  19
HETATM   19  C   UNL     1     -41.676  57.095 -51.144  1.00  0.00     0.058 C 
BRANCH  19  20
HETATM   20  C   UNL     1     -41.370  55.801 -51.859  1.00  0.00    -0.054 A 
HETATM   21  C   UNL     1     -41.470  55.721 -53.258  1.00  0.00     0.046 A 
HETATM   22  C   UNL     1     -41.273  54.503 -53.920  1.00  0.00     0.102 A 
HETATM   23  C   UNL     1     -40.974  53.345 -53.176  1.00  0.00     0.101 A 
HETATM   24  C   UNL     1     -40.854  53.431 -51.786  1.00  0.00     0.040 A 
HETATM   25  C   UNL     1     -41.055  54.650 -51.132  1.00  0.00     0.010 A 
BRANCH  22  26
HETATM   26  O   UNL     1     -41.377  54.334 -55.279  1.00  0.00    -0.353 OA
HETATM   27  C   UNL     1     -42.589  54.724 -55.906  1.00  0.00     0.210 C 
ENDBRANCH  22  26
BRANCH  23  28
HETATM   28  O   UNL     1     -40.813  52.187 -53.897  1.00  0.00    -0.353 OA
HETATM   29  C   UNL     1     -39.591  51.480 -53.741  1.00  0.00     0.210 C 
ENDBRANCH  23  28
ENDBRANCH  19  20
ENDBRANCH  18  19
ENDBRANCH  15  18
ENDBRANCH  13  14
ENDBRANCH  12  13
ENDBRANCH   2  12
BRANCH   1  30
HETATM   30  C   UNL     1     -43.266  57.897 -58.984  1.00  0.00     0.051 A 
HETATM   31  C   UNL     1     -44.676  57.908 -59.114  1.00  0.00    -0.013 A 
HETATM   32  C   UNL     1     -45.477  59.158 -58.847  1.00  0.00     0.052 C 
HETATM   33  C   UNL     1     -45.319  56.724 -59.525  1.00  0.00     0.042 A 
HETATM   34 CL   UNL     1     -47.027  56.665 -59.791  1.00  0.00    -0.084 Cl
HETATM   35  C   UNL     1     -44.593  55.554 -59.761  1.00  0.00     0.024 A 
HETATM   36  C   UNL     1     -43.211  55.544 -59.609  1.00  0.00     0.004 A 
HETATM   37  C   UNL     1     -42.550  56.711 -59.236  1.00  0.00     0.031 A 
ENDBRANCH   1  30
BRANCH   6  38
HETATM   38  N   UNL     1     -42.166  59.625 -61.034  1.00  0.00    -0.384 N 
HETATM   39  H   UNL     1     -42.265  60.325 -61.754  1.00  0.00     0.157 HD
HETATM   40  H   UNL     1     -42.136  58.653 -61.314  1.00  0.00     0.157 HD
ENDBRANCH   6  38
TORSDOF 10
ENDMDL
MODEL 9
REMARK VINA RESULT:      -7.6      3.699      6.037
REMARK  10 active torsions:
REMARK  status: ('A' for Active; 'I' for Inactive)
REMARK    1  A    between atoms: C_8  and  N_9 
REMARK    2  A    between atoms: C_10  and  S_11 
REMARK    3  A    between atoms: S_11  and  C_12 
REMARK    4  A    between atoms: C_12  and  C_13 
REMARK       I    between atoms: C_13  and  N_14 
REMARK    5  A    between atoms: N_14  and  C_15 
REMARK    6  A    between atoms: C_15  and  C_16 
REMARK    7  A    between atoms: C_16  and  C_17 
REMARK    8  A    between atoms: C_19  and  O_20 
REMARK    9  A    between atoms: C_22  and  O_23 
REMARK   10  A    between atoms: C_31  and  N_32 
ROOT
HETATM    1  N   UNL     1     -43.198  59.392 -59.192  1.00  0.00    -0.275 N 
HETATM    2  C   UNL     1     -42.754  59.436 -57.843  1.00  0.00     0.177 A 
HETATM    3  N   UNL     1     -41.844  60.248 -57.362  1.00  0.00    -0.204 NA
HETATM    4  C   UNL     1     -41.325  61.093 -58.279  1.00  0.00     0.162 A 
HETATM    5  C   UNL     1     -41.600  61.200 -59.615  1.00  0.00     0.081 A 
HETATM    6  C   UNL     1     -42.576  60.298 -60.149  1.00  0.00     0.124 A 
HETATM    7  N   UNL     1     -40.391  62.053 -58.026  1.00  0.00    -0.260 N 
HETATM    8  H   UNL     1     -39.955  62.278 -57.139  1.00  0.00     0.191 HD
HETATM    9  N   UNL     1     -40.047  62.758 -59.126  1.00  0.00    -0.177 NA
HETATM   10  C   UNL     1     -40.798  62.237 -60.111  1.00  0.00     0.068 A 
HETATM   11  C   UNL     1     -40.688  62.793 -61.480  1.00  0.00     0.073 C 
ENDROOT
BRANCH   2  12
HETATM   12  S   UNL     1     -43.455  58.329 -56.646  1.00  0.00    -0.082 SA
BRANCH  12  13
HETATM   13  C   UNL     1     -42.073  57.159 -56.492  1.00  0.00     0.185 C 
BRANCH  13  14
HETATM   14  C   UNL     1     -42.527  55.714 -56.645  1.00  0.00     0.227 C 
HETATM   15  N   UNL     1     -41.918  54.763 -55.861  1.00  0.00    -0.360 N 
HETATM   16  H   UNL     1     -42.238  53.822 -56.070  1.00  0.00     0.162 HD
HETATM   17  O   UNL     1     -43.433  55.355 -57.394  1.00  0.00    -0.273 OA
BRANCH  15  18
HETATM   18  C   UNL     1     -40.732  54.944 -55.047  1.00  0.00     0.127 C 
BRANCH  18  19
HETATM   19  C   UNL     1     -40.245  53.653 -54.389  1.00  0.00     0.058 C 
BRANCH  19  20
HETATM   20  C   UNL     1     -40.601  53.652 -52.922  1.00  0.00    -0.054 A 
HETATM   21  C   UNL     1     -41.353  54.703 -52.372  1.00  0.00     0.046 A 
HETATM   22  C   UNL     1     -41.612  54.754 -50.996  1.00  0.00     0.102 A 
HETATM   23  C   UNL     1     -41.112  53.742 -50.155  1.00  0.00     0.101 A 
HETATM   24  C   UNL     1     -40.381  52.685 -50.707  1.00  0.00     0.040 A 
HETATM   25  C   UNL     1     -40.125  52.643 -52.080  1.00  0.00     0.010 A 
BRANCH  22  26
HETATM   26  O   UNL     1     -42.317  55.757 -50.377  1.00  0.00    -0.353 OA
HETATM   27  C   UNL     1     -43.569  56.130 -50.933  1.00  0.00     0.210 C 
ENDBRANCH  22  26
BRANCH  23  28
HETATM   28  O   UNL     1     -41.393  53.872 -48.818  1.00  0.00    -0.353 OA
HETATM   29  C   UNL     1     -40.303  54.090 -47.934  1.00  0.00     0.210 C 
ENDBRANCH  23  28
ENDBRANCH  19  20
ENDBRANCH  18  19
ENDBRANCH  15  18
ENDBRANCH  13  14
ENDBRANCH  12  13
ENDBRANCH   2  12
BRANCH   1  30
HETATM   30  C   UNL     1     -44.248  58.513 -59.607  1.00  0.00     0.051 A 
HETATM   31  C   UNL     1     -43.968  57.215 -60.098  1.00  0.00    -0.013 A 
HETATM   32  C   UNL     1     -42.549  56.740 -60.293  1.00  0.00     0.052 C 
HETATM   33  C   UNL     1     -45.050  56.358 -60.380  1.00  0.00     0.042 A 
HETATM   34 CL   UNL     1     -44.806  54.728 -60.903  1.00  0.00    -0.084 Cl
HETATM   35  C   UNL     1     -46.370  56.788 -60.218  1.00  0.00     0.024 A 
HETATM   36  C   UNL     1     -46.638  58.073 -59.759  1.00  0.00     0.004 A 
HETATM   37  C   UNL     1     -45.583  58.925 -59.442  1.00  0.00     0.031 A 
ENDBRANCH   1  30
BRANCH   6  38
HETATM   38  N   UNL     1     -42.869  60.289 -61.436  1.00  0.00    -0.384 N 
HETATM   39  H   UNL     1     -42.896  59.433 -61.970  1.00  0.00     0.157 HD
HETATM   40  H   UNL     1     -43.091  61.155 -61.910  1.00  0.00     0.157 HD
ENDBRANCH   6  38
TORSDOF 10
ENDMDL
MODEL 10
REMARK VINA RESULT:      -7.1      2.939      7.032
REMARK  10 active torsions:
REMARK  status: ('A' for Active; 'I' for Inactive)
REMARK    1  A    between atoms: C_8  and  N_9 
REMARK    2  A    between atoms: C_10  and  S_11 
REMARK    3  A    between atoms: S_11  and  C_12 
REMARK    4  A    between atoms: C_12  and  C_13 
REMARK       I    between atoms: C_13  and  N_14 
REMARK    5  A    between atoms: N_14  and  C_15 
REMARK    6  A    between atoms: C_15  and  C_16 
REMARK    7  A    between atoms: C_16  and  C_17 
REMARK    8  A    between atoms: C_19  and  O_20 
REMARK    9  A    between atoms: C_22  and  O_23 
REMARK   10  A    between atoms: C_31  and  N_32 
ROOT
HETATM    1  N   UNL     1     -41.901  56.495 -51.793  1.00  0.00    -0.275 N 
HETATM    2  C   UNL     1     -41.467  56.263 -53.126  1.00  0.00     0.177 A 
HETATM    3  N   UNL     1     -40.811  55.208 -53.546  1.00  0.00    -0.204 NA
HETATM    4  C   UNL     1     -40.561  54.300 -52.580  1.00  0.00     0.162 A 
HETATM    5  C   UNL     1     -40.873  54.339 -51.248  1.00  0.00     0.081 A 
HETATM    6  C   UNL     1     -41.569  55.501 -50.781  1.00  0.00     0.124 A 
HETATM    7  N   UNL     1     -39.926  53.107 -52.765  1.00  0.00    -0.260 N 
HETATM    8  H   UNL     1     -39.558  52.726 -53.629  1.00  0.00     0.191 HD
HETATM    9  N   UNL     1     -39.808  52.390 -51.626  1.00  0.00    -0.177 NA
HETATM   10  C   UNL     1     -40.398  53.146 -50.686  1.00  0.00     0.068 A 
HETATM   11  C   UNL     1     -40.467  52.650 -49.291  1.00  0.00     0.073 C 
ENDROOT
BRANCH   2  12
HETATM   12  S   UNL     1     -41.816  57.460 -54.389  1.00  0.00    -0.082 SA
BRANCH  12  13
HETATM   13  C   UNL     1     -42.782  56.414 -55.518  1.00  0.00     0.185 C 
BRANCH  13  14
HETATM   14  C   UNL     1     -44.013  55.826 -54.843  1.00  0.00     0.227 C 
HETATM   15  N   UNL     1     -45.168  56.571 -54.849  1.00  0.00    -0.360 N 
HETATM   16  H   UNL     1     -45.920  56.131 -54.327  1.00  0.00     0.162 HD
HETATM   17  O   UNL     1     -44.047  54.708 -54.331  1.00  0.00    -0.273 OA
BRANCH  15  18
HETATM   18  C   UNL     1     -45.297  57.961 -55.243  1.00  0.00     0.127 C 
BRANCH  18  19
HETATM   19  C   UNL     1     -46.089  58.153 -56.537  1.00  0.00     0.058 C 
BRANCH  19  20
HETATM   20  C   UNL     1     -45.146  58.316 -57.704  1.00  0.00    -0.054 A 
HETATM   21  C   UNL     1     -44.941  57.259 -58.606  1.00  0.00     0.046 A 
HETATM   22  C   UNL     1     -44.002  57.372 -59.639  1.00  0.00     0.102 A 
HETATM   23  C   UNL     1     -43.254  58.558 -59.774  1.00  0.00     0.101 A 
HETATM   24  C   UNL     1     -43.475  59.617 -58.888  1.00  0.00     0.040 A 
HETATM   25  C   UNL     1     -44.411  59.495 -57.859  1.00  0.00     0.010 A 
BRANCH  22  26
HETATM   26  O   UNL     1     -43.724  56.379 -60.546  1.00  0.00    -0.353 OA
HETATM   27  C   UNL     1     -44.752  55.445 -60.844  1.00  0.00     0.210 C 
ENDBRANCH  22  26
BRANCH  23  28
HETATM   28  O   UNL     1     -42.342  58.584 -60.800  1.00  0.00    -0.353 OA
HETATM   29  C   UNL     1     -41.813  59.847 -61.179  1.00  0.00     0.210 C 
ENDBRANCH  23  28
ENDBRANCH  19  20
ENDBRANCH  18  19
ENDBRANCH  15  18
ENDBRANCH  13  14
ENDBRANCH  12  13
ENDBRANCH   2  12
BRANCH   1  30
HETATM   30  C   UNL     1     -42.671  57.649 -51.446  1.00  0.00     0.051 A 
HETATM   31  C   UNL     1     -42.047  58.862 -51.066  1.00  0.00    -0.013 A 
HETATM   32  C   UNL     1     -40.548  58.959 -50.918  1.00  0.00     0.052 C 
HETATM   33  C   UNL     1     -42.858  59.993 -50.849  1.00  0.00     0.042 A 
HETATM   34 CL   UNL     1     -42.180  61.536 -50.463  1.00  0.00    -0.084 Cl
HETATM   35  C   UNL     1     -44.248  59.916 -50.966  1.00  0.00     0.024 A 
HETATM   36  C   UNL     1     -44.856  58.715 -51.317  1.00  0.00     0.004 A 
HETATM   37  C   UNL     1     -44.072  57.593 -51.568  1.00  0.00     0.031 A 
ENDBRANCH   1  30
BRANCH   6  38
HETATM   38  N   UNL     1     -41.865  55.654 -49.504  1.00  0.00    -0.384 N 
HETATM   39  H   UNL     1     -42.677  55.220 -49.089  1.00  0.00     0.157 HD
HETATM   40  H   UNL     1     -41.261  56.206 -48.908  1.00  0.00     0.157 HD
ENDBRANCH   6  38
TORSDOF 10
ENDMDL
