MODEL 1
REMARK VINA RESULT:      -8.2      0.000      0.000
REMARK  7 active torsions:
REMARK  status: ('A' for Active; 'I' for Inactive)
REMARK    1  A    between atoms: C_4  and  C_5 
REMARK    2  A    between atoms: C_5  and  O_6 
REMARK    3  A    between atoms: C_5  and  C_7 
REMARK    4  A    between atoms: C_7  and  N_8 
REMARK       I    between atoms: N_8  and  C_9 
REMARK    5  A    between atoms: N_8  and  C_20 
REMARK    6  A    between atoms: C_9  and  C_10 
REMARK    7  A    between atoms: C_14  and  C_15 
ROOT
HETATM    1  N   UNL     1     -42.800  55.336 -54.615  1.00  0.00    -0.339 N 
HETATM    2  C   UNL     1     -43.193  55.998 -53.427  1.00  0.00     0.274 C 
HETATM    3  O   UNL     1     -43.778  57.083 -53.477  1.00  0.00    -0.266 OA
ENDROOT
BRANCH   1   4
HETATM    4  C   UNL     1     -42.199  53.981 -54.630  1.00  0.00     0.163 C 
BRANCH   4   5
HETATM    5  C   UNL     1     -40.682  53.941 -54.333  1.00  0.00     0.169 C 
BRANCH   5   6
HETATM    6  C   UNL     1     -40.282  52.605 -53.735  1.00  0.00    -0.028 A 
HETATM    7  C   UNL     1     -39.941  52.515 -52.376  1.00  0.00     0.010 A 
HETATM    8  C   UNL     1     -39.597  51.286 -51.810  1.00  0.00     0.001 A 
HETATM    9  C   UNL     1     -39.591  50.133 -52.592  1.00  0.00     0.000 A 
HETATM   10  C   UNL     1     -39.925  50.207 -53.941  1.00  0.00     0.001 A 
HETATM   11  C   UNL     1     -40.270  51.434 -54.509  1.00  0.00     0.010 A 
ENDBRANCH   5   6
BRANCH   5  12
HETATM   12  O   UNL     1     -39.932  54.110 -55.541  1.00  0.00    -0.389 OA
HETATM   13  H   UNL     1     -40.525  54.567 -56.161  1.00  0.00     0.210 HD
ENDBRANCH   5  12
ENDBRANCH   4   5
ENDBRANCH   1   4
BRANCH   1  14
HETATM   14  C   UNL     1     -43.082  56.049 -55.886  1.00  0.00     0.087 C 
HETATM   15  C   UNL     1     -43.049  55.193 -57.165  1.00  0.00     0.025 C 
HETATM   16  C   UNL     1     -43.452  56.007 -58.394  1.00  0.00     0.002 C 
HETATM   17  C   UNL     1     -42.583  57.249 -58.554  1.00  0.00     0.000 C 
HETATM   18  C   UNL     1     -42.590  58.106 -57.292  1.00  0.00     0.002 C 
HETATM   19  C   UNL     1     -42.196  57.300 -56.054  1.00  0.00     0.025 C 
ENDBRANCH   1  14
BRANCH   2  20
HETATM   20  C   UNL     1     -42.958  55.384 -52.098  1.00  0.00     0.146 A 
HETATM   21  N   UNL     1     -43.780  54.505 -51.489  1.00  0.00    -0.169 NA
HETATM   22  N   UNL     1     -43.171  54.231 -50.322  1.00  0.00    -0.281 N 
HETATM   23  H   UNL     1     -43.625  53.596 -49.674  1.00  0.00     0.189 HD
HETATM   24  C   UNL     1     -41.981  54.871 -50.162  1.00  0.00     0.034 A 
HETATM   25  C   UNL     1     -41.793  55.603 -51.305  1.00  0.00     0.066 A 
BRANCH  24  26
HETATM   26  C   UNL     1     -41.043  54.813 -48.979  1.00  0.00     0.037 A 
HETATM   27  C   UNL     1     -40.617  53.456 -48.462  1.00  0.00     0.011 A 
HETATM   28  C   UNL     1     -39.631  54.307 -49.184  1.00  0.00     0.011 A 
ENDBRANCH  24  26
ENDBRANCH   2  20
TORSDOF 7
ENDMDL
MODEL 2
REMARK VINA RESULT:      -8.1      1.413      6.101
REMARK  7 active torsions:
REMARK  status: ('A' for Active; 'I' for Inactive)
REMARK    1  A    between atoms: C_4  and  C_5 
REMARK    2  A    between atoms: C_5  and  O_6 
REMARK    3  A    between atoms: C_5  and  C_7 
REMARK    4  A    between atoms: C_7  and  N_8 
REMARK       I    between atoms: N_8  and  C_9 
REMARK    5  A    between atoms: N_8  and  C_20 
REMARK    6  A    between atoms: C_9  and  C_10 
REMARK    7  A    between atoms: C_14  and  C_15 
ROOT
HETATM    1  N   UNL     1     -42.545  55.446 -54.031  1.00  0.00    -0.339 N 
HETATM    2  C   UNL     1     -42.876  56.624 -54.742  1.00  0.00     0.274 C 
HETATM    3  O   UNL     1     -43.215  57.647 -54.140  1.00  0.00    -0.266 OA
ENDROOT
BRANCH   1   4
HETATM    4  C   UNL     1     -42.021  54.222 -54.683  1.00  0.00     0.163 C 
BRANCH   4   5
HETATM    5  C   UNL     1     -40.501  53.996 -54.513  1.00  0.00     0.169 C 
BRANCH   5   6
HETATM    6  C   UNL     1     -40.223  52.683 -53.806  1.00  0.00    -0.028 A 
HETATM    7  C   UNL     1     -40.212  51.481 -54.530  1.00  0.00     0.010 A 
HETATM    8  C   UNL     1     -39.931  50.270 -53.894  1.00  0.00     0.001 A 
HETATM    9  C   UNL     1     -39.655  50.245 -52.529  1.00  0.00     0.000 A 
HETATM   10  C   UNL     1     -39.664  51.430 -51.796  1.00  0.00     0.001 A 
HETATM   11  C   UNL     1     -39.944  52.641 -52.431  1.00  0.00     0.010 A 
ENDBRANCH   5   6
BRANCH   5  12
HETATM   12  O   UNL     1     -39.859  53.937 -55.792  1.00  0.00    -0.389 OA
HETATM   13  H   UNL     1     -38.913  53.809 -55.609  1.00  0.00     0.210 HD
ENDBRANCH   5  12
ENDBRANCH   4   5
ENDBRANCH   1   4
BRANCH   1  14
HETATM   14  C   UNL     1     -42.690  55.509 -52.554  1.00  0.00     0.087 C 
HETATM   15  C   UNL     1     -41.440  55.944 -51.769  1.00  0.00     0.025 C 
HETATM   16  C   UNL     1     -41.733  56.072 -50.274  1.00  0.00     0.002 C 
HETATM   17  C   UNL     1     -42.308  54.780 -49.704  1.00  0.00     0.000 C 
HETATM   18  C   UNL     1     -43.540  54.324 -50.477  1.00  0.00     0.002 C 
HETATM   19  C   UNL     1     -43.261  54.200 -51.974  1.00  0.00     0.025 C 
ENDBRANCH   1  14
BRANCH   2  20
HETATM   20  C   UNL     1     -42.774  56.678 -56.219  1.00  0.00     0.146 A 
HETATM   21  N   UNL     1     -42.204  57.674 -56.927  1.00  0.00    -0.169 NA
HETATM   22  N   UNL     1     -42.347  57.298 -58.210  1.00  0.00    -0.281 N 
HETATM   23  H   UNL     1     -42.005  57.916 -58.938  1.00  0.00     0.189 HD
HETATM   24  C   UNL     1     -42.959  56.093 -58.362  1.00  0.00     0.034 A 
HETATM   25  C   UNL     1     -43.222  55.644 -57.094  1.00  0.00     0.066 A 
BRANCH  24  26
HETATM   26  C   UNL     1     -43.298  55.375 -59.648  1.00  0.00     0.037 A 
HETATM   27  C   UNL     1     -44.580  54.573 -59.710  1.00  0.00     0.011 A 
HETATM   28  C   UNL     1     -44.478  55.852 -60.467  1.00  0.00     0.011 A 
ENDBRANCH  24  26
ENDBRANCH   2  20
TORSDOF 7
ENDMDL
MODEL 3
REMARK VINA RESULT:      -7.6      2.596      6.490
REMARK  7 active torsions:
REMARK  status: ('A' for Active; 'I' for Inactive)
REMARK    1  A    between atoms: C_4  and  C_5 
REMARK    2  A    between atoms: C_5  and  O_6 
REMARK    3  A    between atoms: C_5  and  C_7 
REMARK    4  A    between atoms: C_7  and  N_8 
REMARK       I    between atoms: N_8  and  C_9 
REMARK    5  A    between atoms: N_8  and  C_20 
REMARK    6  A    between atoms: C_9  and  C_10 
REMARK    7  A    between atoms: C_14  and  C_15 
ROOT
HETATM    1  N   UNL     1     -42.966  58.006 -54.143  1.00  0.00    -0.339 N 
HETATM    2  C   UNL     1     -42.671  58.406 -55.468  1.00  0.00     0.274 C 
HETATM    3  O   UNL     1     -41.794  59.245 -55.690  1.00  0.00    -0.266 OA
ENDROOT
BRANCH   1   4
HETATM    4  C   UNL     1     -43.924  56.923 -53.813  1.00  0.00     0.163 C 
BRANCH   4   5
HETATM    5  C   UNL     1     -43.445  55.500 -54.180  1.00  0.00     0.169 C 
BRANCH   5   6
HETATM    6  C   UNL     1     -42.618  54.900 -53.059  1.00  0.00    -0.028 A 
HETATM    7  C   UNL     1     -43.084  54.944 -51.737  1.00  0.00     0.010 A 
HETATM    8  C   UNL     1     -42.343  54.371 -50.701  1.00  0.00     0.001 A 
HETATM    9  C   UNL     1     -41.129  53.745 -50.975  1.00  0.00     0.000 A 
HETATM   10  C   UNL     1     -40.652  53.693 -52.282  1.00  0.00     0.001 A 
HETATM   11  C   UNL     1     -41.392  54.265 -53.318  1.00  0.00     0.010 A 
ENDBRANCH   5   6
BRANCH   5  12
HETATM   12  O   UNL     1     -44.568  54.635 -54.393  1.00  0.00    -0.389 OA
HETATM   13  H   UNL     1     -44.583  54.449 -55.347  1.00  0.00     0.210 HD
ENDBRANCH   5  12
ENDBRANCH   4   5
ENDBRANCH   1   4
BRANCH   1  14
HETATM   14  C   UNL     1     -42.207  58.693 -53.067  1.00  0.00     0.087 C 
HETATM   15  C   UNL     1     -40.901  58.012 -52.618  1.00  0.00     0.025 C 
HETATM   16  C   UNL     1     -40.156  58.855 -51.585  1.00  0.00     0.002 C 
HETATM   17  C   UNL     1     -41.037  59.177 -50.383  1.00  0.00     0.000 C 
HETATM   18  C   UNL     1     -42.343  59.841 -50.807  1.00  0.00     0.002 C 
HETATM   19  C   UNL     1     -43.094  59.009 -51.847  1.00  0.00     0.025 C 
ENDBRANCH   1  14
BRANCH   2  20
HETATM   20  C   UNL     1     -43.370  57.794 -56.623  1.00  0.00     0.146 A 
HETATM   21  N   UNL     1     -44.649  58.032 -56.978  1.00  0.00    -0.169 NA
HETATM   22  N   UNL     1     -44.843  57.266 -58.065  1.00  0.00    -0.281 N 
HETATM   23  H   UNL     1     -45.759  57.265 -58.502  1.00  0.00     0.189 HD
HETATM   24  C   UNL     1     -43.741  56.564 -58.444  1.00  0.00     0.034 A 
HETATM   25  C   UNL     1     -42.756  56.904 -57.554  1.00  0.00     0.066 A 
BRANCH  24  26
HETATM   26  C   UNL     1     -43.603  55.599 -59.598  1.00  0.00     0.037 A 
HETATM   27  C   UNL     1     -44.463  54.353 -59.604  1.00  0.00     0.011 A 
HETATM   28  C   UNL     1     -44.751  55.447 -60.573  1.00  0.00     0.011 A 
ENDBRANCH  24  26
ENDBRANCH   2  20
TORSDOF 7
ENDMDL
MODEL 4
REMARK VINA RESULT:      -7.4      2.433      5.844
REMARK  7 active torsions:
REMARK  status: ('A' for Active; 'I' for Inactive)
REMARK    1  A    between atoms: C_4  and  C_5 
REMARK    2  A    between atoms: C_5  and  O_6 
REMARK    3  A    between atoms: C_5  and  C_7 
REMARK    4  A    between atoms: C_7  and  N_8 
REMARK       I    between atoms: N_8  and  C_9 
REMARK    5  A    between atoms: N_8  and  C_20 
REMARK    6  A    between atoms: C_9  and  C_10 
REMARK    7  A    between atoms: C_14  and  C_15 
ROOT
HETATM    1  N   UNL     1     -40.914  53.632 -52.589  1.00  0.00    -0.339 N 
HETATM    2  C   UNL     1     -41.441  54.005 -51.330  1.00  0.00     0.274 C 
HETATM    3  O   UNL     1     -41.637  53.157 -50.455  1.00  0.00    -0.266 OA
ENDROOT
BRANCH   1   4
HETATM    4  C   UNL     1     -40.548  54.612 -53.640  1.00  0.00     0.163 C 
BRANCH   4   5
HETATM    5  C   UNL     1     -41.697  54.992 -54.601  1.00  0.00     0.169 C 
BRANCH   5   6
HETATM    6  C   UNL     1     -42.095  56.446 -54.422  1.00  0.00    -0.028 A 
HETATM    7  C   UNL     1     -43.439  56.830 -54.552  1.00  0.00     0.010 A 
HETATM    8  C   UNL     1     -43.820  58.160 -54.362  1.00  0.00     0.001 A 
HETATM    9  C   UNL     1     -42.864  59.121 -54.040  1.00  0.00     0.000 A 
HETATM   10  C   UNL     1     -41.527  58.756 -53.909  1.00  0.00     0.001 A 
HETATM   11  C   UNL     1     -41.145  57.427 -54.098  1.00  0.00     0.010 A 
ENDBRANCH   5   6
BRANCH   5  12
HETATM   12  O   UNL     1     -41.285  54.827 -55.963  1.00  0.00    -0.389 OA
HETATM   13  H   UNL     1     -40.315  54.773 -55.943  1.00  0.00     0.210 HD
ENDBRANCH   5  12
ENDBRANCH   4   5
ENDBRANCH   1   4
BRANCH   1  14
HETATM   14  C   UNL     1     -40.677  52.181 -52.797  1.00  0.00     0.087 C 
HETATM   15  C   UNL     1     -39.505  51.567 -52.010  1.00  0.00     0.025 C 
HETATM   16  C   UNL     1     -39.420  50.056 -52.222  1.00  0.00     0.002 C 
HETATM   17  C   UNL     1     -39.322  49.701 -53.702  1.00  0.00     0.000 C 
HETATM   18  C   UNL     1     -40.467  50.312 -54.502  1.00  0.00     0.002 C 
HETATM   19  C   UNL     1     -40.567  51.823 -54.292  1.00  0.00     0.025 C 
ENDBRANCH   1  14
BRANCH   2  20
HETATM   20  C   UNL     1     -41.723  55.425 -51.010  1.00  0.00     0.146 A 
HETATM   21  N   UNL     1     -42.921  56.030 -51.136  1.00  0.00    -0.169 NA
HETATM   22  N   UNL     1     -42.700  57.296 -50.740  1.00  0.00    -0.281 N 
HETATM   23  H   UNL     1     -43.470  57.956 -50.771  1.00  0.00     0.189 HD
HETATM   24  C   UNL     1     -41.421  57.529 -50.340  1.00  0.00     0.034 A 
HETATM   25  C   UNL     1     -40.765  56.333 -50.469  1.00  0.00     0.066 A 
BRANCH  24  26
HETATM   26  C   UNL     1     -40.818  58.826 -49.854  1.00  0.00     0.037 A 
HETATM   27  C   UNL     1     -39.900  59.588 -50.786  1.00  0.00     0.011 A 
HETATM   28  C   UNL     1     -41.258  60.126 -50.493  1.00  0.00     0.011 A 
ENDBRANCH  24  26
ENDBRANCH   2  20
TORSDOF 7
ENDMDL
MODEL 5
REMARK VINA RESULT:      -7.3      2.207      6.325
REMARK  7 active torsions:
REMARK  status: ('A' for Active; 'I' for Inactive)
REMARK    1  A    between atoms: C_4  and  C_5 
REMARK    2  A    between atoms: C_5  and  O_6 
REMARK    3  A    between atoms: C_5  and  C_7 
REMARK    4  A    between atoms: C_7  and  N_8 
REMARK       I    between atoms: N_8  and  C_9 
REMARK    5  A    between atoms: N_8  and  C_20 
REMARK    6  A    between atoms: C_9  and  C_10 
REMARK    7  A    between atoms: C_14  and  C_15 
ROOT
HETATM    1  N   UNL     1     -41.421  53.887 -53.804  1.00  0.00    -0.339 N 
HETATM    2  C   UNL     1     -40.926  54.912 -54.646  1.00  0.00     0.274 C 
HETATM    3  O   UNL     1     -39.802  54.824 -55.148  1.00  0.00    -0.266 OA
ENDROOT
BRANCH   1   4
HETATM    4  C   UNL     1     -42.802  53.874 -53.263  1.00  0.00     0.163 C 
BRANCH   4   5
HETATM    5  C   UNL     1     -42.906  54.161 -51.747  1.00  0.00     0.169 C 
BRANCH   5   6
HETATM    6  C   UNL     1     -42.575  55.610 -51.445  1.00  0.00    -0.028 A 
HETATM    7  C   UNL     1     -43.553  56.604 -51.599  1.00  0.00     0.010 A 
HETATM    8  C   UNL     1     -43.266  57.937 -51.297  1.00  0.00     0.001 A 
HETATM    9  C   UNL     1     -42.000  58.293 -50.837  1.00  0.00     0.000 A 
HETATM   10  C   UNL     1     -41.018  57.318 -50.680  1.00  0.00     0.001 A 
HETATM   11  C   UNL     1     -41.304  55.985 -50.981  1.00  0.00     0.010 A 
ENDBRANCH   5   6
BRANCH   5  12
HETATM   12  O   UNL     1     -44.241  53.923 -51.285  1.00  0.00    -0.389 OA
HETATM   13  H   UNL     1     -44.764  53.716 -52.078  1.00  0.00     0.210 HD
ENDBRANCH   5  12
ENDBRANCH   4   5
ENDBRANCH   1   4
BRANCH   1  14
HETATM   14  C   UNL     1     -40.494  52.760 -53.528  1.00  0.00     0.087 C 
HETATM   15  C   UNL     1     -40.785  51.445 -54.274  1.00  0.00     0.025 C 
HETATM   16  C   UNL     1     -39.713  50.393 -53.993  1.00  0.00     0.002 C 
HETATM   17  C   UNL     1     -39.552  50.142 -52.498  1.00  0.00     0.000 C 
HETATM   18  C   UNL     1     -39.276  51.435 -51.738  1.00  0.00     0.002 C 
HETATM   19  C   UNL     1     -40.338  52.498 -52.017  1.00  0.00     0.025 C 
ENDBRANCH   1  14
BRANCH   2  20
HETATM   20  C   UNL     1     -41.760  56.088 -54.987  1.00  0.00     0.146 A 
HETATM   21  N   UNL     1     -42.917  56.050 -55.679  1.00  0.00    -0.169 NA
HETATM   22  N   UNL     1     -43.308  57.335 -55.748  1.00  0.00    -0.281 N 
HETATM   23  H   UNL     1     -44.161  57.557 -56.251  1.00  0.00     0.189 HD
HETATM   24  C   UNL     1     -42.472  58.197 -55.109  1.00  0.00     0.034 A 
HETATM   25  C   UNL     1     -41.474  57.424 -54.576  1.00  0.00     0.066 A 
BRANCH  24  26
HETATM   26  C   UNL     1     -42.588  59.699 -54.999  1.00  0.00     0.037 A 
HETATM   27  C   UNL     1     -43.586  60.275 -54.017  1.00  0.00     0.011 A 
HETATM   28  C   UNL     1     -42.129  60.381 -53.728  1.00  0.00     0.011 A 
ENDBRANCH  24  26
ENDBRANCH   2  20
TORSDOF 7
ENDMDL
MODEL 6
REMARK VINA RESULT:      -7.3      2.036      2.853
REMARK  7 active torsions:
REMARK  status: ('A' for Active; 'I' for Inactive)
REMARK    1  A    between atoms: C_4  and  C_5 
REMARK    2  A    between atoms: C_5  and  O_6 
REMARK    3  A    between atoms: C_5  and  C_7 
REMARK    4  A    between atoms: C_7  and  N_8 
REMARK       I    between atoms: N_8  and  C_9 
REMARK    5  A    between atoms: N_8  and  C_20 
REMARK    6  A    between atoms: C_9  and  C_10 
REMARK    7  A    between atoms: C_14  and  C_15 
ROOT
HETATM    1  N   UNL     1     -42.628  56.646 -55.829  1.00  0.00    -0.339 N 
HETATM    2  C   UNL     1     -43.254  57.504 -54.894  1.00  0.00     0.274 C 
HETATM    3  O   UNL     1     -44.129  58.295 -55.256  1.00  0.00    -0.266 OA
ENDROOT
BRANCH   1   4
HETATM    4  C   UNL     1     -41.654  55.596 -55.445  1.00  0.00     0.163 C 
BRANCH   4   5
HETATM    5  C   UNL     1     -42.282  54.231 -55.082  1.00  0.00     0.169 C 
BRANCH   5   6
HETATM    6  C   UNL     1     -41.475  53.532 -54.004  1.00  0.00    -0.028 A 
HETATM    7  C   UNL     1     -40.590  52.497 -54.346  1.00  0.00     0.010 A 
HETATM    8  C   UNL     1     -39.822  51.865 -53.365  1.00  0.00     0.001 A 
HETATM    9  C   UNL     1     -39.927  52.260 -52.033  1.00  0.00     0.000 A 
HETATM   10  C   UNL     1     -40.801  53.285 -51.679  1.00  0.00     0.001 A 
HETATM   11  C   UNL     1     -41.568  53.917 -52.658  1.00  0.00     0.010 A 
ENDBRANCH   5   6
BRANCH   5  12
HETATM   12  O   UNL     1     -43.609  54.411 -54.572  1.00  0.00    -0.389 OA
HETATM   13  H   UNL     1     -44.178  53.828 -55.101  1.00  0.00     0.210 HD
ENDBRANCH   5  12
ENDBRANCH   4   5
ENDBRANCH   1   4
BRANCH   1  14
HETATM   14  C   UNL     1     -43.045  56.804 -57.246  1.00  0.00     0.087 C 
HETATM   15  C   UNL     1     -43.115  55.513 -58.079  1.00  0.00     0.025 C 
HETATM   16  C   UNL     1     -43.652  55.781 -59.485  1.00  0.00     0.002 C 
HETATM   17  C   UNL     1     -42.829  56.845 -60.205  1.00  0.00     0.000 C 
HETATM   18  C   UNL     1     -42.735  58.129 -59.389  1.00  0.00     0.002 C 
HETATM   19  C   UNL     1     -42.207  57.871 -57.978  1.00  0.00     0.025 C 
ENDBRANCH   1  14
BRANCH   2  20
HETATM   20  C   UNL     1     -42.914  57.441 -53.453  1.00  0.00     0.146 A 
HETATM   21  N   UNL     1     -43.662  56.848 -52.500  1.00  0.00    -0.169 NA
HETATM   22  N   UNL     1     -42.971  57.041 -51.363  1.00  0.00    -0.281 N 
HETATM   23  H   UNL     1     -43.360  56.693 -50.493  1.00  0.00     0.189 HD
HETATM   24  C   UNL     1     -41.798  57.707 -51.542  1.00  0.00     0.034 A 
HETATM   25  C   UNL     1     -41.710  57.955 -52.887  1.00  0.00     0.066 A 
BRANCH  24  26
HETATM   26  C   UNL     1     -40.786  58.110 -50.495  1.00  0.00     0.037 A 
HETATM   27  C   UNL     1     -39.749  59.151 -50.858  1.00  0.00     0.011 A 
HETATM   28  C   UNL     1     -40.845  59.507 -49.914  1.00  0.00     0.011 A 
ENDBRANCH  24  26
ENDBRANCH   2  20
TORSDOF 7
ENDMDL
MODEL 7
REMARK VINA RESULT:      -7.3      2.813      6.296
REMARK  7 active torsions:
REMARK  status: ('A' for Active; 'I' for Inactive)
REMARK    1  A    between atoms: C_4  and  C_5 
REMARK    2  A    between atoms: C_5  and  O_6 
REMARK    3  A    between atoms: C_5  and  C_7 
REMARK    4  A    between atoms: C_7  and  N_8 
REMARK       I    between atoms: N_8  and  C_9 
REMARK    5  A    between atoms: N_8  and  C_20 
REMARK    6  A    between atoms: C_9  and  C_10 
REMARK    7  A    between atoms: C_14  and  C_15 
ROOT
HETATM    1  N   UNL     1     -41.443  54.709 -52.653  1.00  0.00    -0.339 N 
HETATM    2  C   UNL     1     -42.208  55.065 -51.517  1.00  0.00     0.274 C 
HETATM    3  O   UNL     1     -42.467  54.228 -50.648  1.00  0.00    -0.266 OA
ENDROOT
BRANCH   1   4
HETATM    4  C   UNL     1     -40.999  55.689 -53.674  1.00  0.00     0.163 C 
BRANCH   4   5
HETATM    5  C   UNL     1     -42.054  56.023 -54.754  1.00  0.00     0.169 C 
BRANCH   5   6
HETATM    6  C   UNL     1     -42.439  57.490 -54.701  1.00  0.00    -0.028 A 
HETATM    7  C   UNL     1     -43.732  57.892 -55.066  1.00  0.00     0.010 A 
HETATM    8  C   UNL     1     -44.106  59.236 -54.995  1.00  0.00     0.001 A 
HETATM    9  C   UNL     1     -43.192  60.193 -54.557  1.00  0.00     0.000 A 
HETATM   10  C   UNL     1     -41.904  59.809 -54.193  1.00  0.00     0.001 A 
HETATM   11  C   UNL     1     -41.530  58.466 -54.263  1.00  0.00     0.010 A 
ENDBRANCH   5   6
BRANCH   5  12
HETATM   12  O   UNL     1     -41.528  55.766 -56.062  1.00  0.00    -0.389 OA
HETATM   13  H   UNL     1     -42.081  56.278 -56.676  1.00  0.00     0.210 HD
ENDBRANCH   5  12
ENDBRANCH   4   5
ENDBRANCH   1   4
BRANCH   1  14
HETATM   14  C   UNL     1     -41.039  53.284 -52.752  1.00  0.00     0.087 C 
HETATM   15  C   UNL     1     -39.844  52.857 -51.882  1.00  0.00     0.025 C 
HETATM   16  C   UNL     1     -39.583  51.355 -51.985  1.00  0.00     0.002 C 
HETATM   17  C   UNL     1     -39.380  50.920 -53.433  1.00  0.00     0.000 C 
HETATM   18  C   UNL     1     -40.549  51.345 -54.316  1.00  0.00     0.002 C 
HETATM   19  C   UNL     1     -40.824  52.845 -54.214  1.00  0.00     0.025 C 
ENDBRANCH   1  14
BRANCH   2  20
HETATM   20  C   UNL     1     -42.671  56.457 -51.314  1.00  0.00     0.146 A 
HETATM   21  N   UNL     1     -41.905  57.481 -50.884  1.00  0.00    -0.169 NA
HETATM   22  N   UNL     1     -42.741  58.534 -50.850  1.00  0.00    -0.281 N 
HETATM   23  H   UNL     1     -42.383  59.427 -50.529  1.00  0.00     0.189 HD
HETATM   24  C   UNL     1     -44.004  58.244 -51.264  1.00  0.00     0.034 A 
HETATM   25  C   UNL     1     -43.991  56.917 -51.604  1.00  0.00     0.066 A 
BRANCH  24  26
HETATM   26  C   UNL     1     -45.196  59.170 -51.338  1.00  0.00     0.037 A 
HETATM   27  C   UNL     1     -45.572  59.961 -50.104  1.00  0.00     0.011 A 
HETATM   28  C   UNL     1     -44.971  60.665 -51.271  1.00  0.00     0.011 A 
ENDBRANCH  24  26
ENDBRANCH   2  20
TORSDOF 7
ENDMDL
MODEL 8
REMARK VINA RESULT:      -7.2      2.618      7.397
REMARK  7 active torsions:
REMARK  status: ('A' for Active; 'I' for Inactive)
REMARK    1  A    between atoms: C_4  and  C_5 
REMARK    2  A    between atoms: C_5  and  O_6 
REMARK    3  A    between atoms: C_5  and  C_7 
REMARK    4  A    between atoms: C_7  and  N_8 
REMARK       I    between atoms: N_8  and  C_9 
REMARK    5  A    between atoms: N_8  and  C_20 
REMARK    6  A    between atoms: C_9  and  C_10 
REMARK    7  A    between atoms: C_14  and  C_15 
ROOT
HETATM    1  N   UNL     1     -41.802  55.664 -53.370  1.00  0.00    -0.339 N 
HETATM    2  C   UNL     1     -42.896  55.195 -54.135  1.00  0.00     0.274 C 
HETATM    3  O   UNL     1     -43.636  54.311 -53.695  1.00  0.00    -0.266 OA
ENDROOT
BRANCH   1   4
HETATM    4  C   UNL     1     -40.945  56.800 -53.787  1.00  0.00     0.163 C 
BRANCH   4   5
HETATM    5  C   UNL     1     -41.562  58.198 -53.557  1.00  0.00     0.169 C 
BRANCH   5   6
HETATM    6  C   UNL     1     -40.990  58.845 -52.309  1.00  0.00    -0.028 A 
HETATM    7  C   UNL     1     -41.844  59.442 -51.369  1.00  0.00     0.010 A 
HETATM    8  C   UNL     1     -41.330  60.016 -50.205  1.00  0.00     0.001 A 
HETATM    9  C   UNL     1     -39.958  59.999 -49.964  1.00  0.00     0.000 A 
HETATM   10  C   UNL     1     -39.097  59.411 -50.888  1.00  0.00     0.001 A 
HETATM   11  C   UNL     1     -39.610  58.837 -52.052  1.00  0.00     0.010 A 
ENDBRANCH   5   6
BRANCH   5  12
HETATM   12  O   UNL     1     -41.267  59.063 -54.660  1.00  0.00    -0.389 OA
HETATM   13  H   UNL     1     -41.744  59.891 -54.483  1.00  0.00     0.210 HD
ENDBRANCH   5  12
ENDBRANCH   4   5
ENDBRANCH   1   4
BRANCH   1  14
HETATM   14  C   UNL     1     -41.580  54.994 -52.063  1.00  0.00     0.087 C 
HETATM   15  C   UNL     1     -41.318  55.920 -50.862  1.00  0.00     0.025 C 
HETATM   16  C   UNL     1     -41.207  55.130 -49.559  1.00  0.00     0.002 C 
HETATM   17  C   UNL     1     -40.136  54.048 -49.650  1.00  0.00     0.000 C 
HETATM   18  C   UNL     1     -40.369  53.126 -50.842  1.00  0.00     0.002 C 
HETATM   19  C   UNL     1     -40.490  53.907 -52.151  1.00  0.00     0.025 C 
ENDBRANCH   1  14
BRANCH   2  20
HETATM   20  C   UNL     1     -43.212  55.785 -55.457  1.00  0.00     0.146 A 
HETATM   21  N   UNL     1     -43.982  56.873 -55.662  1.00  0.00    -0.169 NA
HETATM   22  N   UNL     1     -43.989  57.031 -56.997  1.00  0.00    -0.281 N 
HETATM   23  H   UNL     1     -44.533  57.790 -57.394  1.00  0.00     0.189 HD
HETATM   24  C   UNL     1     -43.238  56.112 -57.661  1.00  0.00     0.034 A 
HETATM   25  C   UNL     1     -42.692  55.307 -56.696  1.00  0.00     0.066 A 
BRANCH  24  26
HETATM   26  C   UNL     1     -43.033  55.977 -59.152  1.00  0.00     0.037 A 
HETATM   27  C   UNL     1     -44.064  55.213 -59.956  1.00  0.00     0.011 A 
HETATM   28  C   UNL     1     -43.979  56.694 -60.092  1.00  0.00     0.011 A 
ENDBRANCH  24  26
ENDBRANCH   2  20
TORSDOF 7
ENDMDL
MODEL 9
REMARK VINA RESULT:      -7.1     14.475     17.492
REMARK  7 active torsions:
REMARK  status: ('A' for Active; 'I' for Inactive)
REMARK    1  A    between atoms: C_4  and  C_5 
REMARK    2  A    between atoms: C_5  and  O_6 
REMARK    3  A    between atoms: C_5  and  C_7 
REMARK    4  A    between atoms: C_7  and  N_8 
REMARK       I    between atoms: N_8  and  C_9 
REMARK    5  A    between atoms: N_8  and  C_20 
REMARK    6  A    between atoms: C_9  and  C_10 
REMARK    7  A    between atoms: C_14  and  C_15 
ROOT
HETATM    1  N   UNL     1     -34.750  39.275 -53.130  1.00  0.00    -0.339 N 
HETATM    2  C   UNL     1     -34.428  38.372 -54.170  1.00  0.00     0.274 C 
HETATM    3  O   UNL     1     -33.501  37.568 -54.040  1.00  0.00    -0.266 OA
ENDROOT
BRANCH   1   4
HETATM    4  C   UNL     1     -35.921  40.185 -53.175  1.00  0.00     0.163 C 
BRANCH   4   5
HETATM    5  C   UNL     1     -35.606  41.624 -53.644  1.00  0.00     0.169 C 
BRANCH   5   6
HETATM    6  C   UNL     1     -35.959  41.806 -55.108  1.00  0.00    -0.028 A 
HETATM    7  C   UNL     1     -34.975  42.201 -56.027  1.00  0.00     0.010 A 
HETATM    8  C   UNL     1     -35.283  42.345 -57.381  1.00  0.00     0.001 A 
HETATM    9  C   UNL     1     -36.577  42.097 -57.834  1.00  0.00     0.000 A 
HETATM   10  C   UNL     1     -37.565  41.706 -56.934  1.00  0.00     0.001 A 
HETATM   11  C   UNL     1     -37.259  41.561 -55.580  1.00  0.00     0.010 A 
ENDBRANCH   5   6
BRANCH   5  12
HETATM   12  O   UNL     1     -36.377  42.572 -52.897  1.00  0.00    -0.389 OA
HETATM   13  H   UNL     1     -36.515  43.329 -53.491  1.00  0.00     0.210 HD
ENDBRANCH   5  12
ENDBRANCH   4   5
ENDBRANCH   1   4
BRANCH   1  14
HETATM   14  C   UNL     1     -33.878  39.230 -51.929  1.00  0.00     0.087 C 
HETATM   15  C   UNL     1     -34.586  39.390 -50.571  1.00  0.00     0.025 C 
HETATM   16  C   UNL     1     -33.609  39.224 -49.407  1.00  0.00     0.002 C 
HETATM   17  C   UNL     1     -32.434  40.189 -49.521  1.00  0.00     0.000 C 
HETATM   18  C   UNL     1     -31.726  40.056 -50.865  1.00  0.00     0.002 C 
HETATM   19  C   UNL     1     -32.695  40.212 -52.037  1.00  0.00     0.025 C 
ENDBRANCH   1  14
BRANCH   2  20
HETATM   20  C   UNL     1     -35.225  38.330 -55.419  1.00  0.00     0.146 A 
HETATM   21  N   UNL     1     -36.526  37.985 -55.503  1.00  0.00    -0.169 NA
HETATM   22  N   UNL     1     -36.816  38.087 -56.812  1.00  0.00    -0.281 N 
HETATM   23  H   UNL     1     -37.752  37.850 -57.123  1.00  0.00     0.189 HD
HETATM   24  C   UNL     1     -35.770  38.509 -57.573  1.00  0.00     0.034 A 
HETATM   25  C   UNL     1     -34.731  38.708 -56.702  1.00  0.00     0.066 A 
BRANCH  24  26
HETATM   26  C   UNL     1     -35.730  38.718 -59.069  1.00  0.00     0.037 A 
HETATM   27  C   UNL     1     -36.289  37.632 -59.964  1.00  0.00     0.011 A 
HETATM   28  C   UNL     1     -37.029  38.917 -59.819  1.00  0.00     0.011 A 
ENDBRANCH  24  26
ENDBRANCH   2  20
TORSDOF 7
ENDMDL
MODEL 10
REMARK VINA RESULT:      -6.9      2.708      5.846
REMARK  7 active torsions:
REMARK  status: ('A' for Active; 'I' for Inactive)
REMARK    1  A    between atoms: C_4  and  C_5 
REMARK    2  A    between atoms: C_5  and  O_6 
REMARK    3  A    between atoms: C_5  and  C_7 
REMARK    4  A    between atoms: C_7  and  N_8 
REMARK       I    between atoms: N_8  and  C_9 
REMARK    5  A    between atoms: N_8  and  C_20 
REMARK    6  A    between atoms: C_9  and  C_10 
REMARK    7  A    between atoms: C_14  and  C_15 
ROOT
HETATM    1  N   UNL     1     -42.494  56.333 -54.069  1.00  0.00    -0.339 N 
HETATM    2  C   UNL     1     -42.313  55.050 -54.638  1.00  0.00     0.274 C 
HETATM    3  O   UNL     1     -42.719  54.805 -55.777  1.00  0.00    -0.266 OA
ENDROOT
BRANCH   1   4
HETATM    4  C   UNL     1     -41.932  56.729 -52.756  1.00  0.00     0.163 C 
BRANCH   4   5
HETATM    5  C   UNL     1     -42.916  56.618 -51.569  1.00  0.00     0.169 C 
BRANCH   5   6
HETATM    6  C   UNL     1     -43.653  57.927 -51.351  1.00  0.00    -0.028 A 
HETATM    7  C   UNL     1     -45.047  57.932 -51.189  1.00  0.00     0.010 A 
HETATM    8  C   UNL     1     -45.731  59.128 -50.961  1.00  0.00     0.001 A 
HETATM    9  C   UNL     1     -45.033  60.331 -50.891  1.00  0.00     0.000 A 
HETATM   10  C   UNL     1     -43.649  60.342 -51.052  1.00  0.00     0.001 A 
HETATM   11  C   UNL     1     -42.964  59.147 -51.279  1.00  0.00     0.010 A 
ENDBRANCH   5   6
BRANCH   5  12
HETATM   12  O   UNL     1     -43.901  55.611 -51.829  1.00  0.00    -0.389 OA
HETATM   13  H   UNL     1     -44.745  56.084 -51.926  1.00  0.00     0.210 HD
ENDBRANCH   5  12
ENDBRANCH   4   5
ENDBRANCH   1   4
BRANCH   1  14
HETATM   14  C   UNL     1     -43.240  57.317 -54.896  1.00  0.00     0.087 C 
HETATM   15  C   UNL     1     -42.783  58.782 -54.782  1.00  0.00     0.025 C 
HETATM   16  C   UNL     1     -43.549  59.684 -55.748  1.00  0.00     0.002 C 
HETATM   17  C   UNL     1     -45.056  59.571 -55.545  1.00  0.00     0.000 C 
HETATM   18  C   UNL     1     -45.529  58.124 -55.640  1.00  0.00     0.002 C 
HETATM   19  C   UNL     1     -44.763  57.211 -54.684  1.00  0.00     0.025 C 
ENDBRANCH   1  14
BRANCH   2  20
HETATM   20  C   UNL     1     -41.588  53.986 -53.904  1.00  0.00     0.146 A 
HETATM   21  N   UNL     1     -41.655  53.771 -52.574  1.00  0.00    -0.169 NA
HETATM   22  N   UNL     1     -40.842  52.720 -52.364  1.00  0.00    -0.281 N 
HETATM   23  H   UNL     1     -40.715  52.387 -51.414  1.00  0.00     0.189 HD
HETATM   24  C   UNL     1     -40.275  52.231 -53.499  1.00  0.00     0.034 A 
HETATM   25  C   UNL     1     -40.759  53.003 -54.522  1.00  0.00     0.066 A 
BRANCH  24  26
HETATM   26  C   UNL     1     -39.305  51.080 -53.636  1.00  0.00     0.037 A 
HETATM   27  C   UNL     1     -39.699  49.734 -53.067  1.00  0.00     0.011 A 
HETATM   28  C   UNL     1     -39.661  49.923 -54.544  1.00  0.00     0.011 A 
ENDBRANCH  24  26
ENDBRANCH   2  20
TORSDOF 7
ENDMDL
