MODEL 1
REMARK VINA RESULT:      -9.0      0.000      0.000
REMARK  4 active torsions:
REMARK  status: ('A' for Active; 'I' for Inactive)
REMARK    1  A    between atoms: C_6  and  N_7 
REMARK       I    between atoms: N_7  and  C_8 
REMARK    2  A    between atoms: C_8  and  C_9 
REMARK    3  A    between atoms: C_10  and  C_11 
REMARK    4  A    between atoms: C_13  and  O_14 
ROOT
HETATM    1  C   UNL     1     -42.790  56.657 -51.925  1.00  0.00     0.062 C 
HETATM    2  C   UNL     1     -43.813  57.339 -52.826  1.00  0.00     0.202 C 
HETATM    3  N   UNL     1     -44.164  58.663 -52.298  1.00  0.00    -0.084 N 
HETATM    4  C   UNL     1     -43.484  59.289 -51.287  1.00  0.00     0.725 A 
HETATM    5  N   UNL     1     -42.451  58.658 -50.696  1.00  0.00    -0.192 N 
HETATM    6  N   UNL     1     -45.243  59.379 -52.679  1.00  0.00    -0.149 NA
HETATM    7  C   UNL     1     -45.093  60.471 -51.921  1.00  0.00     0.275 A 
HETATM    8  N   UNL     1     -44.034  60.452 -51.048  1.00  0.00    -0.054 NA
HETATM    9  C   UNL     1     -42.135  57.327 -50.945  1.00  0.00     0.037 C 
HETATM   10  C   UNL     1     -41.051  56.732 -50.082  1.00  0.00     0.070 C 
HETATM   11  H   UNL     1     -41.979  59.121 -49.923  1.00  0.00     0.184 HD
ENDROOT
BRANCH   1  12
HETATM   12  C   UNL     1     -42.613  55.204 -52.168  1.00  0.00     0.256 C 
HETATM   13  N   UNL     1     -41.397  54.919 -52.756  1.00  0.00    -0.323 N 
HETATM   14  H   UNL     1     -40.808  55.709 -52.980  1.00  0.00     0.169 HD
HETATM   15  O   UNL     1     -43.478  54.418 -51.811  1.00  0.00    -0.267 OA
BRANCH  13  16
HETATM   16  C   UNL     1     -40.862  53.643 -53.059  1.00  0.00     0.041 A 
HETATM   17  C   UNL     1     -40.148  52.948 -52.059  1.00  0.00    -0.035 A 
HETATM   18  C   UNL     1     -39.643  51.662 -52.336  1.00  0.00     0.015 A 
HETATM   19  C   UNL     1     -39.907  53.524 -50.689  1.00  0.00     0.050 C 
HETATM   20  C   UNL     1     -39.817  51.066 -53.589  1.00  0.00    -0.061 A 
HETATM   21  C   UNL     1     -39.314  49.680 -53.860  1.00  0.00     0.048 C 
HETATM   22  C   UNL     1     -40.521  51.762 -54.569  1.00  0.00     0.009 A 
HETATM   23  C   UNL     1     -41.033  53.037 -54.308  1.00  0.00     0.030 A 
ENDBRANCH  13  16
ENDBRANCH   1  12
BRANCH   2  24
HETATM   24  C   UNL     1     -43.366  57.469 -54.279  1.00  0.00    -0.025 A 
HETATM   25  C   UNL     1     -42.698  58.635 -54.703  1.00  0.00     0.046 A 
HETATM   26  C   UNL     1     -42.288  58.784 -56.030  1.00  0.00     0.068 A 
HETATM   27  C   UNL     1     -42.542  57.758 -56.942  1.00  0.00     0.037 A 
HETATM   28  C   UNL     1     -43.197  56.595 -56.540  1.00  0.00     0.003 A 
HETATM   29  C   UNL     1     -43.606  56.449 -55.216  1.00  0.00     0.010 A 
BRANCH  26  30
HETATM   30  O   UNL     1     -41.638  59.866 -56.555  1.00  0.00    -0.356 OA
HETATM   31  C   UNL     1     -41.627  59.984 -57.973  1.00  0.00     0.210 C 
ENDBRANCH  26  30
ENDBRANCH   2  24
TORSDOF 4
ENDMDL
MODEL 2
REMARK VINA RESULT:      -8.9      2.708      4.327
REMARK  4 active torsions:
REMARK  status: ('A' for Active; 'I' for Inactive)
REMARK    1  A    between atoms: C_6  and  N_7 
REMARK       I    between atoms: N_7  and  C_8 
REMARK    2  A    between atoms: C_8  and  C_9 
REMARK    3  A    between atoms: C_10  and  C_11 
REMARK    4  A    between atoms: C_13  and  O_14 
ROOT
HETATM    1  C   UNL     1     -41.757  56.087 -55.187  1.00  0.00     0.062 C 
HETATM    2  C   UNL     1     -41.368  57.536 -54.925  1.00  0.00     0.202 C 
HETATM    3  N   UNL     1     -42.176  58.444 -55.748  1.00  0.00    -0.084 N 
HETATM    4  C   UNL     1     -43.283  58.055 -56.456  1.00  0.00     0.725 A 
HETATM    5  N   UNL     1     -43.653  56.760 -56.445  1.00  0.00    -0.192 N 
HETATM    6  N   UNL     1     -41.878  59.740 -55.978  1.00  0.00    -0.149 NA
HETATM    7  C   UNL     1     -42.907  60.094 -56.758  1.00  0.00     0.275 A 
HETATM    8  N   UNL     1     -43.784  59.089 -57.081  1.00  0.00    -0.054 NA
HETATM    9  C   UNL     1     -42.872  55.755 -55.884  1.00  0.00     0.037 C 
HETATM   10  C   UNL     1     -43.356  54.344 -56.099  1.00  0.00     0.070 C 
HETATM   11  H   UNL     1     -44.455  56.481 -57.004  1.00  0.00     0.184 HD
ENDROOT
BRANCH   1  12
HETATM   12  C   UNL     1     -40.796  55.078 -54.672  1.00  0.00     0.256 C 
HETATM   13  N   UNL     1     -41.356  54.276 -53.697  1.00  0.00    -0.323 N 
HETATM   14  H   UNL     1     -42.308  54.489 -53.431  1.00  0.00     0.169 HD
HETATM   15  O   UNL     1     -39.674  55.008 -55.150  1.00  0.00    -0.267 OA
BRANCH  13  16
HETATM   16  C   UNL     1     -40.762  53.170 -53.043  1.00  0.00     0.041 A 
HETATM   17  C   UNL     1     -40.553  53.235 -51.648  1.00  0.00    -0.035 A 
HETATM   18  C   UNL     1     -39.997  52.126 -50.979  1.00  0.00     0.015 A 
HETATM   19  C   UNL     1     -40.910  54.448 -50.833  1.00  0.00     0.050 C 
HETATM   20  C   UNL     1     -39.630  50.968 -51.672  1.00  0.00    -0.061 A 
HETATM   21  C   UNL     1     -39.081  49.777 -50.945  1.00  0.00     0.048 C 
HETATM   22  C   UNL     1     -39.840  50.915 -53.048  1.00  0.00     0.009 A 
HETATM   23  C   UNL     1     -40.394  52.005 -53.726  1.00  0.00     0.030 A 
ENDBRANCH  13  16
ENDBRANCH   1  12
BRANCH   2  24
HETATM   24  C   UNL     1     -41.469  57.947 -53.459  1.00  0.00    -0.025 A 
HETATM   25  C   UNL     1     -40.446  58.722 -52.878  1.00  0.00     0.046 A 
HETATM   26  C   UNL     1     -40.509  59.102 -51.535  1.00  0.00     0.068 A 
HETATM   27  C   UNL     1     -41.606  58.710 -50.766  1.00  0.00     0.037 A 
HETATM   28  C   UNL     1     -42.630  57.946 -51.324  1.00  0.00     0.003 A 
HETATM   29  C   UNL     1     -42.565  57.568 -52.664  1.00  0.00     0.010 A 
BRANCH  26  30
HETATM   30  O   UNL     1     -39.580  59.847 -50.864  1.00  0.00    -0.356 OA
HETATM   31  C   UNL     1     -38.283  59.280 -50.720  1.00  0.00     0.210 C 
ENDBRANCH  26  30
ENDBRANCH   2  24
TORSDOF 4
ENDMDL
MODEL 3
REMARK VINA RESULT:      -8.8      2.666      6.110
REMARK  4 active torsions:
REMARK  status: ('A' for Active; 'I' for Inactive)
REMARK    1  A    between atoms: C_6  and  N_7 
REMARK       I    between atoms: N_7  and  C_8 
REMARK    2  A    between atoms: C_8  and  C_9 
REMARK    3  A    between atoms: C_10  and  C_11 
REMARK    4  A    between atoms: C_13  and  O_14 
ROOT
HETATM    1  C   UNL     1     -42.009  54.605 -53.174  1.00  0.00     0.062 C 
HETATM    2  C   UNL     1     -42.429  55.166 -51.820  1.00  0.00     0.202 C 
HETATM    3  N   UNL     1     -41.659  54.537 -50.741  1.00  0.00    -0.084 N 
HETATM    4  C   UNL     1     -40.557  53.748 -50.944  1.00  0.00     0.725 A 
HETATM    5  N   UNL     1     -40.156  53.487 -52.203  1.00  0.00    -0.192 N 
HETATM    6  N   UNL     1     -41.994  54.583 -49.434  1.00  0.00    -0.149 NA
HETATM    7  C   UNL     1     -40.990  53.879 -48.898  1.00  0.00     0.275 A 
HETATM    8  N   UNL     1     -40.094  53.342 -49.790  1.00  0.00    -0.054 NA
HETATM    9  C   UNL     1     -40.900  53.839 -53.323  1.00  0.00     0.037 C 
HETATM   10  C   UNL     1     -40.386  53.331 -54.646  1.00  0.00     0.070 C 
HETATM   11  H   UNL     1     -39.358  52.871 -52.338  1.00  0.00     0.184 HD
ENDROOT
BRANCH   1  12
HETATM   12  C   UNL     1     -42.934  54.915 -54.293  1.00  0.00     0.256 C 
HETATM   13  N   UNL     1     -42.418  55.871 -55.145  1.00  0.00    -0.323 N 
HETATM   14  H   UNL     1     -41.520  56.262 -54.894  1.00  0.00     0.169 HD
HETATM   15  O   UNL     1     -43.989  54.308 -54.395  1.00  0.00    -0.267 OA
BRANCH  13  16
HETATM   16  C   UNL     1     -42.986  56.351 -56.350  1.00  0.00     0.041 A 
HETATM   17  C   UNL     1     -43.537  57.651 -56.373  1.00  0.00    -0.035 A 
HETATM   18  C   UNL     1     -44.072  58.155 -57.575  1.00  0.00     0.015 A 
HETATM   19  C   UNL     1     -43.571  58.537 -55.157  1.00  0.00     0.050 C 
HETATM   20  C   UNL     1     -44.088  57.387 -58.743  1.00  0.00    -0.061 A 
HETATM   21  C   UNL     1     -44.619  57.948 -60.028  1.00  0.00     0.048 C 
HETATM   22  C   UNL     1     -43.543  56.105 -58.709  1.00  0.00     0.009 A 
HETATM   23  C   UNL     1     -43.004  55.592 -57.525  1.00  0.00     0.030 A 
ENDBRANCH  13  16
ENDBRANCH   1  12
BRANCH   2  24
HETATM   24  C   UNL     1     -42.308  56.684 -51.718  1.00  0.00    -0.025 A 
HETATM   25  C   UNL     1     -41.041  57.292 -51.819  1.00  0.00     0.046 A 
HETATM   26  C   UNL     1     -40.902  58.679 -51.717  1.00  0.00     0.068 A 
HETATM   27  C   UNL     1     -42.037  59.466 -51.517  1.00  0.00     0.037 A 
HETATM   28  C   UNL     1     -43.299  58.882 -51.418  1.00  0.00     0.003 A 
HETATM   29  C   UNL     1     -43.436  57.499 -51.520  1.00  0.00     0.010 A 
BRANCH  26  30
HETATM   30  O   UNL     1     -39.730  59.379 -51.797  1.00  0.00    -0.356 OA
HETATM   31  C   UNL     1     -39.018  59.581 -50.583  1.00  0.00     0.210 C 
ENDBRANCH  26  30
ENDBRANCH   2  24
TORSDOF 4
ENDMDL
MODEL 4
REMARK VINA RESULT:      -8.6      2.908      4.837
REMARK  4 active torsions:
REMARK  status: ('A' for Active; 'I' for Inactive)
REMARK    1  A    between atoms: C_6  and  N_7 
REMARK       I    between atoms: N_7  and  C_8 
REMARK    2  A    between atoms: C_8  and  C_9 
REMARK    3  A    between atoms: C_10  and  C_11 
REMARK    4  A    between atoms: C_13  and  O_14 
ROOT
HETATM    1  C   UNL     1     -42.663  56.835 -56.632  1.00  0.00     0.062 C 
HETATM    2  C   UNL     1     -42.242  58.176 -56.045  1.00  0.00     0.202 C 
HETATM    3  N   UNL     1     -42.025  59.161 -57.111  1.00  0.00    -0.084 N 
HETATM    4  C   UNL     1     -42.392  58.969 -58.417  1.00  0.00     0.725 A 
HETATM    5  N   UNL     1     -42.951  57.799 -58.781  1.00  0.00    -0.192 N 
HETATM    6  N   UNL     1     -41.364  60.328 -56.954  1.00  0.00    -0.149 NA
HETATM    7  C   UNL     1     -41.457  60.830 -58.191  1.00  0.00     0.275 A 
HETATM    8  N   UNL     1     -42.070  60.025 -59.119  1.00  0.00    -0.054 NA
HETATM    9  C   UNL     1     -43.029  56.701 -57.931  1.00  0.00     0.037 C 
HETATM   10  C   UNL     1     -43.538  55.423 -58.547  1.00  0.00     0.070 C 
HETATM   11  H   UNL     1     -43.184  57.658 -59.761  1.00  0.00     0.184 HD
ENDROOT
BRANCH   1  12
HETATM   12  C   UNL     1     -42.586  55.688 -55.692  1.00  0.00     0.256 C 
HETATM   13  N   UNL     1     -41.283  55.360 -55.377  1.00  0.00    -0.323 N 
HETATM   14  H   UNL     1     -40.559  55.895 -55.837  1.00  0.00     0.169 HD
HETATM   15  O   UNL     1     -43.613  55.186 -55.261  1.00  0.00    -0.267 OA
BRANCH  13  16
HETATM   16  C   UNL     1     -40.837  54.377 -54.459  1.00  0.00     0.041 A 
HETATM   17  C   UNL     1     -40.871  54.669 -53.078  1.00  0.00    -0.035 A 
HETATM   18  C   UNL     1     -40.466  53.686 -52.154  1.00  0.00     0.015 A 
HETATM   19  C   UNL     1     -41.334  55.997 -52.543  1.00  0.00     0.050 C 
HETATM   20  C   UNL     1     -40.012  52.433 -52.576  1.00  0.00    -0.061 A 
HETATM   21  C   UNL     1     -39.625  51.378 -51.583  1.00  0.00     0.048 C 
HETATM   22  C   UNL     1     -39.982  52.156 -53.941  1.00  0.00     0.009 A 
HETATM   23  C   UNL     1     -40.384  53.119 -54.871  1.00  0.00     0.030 A 
ENDBRANCH  13  16
ENDBRANCH   1  12
BRANCH   2  24
HETATM   24  C   UNL     1     -43.225  58.737 -55.021  1.00  0.00    -0.025 A 
HETATM   25  C   UNL     1     -42.768  59.094 -53.737  1.00  0.00     0.046 A 
HETATM   26  C   UNL     1     -43.650  59.600 -52.778  1.00  0.00     0.068 A 
HETATM   27  C   UNL     1     -44.998  59.755 -53.105  1.00  0.00     0.037 A 
HETATM   28  C   UNL     1     -45.467  59.411 -54.372  1.00  0.00     0.003 A 
HETATM   29  C   UNL     1     -44.587  58.907 -55.326  1.00  0.00     0.010 A 
BRANCH  26  30
HETATM   30  O   UNL     1     -43.325  59.976 -51.504  1.00  0.00    -0.356 OA
HETATM   31  C   UNL     1     -42.013  59.661 -51.055  1.00  0.00     0.210 C 
ENDBRANCH  26  30
ENDBRANCH   2  24
TORSDOF 4
ENDMDL
MODEL 5
REMARK VINA RESULT:      -8.5      2.508      6.400
REMARK  4 active torsions:
REMARK  status: ('A' for Active; 'I' for Inactive)
REMARK    1  A    between atoms: C_6  and  N_7 
REMARK       I    between atoms: N_7  and  C_8 
REMARK    2  A    between atoms: C_8  and  C_9 
REMARK    3  A    between atoms: C_10  and  C_11 
REMARK    4  A    between atoms: C_13  and  O_14 
ROOT
HETATM    1  C   UNL     1     -43.255  57.546 -53.104  1.00  0.00     0.062 C 
HETATM    2  C   UNL     1     -41.765  57.503 -53.423  1.00  0.00     0.202 C 
HETATM    3  N   UNL     1     -40.999  58.236 -52.408  1.00  0.00    -0.084 N 
HETATM    4  C   UNL     1     -41.524  58.677 -51.222  1.00  0.00     0.725 A 
HETATM    5  N   UNL     1     -42.830  58.473 -50.961  1.00  0.00    -0.192 N 
HETATM    6  N   UNL     1     -39.720  58.641 -52.558  1.00  0.00    -0.149 NA
HETATM    7  C   UNL     1     -39.512  59.238 -51.378  1.00  0.00     0.275 A 
HETATM    8  N   UNL     1     -40.594  59.290 -50.535  1.00  0.00    -0.054 NA
HETATM    9  C   UNL     1     -43.722  57.981 -51.907  1.00  0.00     0.037 C 
HETATM   10  C   UNL     1     -45.174  57.964 -51.501  1.00  0.00     0.070 C 
HETATM   11  H   UNL     1     -43.213  58.838 -50.093  1.00  0.00     0.184 HD
ENDROOT
BRANCH   1  12
HETATM   12  C   UNL     1     -44.145  57.133 -54.217  1.00  0.00     0.256 C 
HETATM   13  N   UNL     1     -44.213  58.089 -55.212  1.00  0.00    -0.323 N 
HETATM   14  H   UNL     1     -43.698  58.944 -55.051  1.00  0.00     0.169 HD
HETATM   15  O   UNL     1     -44.677  56.033 -54.194  1.00  0.00    -0.267 OA
BRANCH  13  16
HETATM   16  C   UNL     1     -44.900  58.002 -56.447  1.00  0.00     0.041 A 
HETATM   17  C   UNL     1     -44.199  57.547 -57.586  1.00  0.00    -0.035 A 
HETATM   18  C   UNL     1     -44.880  57.421 -58.813  1.00  0.00     0.015 A 
HETATM   19  C   UNL     1     -42.741  57.179 -57.544  1.00  0.00     0.050 C 
HETATM   20  C   UNL     1     -46.233  57.756 -58.932  1.00  0.00    -0.061 A 
HETATM   21  C   UNL     1     -46.960  57.576 -60.231  1.00  0.00     0.048 C 
HETATM   22  C   UNL     1     -46.914  58.205 -57.802  1.00  0.00     0.009 A 
HETATM   23  C   UNL     1     -46.253  58.331 -56.576  1.00  0.00     0.030 A 
ENDBRANCH  13  16
ENDBRANCH   1  12
BRANCH   2  24
HETATM   24  C   UNL     1     -41.206  56.090 -53.564  1.00  0.00    -0.025 A 
HETATM   25  C   UNL     1     -41.195  55.228 -52.449  1.00  0.00     0.046 A 
HETATM   26  C   UNL     1     -40.678  53.934 -52.549  1.00  0.00     0.068 A 
HETATM   27  C   UNL     1     -40.173  53.493 -53.773  1.00  0.00     0.037 A 
HETATM   28  C   UNL     1     -40.180  54.330 -54.888  1.00  0.00     0.003 A 
HETATM   29  C   UNL     1     -40.694  55.621 -54.786  1.00  0.00     0.010 A 
BRANCH  26  30
HETATM   30  O   UNL     1     -40.612  53.013 -51.540  1.00  0.00    -0.356 OA
HETATM   31  C   UNL     1     -39.668  51.960 -51.691  1.00  0.00     0.210 C 
ENDBRANCH  26  30
ENDBRANCH   2  24
TORSDOF 4
ENDMDL
MODEL 6
REMARK VINA RESULT:      -8.4      2.743      6.134
REMARK  4 active torsions:
REMARK  status: ('A' for Active; 'I' for Inactive)
REMARK    1  A    between atoms: C_6  and  N_7 
REMARK       I    between atoms: N_7  and  C_8 
REMARK    2  A    between atoms: C_8  and  C_9 
REMARK    3  A    between atoms: C_10  and  C_11 
REMARK    4  A    between atoms: C_13  and  O_14 
ROOT
HETATM    1  C   UNL     1     -42.026  54.601 -53.177  1.00  0.00     0.062 C 
HETATM    2  C   UNL     1     -42.408  55.231 -51.843  1.00  0.00     0.202 C 
HETATM    3  N   UNL     1     -41.636  54.630 -50.749  1.00  0.00    -0.084 N 
HETATM    4  C   UNL     1     -40.557  53.805 -50.935  1.00  0.00     0.725 A 
HETATM    5  N   UNL     1     -40.184  53.479 -52.187  1.00  0.00    -0.192 N 
HETATM    6  N   UNL     1     -41.947  54.742 -49.440  1.00  0.00    -0.149 NA
HETATM    7  C   UNL     1     -40.952  54.036 -48.890  1.00  0.00     0.275 A 
HETATM    8  N   UNL     1     -40.085  53.439 -49.772  1.00  0.00    -0.054 NA
HETATM    9  C   UNL     1     -40.939  53.801 -53.310  1.00  0.00     0.037 C 
HETATM   10  C   UNL     1     -40.460  53.221 -54.617  1.00  0.00     0.070 C 
HETATM   11  H   UNL     1     -39.405  52.837 -52.308  1.00  0.00     0.184 HD
ENDROOT
BRANCH   1  12
HETATM   12  C   UNL     1     -42.961  54.885 -54.294  1.00  0.00     0.256 C 
HETATM   13  N   UNL     1     -42.469  55.846 -55.154  1.00  0.00    -0.323 N 
HETATM   14  H   UNL     1     -41.578  56.257 -54.909  1.00  0.00     0.169 HD
HETATM   15  O   UNL     1     -44.005  54.255 -54.388  1.00  0.00    -0.267 OA
BRANCH  13  16
HETATM   16  C   UNL     1     -43.052  56.307 -56.360  1.00  0.00     0.041 A 
HETATM   17  C   UNL     1     -43.744  57.538 -56.354  1.00  0.00    -0.035 A 
HETATM   18  C   UNL     1     -44.298  58.026 -57.554  1.00  0.00     0.015 A 
HETATM   19  C   UNL     1     -43.913  58.365 -55.109  1.00  0.00     0.050 C 
HETATM   20  C   UNL     1     -44.192  57.307 -58.749  1.00  0.00    -0.061 A 
HETATM   21  C   UNL     1     -44.745  57.856 -60.031  1.00  0.00     0.048 C 
HETATM   22  C   UNL     1     -43.508  56.093 -58.743  1.00  0.00     0.009 A 
HETATM   23  C   UNL     1     -42.949  55.597 -57.561  1.00  0.00     0.030 A 
ENDBRANCH  13  16
ENDBRANCH   1  12
BRANCH   2  24
HETATM   24  C   UNL     1     -42.248  56.748 -51.810  1.00  0.00    -0.025 A 
HETATM   25  C   UNL     1     -43.328  57.556 -51.401  1.00  0.00     0.046 A 
HETATM   26  C   UNL     1     -43.211  58.947 -51.372  1.00  0.00     0.068 A 
HETATM   27  C   UNL     1     -42.004  59.539 -51.749  1.00  0.00     0.037 A 
HETATM   28  C   UNL     1     -40.923  58.756 -52.152  1.00  0.00     0.003 A 
HETATM   29  C   UNL     1     -41.042  57.368 -52.181  1.00  0.00     0.010 A 
BRANCH  26  30
HETATM   30  O   UNL     1     -44.186  59.830 -50.999  1.00  0.00    -0.356 OA
HETATM   31  C   UNL     1     -43.771  60.974 -50.263  1.00  0.00     0.210 C 
ENDBRANCH  26  30
ENDBRANCH   2  24
TORSDOF 4
ENDMDL
MODEL 7
REMARK VINA RESULT:      -8.4      1.533      2.304
REMARK  4 active torsions:
REMARK  status: ('A' for Active; 'I' for Inactive)
REMARK    1  A    between atoms: C_6  and  N_7 
REMARK       I    between atoms: N_7  and  C_8 
REMARK    2  A    between atoms: C_8  and  C_9 
REMARK    3  A    between atoms: C_10  and  C_11 
REMARK    4  A    between atoms: C_13  and  O_14 
ROOT
HETATM    1  C   UNL     1     -42.077  57.778 -52.269  1.00  0.00     0.062 C 
HETATM    2  C   UNL     1     -43.435  58.000 -52.925  1.00  0.00     0.202 C 
HETATM    3  N   UNL     1     -44.272  58.873 -52.095  1.00  0.00    -0.084 N 
HETATM    4  C   UNL     1     -43.808  59.582 -51.017  1.00  0.00     0.725 A 
HETATM    5  N   UNL     1     -42.518  59.458 -50.652  1.00  0.00    -0.192 N 
HETATM    6  N   UNL     1     -45.608  59.013 -52.234  1.00  0.00    -0.149 NA
HETATM    7  C   UNL     1     -45.864  59.898 -51.264  1.00  0.00     0.275 A 
HETATM    8  N   UNL     1     -44.791  60.265 -50.490  1.00  0.00    -0.054 NA
HETATM    9  C   UNL     1     -41.660  58.517 -51.211  1.00  0.00     0.037 C 
HETATM   10  C   UNL     1     -40.297  58.405 -50.577  1.00  0.00     0.070 C 
HETATM   11  H   UNL     1     -42.197  59.962 -49.829  1.00  0.00     0.184 HD
ENDROOT
BRANCH   1  12
HETATM   12  C   UNL     1     -41.281  56.663 -52.839  1.00  0.00     0.256 C 
HETATM   13  N   UNL     1     -41.682  55.435 -52.352  1.00  0.00    -0.323 N 
HETATM   14  H   UNL     1     -42.417  55.443 -51.658  1.00  0.00     0.169 HD
HETATM   15  O   UNL     1     -40.422  56.895 -53.677  1.00  0.00    -0.267 OA
BRANCH  13  16
HETATM   16  C   UNL     1     -41.201  54.157 -52.729  1.00  0.00     0.041 A 
HETATM   17  C   UNL     1     -41.665  53.583 -53.932  1.00  0.00    -0.035 A 
HETATM   18  C   UNL     1     -41.166  52.328 -54.338  1.00  0.00     0.015 A 
HETATM   19  C   UNL     1     -42.675  54.263 -54.816  1.00  0.00     0.050 C 
HETATM   20  C   UNL     1     -40.235  51.631 -53.562  1.00  0.00    -0.061 A 
HETATM   21  C   UNL     1     -39.677  50.317 -54.024  1.00  0.00     0.048 C 
HETATM   22  C   UNL     1     -39.785  52.206 -52.376  1.00  0.00     0.009 A 
HETATM   23  C   UNL     1     -40.267  53.452 -51.962  1.00  0.00     0.030 A 
ENDBRANCH  13  16
ENDBRANCH   1  12
BRANCH   2  24
HETATM   24  C   UNL     1     -43.351  58.565 -54.340  1.00  0.00    -0.025 A 
HETATM   25  C   UNL     1     -43.852  57.815 -55.422  1.00  0.00     0.046 A 
HETATM   26  C   UNL     1     -43.777  58.305 -56.729  1.00  0.00     0.068 A 
HETATM   27  C   UNL     1     -43.203  59.556 -56.957  1.00  0.00     0.037 A 
HETATM   28  C   UNL     1     -42.705  60.315 -55.898  1.00  0.00     0.003 A 
HETATM   29  C   UNL     1     -42.780  59.824 -54.596  1.00  0.00     0.010 A 
BRANCH  26  30
HETATM   30  O   UNL     1     -44.225  57.670 -57.854  1.00  0.00    -0.356 OA
HETATM   31  C   UNL     1     -43.600  56.437 -58.188  1.00  0.00     0.210 C 
ENDBRANCH  26  30
ENDBRANCH   2  24
TORSDOF 4
ENDMDL
MODEL 8
REMARK VINA RESULT:      -8.4      2.925      5.121
REMARK  4 active torsions:
REMARK  status: ('A' for Active; 'I' for Inactive)
REMARK    1  A    between atoms: C_6  and  N_7 
REMARK       I    between atoms: N_7  and  C_8 
REMARK    2  A    between atoms: C_8  and  C_9 
REMARK    3  A    between atoms: C_10  and  C_11 
REMARK    4  A    between atoms: C_13  and  O_14 
ROOT
HETATM    1  C   UNL     1     -42.114  56.051 -55.510  1.00  0.00     0.062 C 
HETATM    2  C   UNL     1     -41.917  57.500 -55.940  1.00  0.00     0.202 C 
HETATM    3  N   UNL     1     -42.513  57.731 -57.261  1.00  0.00    -0.084 N 
HETATM    4  C   UNL     1     -43.340  56.840 -57.895  1.00  0.00     0.725 A 
HETATM    5  N   UNL     1     -43.608  55.657 -57.310  1.00  0.00    -0.192 N 
HETATM    6  N   UNL     1     -42.250  58.798 -58.045  1.00  0.00    -0.149 NA
HETATM    7  C   UNL     1     -43.032  58.528 -59.097  1.00  0.00     0.275 A 
HETATM    8  N   UNL     1     -43.709  57.335 -59.049  1.00  0.00    -0.054 NA
HETATM    9  C   UNL     1     -42.956  55.214 -56.165  1.00  0.00     0.037 C 
HETATM   10  C   UNL     1     -43.259  53.801 -55.735  1.00  0.00     0.070 C 
HETATM   11  H   UNL     1     -44.194  54.992 -57.809  1.00  0.00     0.184 HD
ENDROOT
BRANCH   1  12
HETATM   12  C   UNL     1     -41.277  55.620 -54.362  1.00  0.00     0.256 C 
HETATM   13  N   UNL     1     -41.989  55.595 -53.179  1.00  0.00    -0.323 N 
HETATM   14  H   UNL     1     -42.951  55.900 -53.225  1.00  0.00     0.169 HD
HETATM   15  O   UNL     1     -40.113  55.297 -54.546  1.00  0.00    -0.267 OA
BRANCH  13  16
HETATM   16  C   UNL     1     -41.536  55.164 -51.908  1.00  0.00     0.041 A 
HETATM   17  C   UNL     1     -41.497  56.096 -50.848  1.00  0.00    -0.035 A 
HETATM   18  C   UNL     1     -41.084  55.671 -49.569  1.00  0.00     0.015 A 
HETATM   19  C   UNL     1     -41.888  57.538 -51.023  1.00  0.00     0.050 C 
HETATM   20  C   UNL     1     -40.693  54.350 -49.332  1.00  0.00    -0.061 A 
HETATM   21  C   UNL     1     -40.298  53.897 -47.958  1.00  0.00     0.048 C 
HETATM   22  C   UNL     1     -40.735  53.439 -50.386  1.00  0.00     0.009 A 
HETATM   23  C   UNL     1     -41.147  53.844 -51.660  1.00  0.00     0.030 A 
ENDBRANCH  13  16
ENDBRANCH   1  12
BRANCH   2  24
HETATM   24  C   UNL     1     -42.465  58.519 -54.946  1.00  0.00    -0.025 A 
HETATM   25  C   UNL     1     -43.831  58.495 -54.603  1.00  0.00     0.046 A 
HETATM   26  C   UNL     1     -44.360  59.424 -53.703  1.00  0.00     0.068 A 
HETATM   27  C   UNL     1     -43.518  60.382 -53.137  1.00  0.00     0.037 A 
HETATM   28  C   UNL     1     -42.163  60.419 -53.461  1.00  0.00     0.003 A 
HETATM   29  C   UNL     1     -41.637  59.492 -54.359  1.00  0.00     0.010 A 
BRANCH  26  30
HETATM   30  O   UNL     1     -45.664  59.501 -53.299  1.00  0.00    -0.356 OA
HETATM   31  C   UNL     1     -46.081  60.720 -52.697  1.00  0.00     0.210 C 
ENDBRANCH  26  30
ENDBRANCH   2  24
TORSDOF 4
ENDMDL
MODEL 9
REMARK VINA RESULT:      -8.3      2.118      5.755
REMARK  4 active torsions:
REMARK  status: ('A' for Active; 'I' for Inactive)
REMARK    1  A    between atoms: C_6  and  N_7 
REMARK       I    between atoms: N_7  and  C_8 
REMARK    2  A    between atoms: C_8  and  C_9 
REMARK    3  A    between atoms: C_10  and  C_11 
REMARK    4  A    between atoms: C_13  and  O_14 
ROOT
HETATM    1  C   UNL     1     -43.382  58.116 -52.995  1.00  0.00     0.062 C 
HETATM    2  C   UNL     1     -41.977  57.631 -52.660  1.00  0.00     0.202 C 
HETATM    3  N   UNL     1     -41.328  58.546 -51.713  1.00  0.00    -0.084 N 
HETATM    4  C   UNL     1     -41.982  59.546 -51.043  1.00  0.00     0.725 A 
HETATM    5  N   UNL     1     -43.293  59.749 -51.276  1.00  0.00    -0.192 N 
HETATM    6  N   UNL     1     -40.002  58.572 -51.459  1.00  0.00    -0.149 NA
HETATM    7  C   UNL     1     -39.946  59.553 -50.550  1.00  0.00     0.275 A 
HETATM    8  N   UNL     1     -41.135  60.181 -50.274  1.00  0.00    -0.054 NA
HETATM    9  C   UNL     1     -43.990  59.103 -52.290  1.00  0.00     0.037 C 
HETATM   10  C   UNL     1     -45.408  59.564 -52.517  1.00  0.00     0.070 C 
HETATM   11  H   UNL     1     -43.756  60.518 -50.798  1.00  0.00     0.184 HD
ENDROOT
BRANCH   1  12
HETATM   12  C   UNL     1     -44.002  57.468 -54.178  1.00  0.00     0.256 C 
HETATM   13  N   UNL     1     -43.347  57.790 -55.350  1.00  0.00    -0.323 N 
HETATM   14  H   UNL     1     -42.575  58.437 -55.273  1.00  0.00     0.169 HD
HETATM   15  O   UNL     1     -44.950  56.713 -54.029  1.00  0.00    -0.267 OA
BRANCH  13  16
HETATM   16  C   UNL     1     -43.613  57.297 -56.651  1.00  0.00     0.041 A 
HETATM   17  C   UNL     1     -43.048  56.064 -57.042  1.00  0.00    -0.035 A 
HETATM   18  C   UNL     1     -43.335  55.544 -58.320  1.00  0.00     0.015 A 
HETATM   19  C   UNL     1     -42.146  55.266 -56.139  1.00  0.00     0.050 C 
HETATM   20  C   UNL     1     -44.154  56.235 -59.218  1.00  0.00    -0.061 A 
HETATM   21  C   UNL     1     -44.490  55.653 -60.559  1.00  0.00     0.048 C 
HETATM   22  C   UNL     1     -44.706  57.451 -58.823  1.00  0.00     0.009 A 
HETATM   23  C   UNL     1     -44.434  57.978 -57.556  1.00  0.00     0.030 A 
ENDBRANCH  13  16
ENDBRANCH   1  12
BRANCH   2  24
HETATM   24  C   UNL     1     -41.930  56.209 -52.110  1.00  0.00    -0.025 A 
HETATM   25  C   UNL     1     -41.077  55.258 -52.705  1.00  0.00     0.046 A 
HETATM   26  C   UNL     1     -41.024  53.946 -52.228  1.00  0.00     0.068 A 
HETATM   27  C   UNL     1     -41.825  53.580 -51.145  1.00  0.00     0.037 A 
HETATM   28  C   UNL     1     -42.672  54.508 -50.541  1.00  0.00     0.003 A 
HETATM   29  C   UNL     1     -42.724  55.816 -51.019  1.00  0.00     0.010 A 
BRANCH  26  30
HETATM   30  O   UNL     1     -40.241  52.940 -52.723  1.00  0.00    -0.356 OA
HETATM   31  C   UNL     1     -40.289  52.718 -54.127  1.00  0.00     0.210 C 
ENDBRANCH  26  30
ENDBRANCH   2  24
TORSDOF 4
ENDMDL
MODEL 10
REMARK VINA RESULT:      -8.3     16.399     19.010
REMARK  4 active torsions:
REMARK  status: ('A' for Active; 'I' for Inactive)
REMARK    1  A    between atoms: C_6  and  N_7 
REMARK       I    between atoms: N_7  and  C_8 
REMARK    2  A    between atoms: C_8  and  C_9 
REMARK    3  A    between atoms: C_10  and  C_11 
REMARK    4  A    between atoms: C_13  and  O_14 
ROOT
HETATM    1  C   UNL     1     -34.591  40.469 -51.680  1.00  0.00     0.062 C 
HETATM    2  C   UNL     1     -33.076  40.381 -51.546  1.00  0.00     0.202 C 
HETATM    3  N   UNL     1     -32.705  39.852 -50.229  1.00  0.00    -0.084 N 
HETATM    4  C   UNL     1     -33.594  39.289 -49.350  1.00  0.00     0.725 A 
HETATM    5  N   UNL     1     -34.900  39.240 -49.674  1.00  0.00    -0.192 N 
HETATM    6  N   UNL     1     -31.471  39.937 -49.688  1.00  0.00    -0.149 NA
HETATM    7  C   UNL     1     -31.671  39.317 -48.520  1.00  0.00     0.275 A 
HETATM    8  N   UNL     1     -32.959  38.913 -48.270  1.00  0.00    -0.054 NA
HETATM    9  C   UNL     1     -35.428  39.882 -50.789  1.00  0.00     0.037 C 
HETATM   10  C   UNL     1     -36.930  39.860 -50.916  1.00  0.00     0.070 C 
HETATM   11  H   UNL     1     -35.553  38.853 -48.997  1.00  0.00     0.184 HD
ENDROOT
BRANCH   1  12
HETATM   12  C   UNL     1     -35.072  41.289 -52.821  1.00  0.00     0.256 C 
HETATM   13  N   UNL     1     -35.175  40.552 -53.984  1.00  0.00    -0.323 N 
HETATM   14  H   UNL     1     -34.884  39.585 -53.933  1.00  0.00     0.169 HD
HETATM   15  O   UNL     1     -35.365  42.462 -52.646  1.00  0.00    -0.267 OA
BRANCH  13  16
HETATM   16  C   UNL     1     -35.669  40.984 -55.240  1.00  0.00     0.041 A 
HETATM   17  C   UNL     1     -37.059  41.165 -55.399  1.00  0.00    -0.035 A 
HETATM   18  C   UNL     1     -37.560  41.630 -56.632  1.00  0.00     0.015 A 
HETATM   19  C   UNL     1     -38.043  40.888 -54.295  1.00  0.00     0.050 C 
HETATM   20  C   UNL     1     -36.708  41.898 -57.708  1.00  0.00    -0.061 A 
HETATM   21  C   UNL     1     -37.245  42.435 -59.001  1.00  0.00     0.048 C 
HETATM   22  C   UNL     1     -35.337  41.714 -57.540  1.00  0.00     0.009 A 
HETATM   23  C   UNL     1     -34.825  41.257 -56.322  1.00  0.00     0.030 A 
ENDBRANCH  13  16
ENDBRANCH   1  12
BRANCH   2  24
HETATM   24  C   UNL     1     -32.408  39.550 -52.638  1.00  0.00    -0.025 A 
HETATM   25  C   UNL     1     -31.931  40.181 -53.804  1.00  0.00     0.046 A 
HETATM   26  C   UNL     1     -31.325  39.442 -54.822  1.00  0.00     0.068 A 
HETATM   27  C   UNL     1     -31.190  38.061 -54.676  1.00  0.00     0.037 A 
HETATM   28  C   UNL     1     -31.652  37.419 -53.528  1.00  0.00     0.003 A 
HETATM   29  C   UNL     1     -32.256  38.158 -52.513  1.00  0.00     0.010 A 
BRANCH  26  30
HETATM   30  O   UNL     1     -30.829  39.942 -55.995  1.00  0.00    -0.356 OA
HETATM   31  C   UNL     1     -29.903  39.126 -56.701  1.00  0.00     0.210 C 
ENDBRANCH  26  30
ENDBRANCH   2  24
TORSDOF 4
ENDMDL
