MODEL 1
REMARK VINA RESULT:      -7.5      0.000      0.000
REMARK  8 active torsions:
REMARK  status: ('A' for Active; 'I' for Inactive)
REMARK    1  A    between atoms: C_2  and  S_3 
REMARK    2  A    between atoms: S_3  and  C_4 
REMARK    3  A    between atoms: C_7  and  N_8 
REMARK    4  A    between atoms: N_8  and  C_9 
REMARK    5  A    between atoms: C_9  and  N_10 
REMARK       I    between atoms: N_10  and  C_11 
REMARK    6  A    between atoms: C_11  and  C_12 
REMARK    7  A    between atoms: C_21  and  C_22 
REMARK       I    between atoms: C_22  and  N_23 
REMARK    8  A    between atoms: C_25  and  C_26 
REMARK       I    between atoms: C_26  and  N_27 
ROOT
HETATM    1  C   UNL     1     -40.976  53.217 -53.027  1.00  0.00     0.088 A 
HETATM    2  N   UNL     1     -41.952  53.672 -53.857  1.00  0.00    -0.335 N 
HETATM    3  H   UNL     1     -41.950  53.547 -54.860  1.00  0.00     0.168 HD
HETATM    4  C   UNL     1     -42.901  54.355 -53.155  1.00  0.00     0.125 A 
HETATM    5  C   UNL     1     -42.552  54.279 -51.805  1.00  0.00     0.094 A 
HETATM    6  C   UNL     1     -41.280  53.569 -51.720  1.00  0.00     0.084 A 
ENDROOT
BRANCH   4   7
HETATM    7  N   UNL     1     -43.985  54.990 -53.745  1.00  0.00    -0.318 N 
HETATM    8  H   UNL     1     -44.835  54.430 -53.846  1.00  0.00     0.170 HD
BRANCH   7   9
HETATM    9  C   UNL     1     -44.111  56.307 -54.131  1.00  0.00     0.180 C 
HETATM   10  S   UNL     1     -44.451  57.655 -53.196  1.00  0.00    -0.040 SA
BRANCH   9  11
HETATM   11  N   UNL     1     -43.933  56.536 -55.486  1.00  0.00    -0.299 N 
HETATM   12  C   UNL     1     -42.797  56.328 -56.256  1.00  0.00     0.259 C 
HETATM   13  O   UNL     1     -41.726  55.936 -55.806  1.00  0.00    -0.267 OA
HETATM   14  H   UNL     1     -44.763  56.895 -55.942  1.00  0.00     0.171 HD
BRANCH  12  15
HETATM   15  C   UNL     1     -42.950  56.654 -57.692  1.00  0.00     0.054 A 
HETATM   16  C   UNL     1     -42.686  57.940 -58.179  1.00  0.00     0.049 A 
HETATM   17 CL   UNL     1     -42.100  59.218 -57.179  1.00  0.00    -0.083 Cl
HETATM   18  C   UNL     1     -42.848  58.208 -59.542  1.00  0.00     0.025 A 
HETATM   19  C   UNL     1     -43.272  57.202 -60.414  1.00  0.00     0.002 A 
HETATM   20  C   UNL     1     -43.539  55.923 -59.928  1.00  0.00     0.001 A 
HETATM   21  C   UNL     1     -43.383  55.647 -58.569  1.00  0.00     0.019 A 
ENDBRANCH  12  15
ENDBRANCH   9  11
ENDBRANCH   7   9
ENDBRANCH   4   7
BRANCH   5  22
HETATM   22  C   UNL     1     -43.325  54.857 -50.711  1.00  0.00     0.254 C 
HETATM   23  N   UNL     1     -42.882  56.055 -50.233  1.00  0.00    -0.366 N 
HETATM   24  H   UNL     1     -42.150  56.589 -50.679  1.00  0.00     0.159 HD
HETATM   25  H   UNL     1     -43.413  56.498 -49.496  1.00  0.00     0.159 HD
HETATM   26  O   UNL     1     -44.334  54.338 -50.244  1.00  0.00    -0.268 OA
ENDBRANCH   5  22
BRANCH   1  27
HETATM   27  S   UNL     1     -39.688  52.341 -53.789  1.00  0.00    -0.112 SA
BRANCH  27  28
HETATM   28  C   UNL     1     -40.571  50.841 -54.312  1.00  0.00     0.076 C 
HETATM   29  C   UNL     1     -39.619  49.658 -54.324  1.00  0.00     0.016 C 
ENDBRANCH  27  28
ENDBRANCH   1  27
BRANCH   6  30
HETATM   30  C   UNL     1     -40.452  53.218 -50.561  1.00  0.00     0.253 C 
HETATM   31  N   UNL     1     -39.806  54.224 -49.910  1.00  0.00    -0.366 N 
HETATM   32  H   UNL     1     -39.720  55.162 -50.292  1.00  0.00     0.159 HD
HETATM   33  H   UNL     1     -39.161  53.957 -49.181  1.00  0.00     0.159 HD
HETATM   34  O   UNL     1     -40.291  52.071 -50.153  1.00  0.00    -0.268 OA
ENDBRANCH   6  30
TORSDOF 8
ENDMDL
MODEL 2
REMARK VINA RESULT:      -7.4      3.242      7.937
REMARK  8 active torsions:
REMARK  status: ('A' for Active; 'I' for Inactive)
REMARK    1  A    between atoms: C_2  and  S_3 
REMARK    2  A    between atoms: S_3  and  C_4 
REMARK    3  A    between atoms: C_7  and  N_8 
REMARK    4  A    between atoms: N_8  and  C_9 
REMARK    5  A    between atoms: C_9  and  N_10 
REMARK       I    between atoms: N_10  and  C_11 
REMARK    6  A    between atoms: C_11  and  C_12 
REMARK    7  A    between atoms: C_21  and  C_22 
REMARK       I    between atoms: C_22  and  N_23 
REMARK    8  A    between atoms: C_25  and  C_26 
REMARK       I    between atoms: C_26  and  N_27 
ROOT
HETATM    1  C   UNL     1     -42.123  59.175 -57.910  1.00  0.00     0.088 A 
HETATM    2  N   UNL     1     -42.172  59.161 -56.552  1.00  0.00    -0.335 N 
HETATM    3  H   UNL     1     -42.012  59.972 -55.969  1.00  0.00     0.168 HD
HETATM    4  C   UNL     1     -42.419  57.902 -56.091  1.00  0.00     0.125 A 
HETATM    5  C   UNL     1     -42.601  57.081 -57.205  1.00  0.00     0.094 A 
HETATM    6  C   UNL     1     -42.374  57.899 -58.393  1.00  0.00     0.084 A 
ENDROOT
BRANCH   4   7
HETATM    7  N   UNL     1     -42.459  57.570 -54.744  1.00  0.00    -0.318 N 
HETATM    8  H   UNL     1     -43.381  57.334 -54.365  1.00  0.00     0.170 HD
BRANCH   7   9
HETATM    9  C   UNL     1     -41.415  57.419 -53.857  1.00  0.00     0.180 C 
HETATM   10  S   UNL     1     -40.576  58.590 -53.003  1.00  0.00    -0.040 SA
BRANCH   9  11
HETATM   11  N   UNL     1     -41.008  56.110 -53.654  1.00  0.00    -0.299 N 
HETATM   12  C   UNL     1     -41.698  55.076 -53.035  1.00  0.00     0.259 C 
HETATM   13  O   UNL     1     -42.802  55.202 -52.517  1.00  0.00    -0.267 OA
HETATM   14  H   UNL     1     -40.086  55.917 -54.025  1.00  0.00     0.171 HD
BRANCH  12  15
HETATM   15  C   UNL     1     -40.983  53.780 -53.006  1.00  0.00     0.054 A 
HETATM   16  C   UNL     1     -40.277  53.364 -51.872  1.00  0.00     0.049 A 
HETATM   17 CL   UNL     1     -40.237  54.275 -50.407  1.00  0.00    -0.083 Cl
HETATM   18  C   UNL     1     -39.610  52.134 -51.887  1.00  0.00     0.025 A 
HETATM   19  C   UNL     1     -39.646  51.326 -53.026  1.00  0.00     0.002 A 
HETATM   20  C   UNL     1     -40.344  51.743 -54.157  1.00  0.00     0.001 A 
HETATM   21  C   UNL     1     -41.011  52.969 -54.153  1.00  0.00     0.019 A 
ENDBRANCH  12  15
ENDBRANCH   9  11
ENDBRANCH   7   9
ENDBRANCH   4   7
BRANCH   5  22
HETATM   22  C   UNL     1     -42.917  55.658 -57.150  1.00  0.00     0.254 C 
HETATM   23  N   UNL     1     -43.818  55.210 -58.071  1.00  0.00    -0.366 N 
HETATM   24  H   UNL     1     -44.157  55.780 -58.834  1.00  0.00     0.159 HD
HETATM   25  H   UNL     1     -44.037  54.223 -58.081  1.00  0.00     0.159 HD
HETATM   26  O   UNL     1     -42.401  54.878 -56.357  1.00  0.00    -0.268 OA
ENDBRANCH   5  22
BRANCH   1  27
HETATM   27  S   UNL     1     -41.797  60.716 -58.637  1.00  0.00    -0.112 SA
BRANCH  27  28
HETATM   28  C   UNL     1     -43.369  61.014 -59.499  1.00  0.00     0.076 C 
HETATM   29  C   UNL     1     -44.508  61.067 -58.496  1.00  0.00     0.016 C 
ENDBRANCH  27  28
ENDBRANCH   1  27
BRANCH   6  30
HETATM   30  C   UNL     1     -42.420  57.555 -59.818  1.00  0.00     0.253 C 
HETATM   31  N   UNL     1     -41.239  57.340 -60.462  1.00  0.00    -0.366 N 
HETATM   32  H   UNL     1     -40.339  57.585 -60.058  1.00  0.00     0.159 HD
HETATM   33  H   UNL     1     -41.282  57.206 -61.461  1.00  0.00     0.159 HD
HETATM   34  O   UNL     1     -43.456  57.468 -60.471  1.00  0.00    -0.268 OA
ENDBRANCH   6  30
TORSDOF 8
ENDMDL
MODEL 3
REMARK VINA RESULT:      -7.3      3.090      7.603
REMARK  8 active torsions:
REMARK  status: ('A' for Active; 'I' for Inactive)
REMARK    1  A    between atoms: C_2  and  S_3 
REMARK    2  A    between atoms: S_3  and  C_4 
REMARK    3  A    between atoms: C_7  and  N_8 
REMARK    4  A    between atoms: N_8  and  C_9 
REMARK    5  A    between atoms: C_9  and  N_10 
REMARK       I    between atoms: N_10  and  C_11 
REMARK    6  A    between atoms: C_11  and  C_12 
REMARK    7  A    between atoms: C_21  and  C_22 
REMARK       I    between atoms: C_22  and  N_23 
REMARK    8  A    between atoms: C_25  and  C_26 
REMARK       I    between atoms: C_26  and  N_27 
ROOT
HETATM    1  C   UNL     1     -44.112  57.775 -57.956  1.00  0.00     0.088 A 
HETATM    2  N   UNL     1     -44.096  58.243 -56.680  1.00  0.00    -0.335 N 
HETATM    3  H   UNL     1     -44.419  59.161 -56.407  1.00  0.00     0.168 HD
HETATM    4  C   UNL     1     -43.543  57.324 -55.837  1.00  0.00     0.125 A 
HETATM    5  C   UNL     1     -43.251  56.189 -56.596  1.00  0.00     0.094 A 
HETATM    6  C   UNL     1     -43.587  56.491 -57.983  1.00  0.00     0.084 A 
ENDROOT
BRANCH   4   7
HETATM    7  N   UNL     1     -43.335  57.550 -54.484  1.00  0.00    -0.318 N 
HETATM    8  H   UNL     1     -44.158  57.469 -53.881  1.00  0.00     0.170 HD
BRANCH   7   9
HETATM    9  C   UNL     1     -42.151  57.777 -53.817  1.00  0.00     0.180 C 
HETATM   10  S   UNL     1     -41.289  59.203 -53.646  1.00  0.00    -0.040 SA
BRANCH   9  11
HETATM   11  N   UNL     1     -41.603  56.660 -53.206  1.00  0.00    -0.299 N 
HETATM   12  C   UNL     1     -42.257  55.614 -52.568  1.00  0.00     0.259 C 
HETATM   13  O   UNL     1     -43.472  55.561 -52.410  1.00  0.00    -0.267 OA
HETATM   14  H   UNL     1     -40.592  56.632 -53.259  1.00  0.00     0.171 HD
BRANCH  12  15
HETATM   15  C   UNL     1     -41.370  54.553 -52.041  1.00  0.00     0.054 A 
HETATM   16  C   UNL     1     -40.888  54.594 -50.727  1.00  0.00     0.049 A 
HETATM   17 CL   UNL     1     -41.335  55.824 -49.603  1.00  0.00    -0.083 Cl
HETATM   18  C   UNL     1     -40.047  53.574 -50.269  1.00  0.00     0.025 A 
HETATM   19  C   UNL     1     -39.688  52.522 -51.116  1.00  0.00     0.002 A 
HETATM   20  C   UNL     1     -40.163  52.485 -52.425  1.00  0.00     0.001 A 
HETATM   21  C   UNL     1     -41.001  53.500 -52.892  1.00  0.00     0.019 A 
ENDBRANCH  12  15
ENDBRANCH   9  11
ENDBRANCH   7   9
ENDBRANCH   4   7
BRANCH   5  22
HETATM   22  C   UNL     1     -42.675  54.958 -56.066  1.00  0.00     0.254 C 
HETATM   23  N   UNL     1     -43.557  53.957 -55.786  1.00  0.00    -0.366 N 
HETATM   24  H   UNL     1     -44.533  53.994 -56.045  1.00  0.00     0.159 HD
HETATM   25  H   UNL     1     -43.188  53.079 -55.447  1.00  0.00     0.159 HD
HETATM   26  O   UNL     1     -41.472  54.790 -55.898  1.00  0.00    -0.268 OA
ENDBRANCH   5  22
BRANCH   1  27
HETATM   27  S   UNL     1     -44.775  58.851 -59.145  1.00  0.00    -0.112 SA
BRANCH  27  28
HETATM   28  C   UNL     1     -46.549  58.513 -58.945  1.00  0.00     0.076 C 
HETATM   29  C   UNL     1     -46.892  57.168 -59.561  1.00  0.00     0.016 C 
ENDBRANCH  27  28
ENDBRANCH   1  27
BRANCH   6  30
HETATM   30  C   UNL     1     -43.475  55.676 -59.198  1.00  0.00     0.253 C 
HETATM   31  N   UNL     1     -44.323  54.619 -59.338  1.00  0.00    -0.366 N 
HETATM   32  H   UNL     1     -44.889  54.263 -58.573  1.00  0.00     0.159 HD
HETATM   33  H   UNL     1     -44.166  54.009 -60.126  1.00  0.00     0.159 HD
HETATM   34  O   UNL     1     -42.653  55.876 -60.088  1.00  0.00    -0.268 OA
ENDBRANCH   6  30
TORSDOF 8
ENDMDL
MODEL 4
REMARK VINA RESULT:      -7.3      3.354      7.561
REMARK  8 active torsions:
REMARK  status: ('A' for Active; 'I' for Inactive)
REMARK    1  A    between atoms: C_2  and  S_3 
REMARK    2  A    between atoms: S_3  and  C_4 
REMARK    3  A    between atoms: C_7  and  N_8 
REMARK    4  A    between atoms: N_8  and  C_9 
REMARK    5  A    between atoms: C_9  and  N_10 
REMARK       I    between atoms: N_10  and  C_11 
REMARK    6  A    between atoms: C_11  and  C_12 
REMARK    7  A    between atoms: C_21  and  C_22 
REMARK       I    between atoms: C_22  and  N_23 
REMARK    8  A    between atoms: C_25  and  C_26 
REMARK       I    between atoms: C_26  and  N_27 
ROOT
HETATM    1  C   UNL     1     -44.921  59.269 -54.151  1.00  0.00     0.088 A 
HETATM    2  N   UNL     1     -44.415  58.911 -52.942  1.00  0.00    -0.335 N 
HETATM    3  H   UNL     1     -44.393  59.516 -52.133  1.00  0.00     0.168 HD
HETATM    4  C   UNL     1     -43.903  57.647 -52.989  1.00  0.00     0.125 A 
HETATM    5  C   UNL     1     -44.150  57.148 -54.269  1.00  0.00     0.094 A 
HETATM    6  C   UNL     1     -44.781  58.214 -55.041  1.00  0.00     0.084 A 
ENDROOT
BRANCH   4   7
HETATM    7  N   UNL     1     -43.261  57.038 -51.921  1.00  0.00    -0.318 N 
HETATM    8  H   UNL     1     -43.862  56.542 -51.256  1.00  0.00     0.170 HD
BRANCH   7   9
HETATM    9  C   UNL     1     -41.910  56.922 -51.674  1.00  0.00     0.180 C 
HETATM   10  S   UNL     1     -40.855  58.045 -51.017  1.00  0.00    -0.040 SA
BRANCH   9  11
HETATM   11  N   UNL     1     -41.356  55.702 -52.026  1.00  0.00    -0.299 N 
HETATM   12  C   UNL     1     -41.954  54.448 -52.028  1.00  0.00     0.259 C 
HETATM   13  O   UNL     1     -43.102  54.236 -51.653  1.00  0.00    -0.267 OA
HETATM   14  H   UNL     1     -40.390  55.773 -52.323  1.00  0.00     0.171 HD
BRANCH  12  15
HETATM   15  C   UNL     1     -41.083  53.343 -52.489  1.00  0.00     0.054 A 
HETATM   16  C   UNL     1     -40.225  52.676 -51.607  1.00  0.00     0.049 A 
HETATM   17 CL   UNL     1     -40.159  53.028 -49.919  1.00  0.00    -0.083 Cl
HETATM   18  C   UNL     1     -39.415  51.641 -52.084  1.00  0.00     0.025 A 
HETATM   19  C   UNL     1     -39.458  51.274 -53.431  1.00  0.00     0.002 A 
HETATM   20  C   UNL     1     -40.308  51.942 -54.310  1.00  0.00     0.001 A 
HETATM   21  C   UNL     1     -41.119  52.978 -53.844  1.00  0.00     0.019 A 
ENDBRANCH  12  15
ENDBRANCH   9  11
ENDBRANCH   7   9
ENDBRANCH   4   7
BRANCH   5  22
HETATM   22  C   UNL     1     -43.789  55.811 -54.726  1.00  0.00     0.254 C 
HETATM   23  N   UNL     1     -44.593  54.795 -54.300  1.00  0.00    -0.366 N 
HETATM   24  H   UNL     1     -45.462  54.950 -53.809  1.00  0.00     0.159 HD
HETATM   25  H   UNL     1     -44.389  53.860 -54.624  1.00  0.00     0.159 HD
HETATM   26  O   UNL     1     -42.843  55.582 -55.473  1.00  0.00    -0.268 OA
ENDBRANCH   5  22
BRANCH   1  27
HETATM   27  S   UNL     1     -45.593  60.866 -54.244  1.00  0.00    -0.112 SA
BRANCH  27  28
HETATM   28  C   UNL     1     -44.073  61.860 -54.318  1.00  0.00     0.076 C 
HETATM   29  C   UNL     1     -43.302  61.532 -55.585  1.00  0.00     0.016 C 
ENDBRANCH  27  28
ENDBRANCH   1  27
BRANCH   6  30
HETATM   30  C   UNL     1     -45.243  58.247 -56.433  1.00  0.00     0.253 C 
HETATM   31  N   UNL     1     -46.539  57.912 -56.685  1.00  0.00    -0.366 N 
HETATM   32  H   UNL     1     -47.136  57.467 -55.993  1.00  0.00     0.159 HD
HETATM   33  H   UNL     1     -46.812  57.840 -57.653  1.00  0.00     0.159 HD
HETATM   34  O   UNL     1     -44.528  58.542 -57.388  1.00  0.00    -0.268 OA
ENDBRANCH   6  30
TORSDOF 8
ENDMDL
MODEL 5
REMARK VINA RESULT:      -7.3      3.439      6.943
REMARK  8 active torsions:
REMARK  status: ('A' for Active; 'I' for Inactive)
REMARK    1  A    between atoms: C_2  and  S_3 
REMARK    2  A    between atoms: S_3  and  C_4 
REMARK    3  A    between atoms: C_7  and  N_8 
REMARK    4  A    between atoms: N_8  and  C_9 
REMARK    5  A    between atoms: C_9  and  N_10 
REMARK       I    between atoms: N_10  and  C_11 
REMARK    6  A    between atoms: C_11  and  C_12 
REMARK    7  A    between atoms: C_21  and  C_22 
REMARK       I    between atoms: C_22  and  N_23 
REMARK    8  A    between atoms: C_25  and  C_26 
REMARK       I    between atoms: C_26  and  N_27 
ROOT
HETATM    1  C   UNL     1     -45.118  59.400 -53.061  1.00  0.00     0.088 A 
HETATM    2  N   UNL     1     -44.927  58.399 -53.960  1.00  0.00    -0.335 N 
HETATM    3  H   UNL     1     -45.087  58.489 -54.954  1.00  0.00     0.168 HD
HETATM    4  C   UNL     1     -44.537  57.254 -53.330  1.00  0.00     0.125 A 
HETATM    5  C   UNL     1     -44.409  57.551 -51.972  1.00  0.00     0.094 A 
HETATM    6  C   UNL     1     -44.821  58.938 -51.787  1.00  0.00     0.084 A 
ENDROOT
BRANCH   4   7
HETATM    7  N   UNL     1     -44.330  56.048 -53.986  1.00  0.00    -0.318 N 
HETATM    8  H   UNL     1     -45.055  55.336 -53.860  1.00  0.00     0.170 HD
BRANCH   7   9
HETATM    9  C   UNL     1     -43.328  55.702 -54.867  1.00  0.00     0.180 C 
HETATM   10  S   UNL     1     -42.974  56.346 -56.371  1.00  0.00    -0.040 SA
BRANCH   9  11
HETATM   11  N   UNL     1     -42.505  54.673 -54.436  1.00  0.00    -0.299 N 
HETATM   12  C   UNL     1     -41.473  54.721 -53.508  1.00  0.00     0.259 C 
HETATM   13  O   UNL     1     -41.102  55.747 -52.949  1.00  0.00    -0.267 OA
HETATM   14  H   UNL     1     -42.719  53.784 -54.872  1.00  0.00     0.171 HD
BRANCH  12  15
HETATM   15  C   UNL     1     -40.803  53.426 -53.255  1.00  0.00     0.054 A 
HETATM   16  C   UNL     1     -40.349  53.079 -51.977  1.00  0.00     0.049 A 
HETATM   17 CL   UNL     1     -40.589  54.082 -50.593  1.00  0.00    -0.083 Cl
HETATM   18  C   UNL     1     -39.716  51.848 -51.780  1.00  0.00     0.025 A 
HETATM   19  C   UNL     1     -39.536  50.968 -52.850  1.00  0.00     0.002 A 
HETATM   20  C   UNL     1     -39.983  51.315 -54.123  1.00  0.00     0.001 A 
HETATM   21  C   UNL     1     -40.613  52.543 -54.330  1.00  0.00     0.019 A 
ENDBRANCH  12  15
ENDBRANCH   9  11
ENDBRANCH   7   9
ENDBRANCH   4   7
BRANCH   5  22
HETATM   22  C   UNL     1     -43.979  56.604 -50.949  1.00  0.00     0.254 C 
HETATM   23  N   UNL     1     -42.706  56.762 -50.486  1.00  0.00    -0.366 N 
HETATM   24  H   UNL     1     -42.127  57.555 -50.724  1.00  0.00     0.159 HD
HETATM   25  H   UNL     1     -42.386  56.143 -49.754  1.00  0.00     0.159 HD
HETATM   26  O   UNL     1     -44.702  55.727 -50.490  1.00  0.00    -0.268 OA
ENDBRANCH   5  22
BRANCH   1  27
HETATM   27  S   UNL     1     -45.636  60.918 -53.722  1.00  0.00    -0.112 SA
BRANCH  27  28
HETATM   28  C   UNL     1     -44.112  61.455 -54.552  1.00  0.00     0.076 C 
HETATM   29  C   UNL     1     -43.012  61.670 -53.527  1.00  0.00     0.016 C 
ENDBRANCH  27  28
ENDBRANCH   1  27
BRANCH   6  30
HETATM   30  C   UNL     1     -44.897  59.764 -50.576  1.00  0.00     0.253 C 
HETATM   31  N   UNL     1     -43.740  60.296 -50.092  1.00  0.00    -0.366 N 
HETATM   32  H   UNL     1     -42.822  60.000 -50.414  1.00  0.00     0.159 HD
HETATM   33  H   UNL     1     -43.793  60.773 -49.206  1.00  0.00     0.159 HD
HETATM   34  O   UNL     1     -45.935  59.990 -49.962  1.00  0.00    -0.268 OA
ENDBRANCH   6  30
TORSDOF 8
ENDMDL
MODEL 6
REMARK VINA RESULT:      -7.1      3.012      7.017
REMARK  8 active torsions:
REMARK  status: ('A' for Active; 'I' for Inactive)
REMARK    1  A    between atoms: C_2  and  S_3 
REMARK    2  A    between atoms: S_3  and  C_4 
REMARK    3  A    between atoms: C_7  and  N_8 
REMARK    4  A    between atoms: N_8  and  C_9 
REMARK    5  A    between atoms: C_9  and  N_10 
REMARK       I    between atoms: N_10  and  C_11 
REMARK    6  A    between atoms: C_11  and  C_12 
REMARK    7  A    between atoms: C_21  and  C_22 
REMARK       I    between atoms: C_22  and  N_23 
REMARK    8  A    between atoms: C_25  and  C_26 
REMARK       I    between atoms: C_26  and  N_27 
ROOT
HETATM    1  C   UNL     1     -43.212  56.728 -57.297  1.00  0.00     0.088 A 
HETATM    2  N   UNL     1     -43.561  55.867 -56.304  1.00  0.00    -0.335 N 
HETATM    3  H   UNL     1     -43.778  54.890 -56.449  1.00  0.00     0.168 HD
HETATM    4  C   UNL     1     -43.621  56.513 -55.105  1.00  0.00     0.125 A 
HETATM    5  C   UNL     1     -43.230  57.835 -55.327  1.00  0.00     0.094 A 
HETATM    6  C   UNL     1     -42.997  57.988 -56.759  1.00  0.00     0.084 A 
ENDROOT
BRANCH   4   7
HETATM    7  N   UNL     1     -44.015  55.904 -53.922  1.00  0.00    -0.318 N 
HETATM    8  H   UNL     1     -44.969  55.534 -53.901  1.00  0.00     0.170 HD
BRANCH   7   9
HETATM    9  C   UNL     1     -43.268  55.639 -52.794  1.00  0.00     0.180 C 
HETATM   10  S   UNL     1     -43.169  56.504 -51.364  1.00  0.00    -0.040 SA
BRANCH   9  11
HETATM   11  N   UNL     1     -42.491  54.493 -52.867  1.00  0.00    -0.299 N 
HETATM   12  C   UNL     1     -41.233  54.335 -53.434  1.00  0.00     0.259 C 
HETATM   13  O   UNL     1     -40.628  55.226 -54.019  1.00  0.00    -0.267 OA
HETATM   14  H   UNL     1     -42.927  53.688 -52.433  1.00  0.00     0.171 HD
BRANCH  12  15
HETATM   15  C   UNL     1     -40.665  52.973 -53.317  1.00  0.00     0.054 A 
HETATM   16  C   UNL     1     -40.001  52.558 -52.157  1.00  0.00     0.049 A 
HETATM   17 CL   UNL     1     -39.851  53.555 -50.756  1.00  0.00    -0.083 Cl
HETATM   18  C   UNL     1     -39.473  51.265 -52.089  1.00  0.00     0.025 A 
HETATM   19  C   UNL     1     -39.605  50.391 -53.172  1.00  0.00     0.002 A 
HETATM   20  C   UNL     1     -40.261  50.806 -54.329  1.00  0.00     0.001 A 
HETATM   21  C   UNL     1     -40.789  52.096 -54.407  1.00  0.00     0.019 A 
ENDBRANCH  12  15
ENDBRANCH   9  11
ENDBRANCH   7   9
ENDBRANCH   4   7
BRANCH   5  22
HETATM   22  C   UNL     1     -43.127  58.859 -54.293  1.00  0.00     0.254 C 
HETATM   23  N   UNL     1     -41.862  59.192 -53.905  1.00  0.00    -0.366 N 
HETATM   24  H   UNL     1     -41.035  58.862 -54.382  1.00  0.00     0.159 HD
HETATM   25  H   UNL     1     -41.754  59.920 -53.213  1.00  0.00     0.159 HD
HETATM   26  O   UNL     1     -44.096  59.426 -53.801  1.00  0.00    -0.268 OA
ENDBRANCH   5  22
BRANCH   1  27
HETATM   27  S   UNL     1     -43.114  56.043 -58.887  1.00  0.00    -0.112 SA
BRANCH  27  28
HETATM   28  C   UNL     1     -44.787  56.397 -59.504  1.00  0.00     0.076 C 
HETATM   29  C   UNL     1     -45.325  55.194 -60.258  1.00  0.00     0.016 C 
ENDBRANCH  27  28
ENDBRANCH   1  27
BRANCH   6  30
HETATM   30  C   UNL     1     -42.583  59.156 -57.545  1.00  0.00     0.253 C 
HETATM   31  N   UNL     1     -43.487  59.697 -58.409  1.00  0.00    -0.366 N 
HETATM   32  H   UNL     1     -44.351  59.227 -58.668  1.00  0.00     0.159 HD
HETATM   33  H   UNL     1     -43.156  60.433 -59.015  1.00  0.00     0.159 HD
HETATM   34  O   UNL     1     -41.468  59.665 -57.486  1.00  0.00    -0.268 OA
ENDBRANCH   6  30
TORSDOF 8
ENDMDL
MODEL 7
REMARK VINA RESULT:      -7.0      3.541      7.548
REMARK  8 active torsions:
REMARK  status: ('A' for Active; 'I' for Inactive)
REMARK    1  A    between atoms: C_2  and  S_3 
REMARK    2  A    between atoms: S_3  and  C_4 
REMARK    3  A    between atoms: C_7  and  N_8 
REMARK    4  A    between atoms: N_8  and  C_9 
REMARK    5  A    between atoms: C_9  and  N_10 
REMARK       I    between atoms: N_10  and  C_11 
REMARK    6  A    between atoms: C_11  and  C_12 
REMARK    7  A    between atoms: C_21  and  C_22 
REMARK       I    between atoms: C_22  and  N_23 
REMARK    8  A    between atoms: C_25  and  C_26 
REMARK       I    between atoms: C_26  and  N_27 
ROOT
HETATM    1  C   UNL     1     -44.514  58.736 -52.813  1.00  0.00     0.088 A 
HETATM    2  N   UNL     1     -44.277  57.405 -52.954  1.00  0.00    -0.335 N 
HETATM    3  H   UNL     1     -43.891  56.816 -52.229  1.00  0.00     0.168 HD
HETATM    4  C   UNL     1     -44.590  56.991 -54.215  1.00  0.00     0.125 A 
HETATM    5  C   UNL     1     -45.111  58.093 -54.895  1.00  0.00     0.094 A 
HETATM    6  C   UNL     1     -45.031  59.240 -53.997  1.00  0.00     0.084 A 
ENDROOT
BRANCH   4   7
HETATM    7  N   UNL     1     -44.390  55.695 -54.671  1.00  0.00    -0.318 N 
HETATM    8  H   UNL     1     -45.169  55.045 -54.535  1.00  0.00     0.170 HD
BRANCH   7   9
HETATM    9  C   UNL     1     -43.322  55.178 -55.370  1.00  0.00     0.180 C 
HETATM   10  S   UNL     1     -42.897  55.408 -56.974  1.00  0.00    -0.040 SA
BRANCH   9  11
HETATM   11  N   UNL     1     -42.489  54.350 -54.634  1.00  0.00    -0.299 N 
HETATM   12  C   UNL     1     -41.607  54.693 -53.617  1.00  0.00     0.259 C 
HETATM   13  O   UNL     1     -41.402  55.843 -53.247  1.00  0.00    -0.267 OA
HETATM   14  H   UNL     1     -42.567  53.374 -54.893  1.00  0.00     0.171 HD
BRANCH  12  15
HETATM   15  C   UNL     1     -40.880  53.554 -53.014  1.00  0.00     0.054 A 
HETATM   16  C   UNL     1     -40.828  53.376 -51.626  1.00  0.00     0.049 A 
HETATM   17 CL   UNL     1     -41.654  54.409 -50.518  1.00  0.00    -0.083 Cl
HETATM   18  C   UNL     1     -40.125  52.289 -51.096  1.00  0.00     0.025 A 
HETATM   19  C   UNL     1     -39.476  51.387 -51.942  1.00  0.00     0.002 A 
HETATM   20  C   UNL     1     -39.523  51.567 -53.323  1.00  0.00     0.001 A 
HETATM   21  C   UNL     1     -40.220  52.650 -53.862  1.00  0.00     0.019 A 
ENDBRANCH  12  15
ENDBRANCH   9  11
ENDBRANCH   7   9
ENDBRANCH   4   7
BRANCH   5  22
HETATM   22  C   UNL     1     -45.598  58.070 -56.270  1.00  0.00     0.254 C 
HETATM   23  N   UNL     1     -46.890  57.666 -56.440  1.00  0.00    -0.366 N 
HETATM   24  H   UNL     1     -47.526  57.516 -55.670  1.00  0.00     0.159 HD
HETATM   25  H   UNL     1     -47.269  57.668 -57.377  1.00  0.00     0.159 HD
HETATM   26  O   UNL     1     -44.924  58.414 -57.235  1.00  0.00    -0.268 OA
ENDBRANCH   5  22
BRANCH   1  27
HETATM   27  S   UNL     1     -44.144  59.406 -51.256  1.00  0.00    -0.112 SA
BRANCH  27  28
HETATM   28  C   UNL     1     -42.521  60.152 -51.594  1.00  0.00     0.076 C 
HETATM   29  C   UNL     1     -41.718  60.247 -50.309  1.00  0.00     0.016 C 
ENDBRANCH  27  28
ENDBRANCH   1  27
BRANCH   6  30
HETATM   30  C   UNL     1     -45.422  60.641 -54.191  1.00  0.00     0.253 C 
HETATM   31  N   UNL     1     -46.566  61.073 -53.591  1.00  0.00    -0.366 N 
HETATM   32  H   UNL     1     -47.245  60.439 -53.180  1.00  0.00     0.159 HD
HETATM   33  H   UNL     1     -46.875  62.007 -53.816  1.00  0.00     0.159 HD
HETATM   34  O   UNL     1     -44.792  61.443 -54.876  1.00  0.00    -0.268 OA
ENDBRANCH   6  30
TORSDOF 8
ENDMDL
MODEL 8
REMARK VINA RESULT:      -6.8      4.262      7.671
REMARK  8 active torsions:
REMARK  status: ('A' for Active; 'I' for Inactive)
REMARK    1  A    between atoms: C_2  and  S_3 
REMARK    2  A    between atoms: S_3  and  C_4 
REMARK    3  A    between atoms: C_7  and  N_8 
REMARK    4  A    between atoms: N_8  and  C_9 
REMARK    5  A    between atoms: C_9  and  N_10 
REMARK       I    between atoms: N_10  and  C_11 
REMARK    6  A    between atoms: C_11  and  C_12 
REMARK    7  A    between atoms: C_21  and  C_22 
REMARK       I    between atoms: C_22  and  N_23 
REMARK    8  A    between atoms: C_25  and  C_26 
REMARK       I    between atoms: C_26  and  N_27 
ROOT
HETATM    1  C   UNL     1     -44.242  59.294 -51.034  1.00  0.00     0.088 A 
HETATM    2  N   UNL     1     -44.107  57.949 -51.168  1.00  0.00    -0.335 N 
HETATM    3  H   UNL     1     -44.771  57.273 -50.817  1.00  0.00     0.168 HD
HETATM    4  C   UNL     1     -42.936  57.642 -51.797  1.00  0.00     0.125 A 
HETATM    5  C   UNL     1     -42.322  58.848 -52.140  1.00  0.00     0.094 A 
HETATM    6  C   UNL     1     -43.151  59.927 -51.613  1.00  0.00     0.084 A 
ENDROOT
BRANCH   4   7
HETATM    7  N   UNL     1     -42.497  56.343 -52.015  1.00  0.00    -0.318 N 
HETATM    8  H   UNL     1     -41.996  55.901 -51.239  1.00  0.00     0.170 HD
BRANCH   7   9
HETATM    9  C   UNL     1     -42.724  55.524 -53.099  1.00  0.00     0.180 C 
HETATM   10  S   UNL     1     -43.678  55.794 -54.448  1.00  0.00    -0.040 SA
BRANCH   9  11
HETATM   11  N   UNL     1     -42.064  54.305 -53.055  1.00  0.00    -0.299 N 
HETATM   12  C   UNL     1     -40.837  53.965 -53.609  1.00  0.00     0.259 C 
HETATM   13  O   UNL     1     -40.156  54.726 -54.287  1.00  0.00    -0.267 OA
HETATM   14  H   UNL     1     -42.571  53.597 -52.537  1.00  0.00     0.171 HD
BRANCH  12  15
HETATM   15  C   UNL     1     -40.404  52.573 -53.354  1.00  0.00     0.054 A 
HETATM   16  C   UNL     1     -39.886  52.188 -52.111  1.00  0.00     0.049 A 
HETATM   17 CL   UNL     1     -39.776  53.265 -50.768  1.00  0.00    -0.083 Cl
HETATM   18  C   UNL     1     -39.483  50.863 -51.912  1.00  0.00     0.025 A 
HETATM   19  C   UNL     1     -39.593  49.929 -52.946  1.00  0.00     0.002 A 
HETATM   20  C   UNL     1     -40.103  50.314 -54.184  1.00  0.00     0.001 A 
HETATM   21  C   UNL     1     -40.506  51.634 -54.393  1.00  0.00     0.019 A 
ENDBRANCH  12  15
ENDBRANCH   9  11
ENDBRANCH   7   9
ENDBRANCH   4   7
BRANCH   5  22
HETATM   22  C   UNL     1     -41.058  58.965 -52.858  1.00  0.00     0.254 C 
HETATM   23  N   UNL     1     -41.118  58.784 -54.208  1.00  0.00    -0.366 N 
HETATM   24  H   UNL     1     -41.988  58.704 -54.715  1.00  0.00     0.159 HD
HETATM   25  H   UNL     1     -40.265  58.889 -54.740  1.00  0.00     0.159 HD
HETATM   26  O   UNL     1     -39.992  59.238 -52.316  1.00  0.00    -0.268 OA
ENDBRANCH   5  22
BRANCH   1  27
HETATM   27  S   UNL     1     -45.683  59.831 -50.232  1.00  0.00    -0.112 SA
BRANCH  27  28
HETATM   28  C   UNL     1     -46.615  60.502 -51.640  1.00  0.00     0.076 C 
HETATM   29  C   UNL     1     -46.712  62.013 -51.523  1.00  0.00     0.016 C 
ENDBRANCH  27  28
ENDBRANCH   1  27
BRANCH   6  30
HETATM   30  C   UNL     1     -42.982  61.383 -51.670  1.00  0.00     0.253 C 
HETATM   31  N   UNL     1     -42.662  62.034 -50.517  1.00  0.00    -0.366 N 
HETATM   32  H   UNL     1     -42.718  61.594 -49.602  1.00  0.00     0.159 HD
HETATM   33  H   UNL     1     -42.650  63.042 -50.550  1.00  0.00     0.159 HD
HETATM   34  O   UNL     1     -43.130  62.054 -52.687  1.00  0.00    -0.268 OA
ENDBRANCH   6  30
TORSDOF 8
ENDMDL
MODEL 9
REMARK VINA RESULT:      -6.7      3.369      6.968
REMARK  8 active torsions:
REMARK  status: ('A' for Active; 'I' for Inactive)
REMARK    1  A    between atoms: C_2  and  S_3 
REMARK    2  A    between atoms: S_3  and  C_4 
REMARK    3  A    between atoms: C_7  and  N_8 
REMARK    4  A    between atoms: N_8  and  C_9 
REMARK    5  A    between atoms: C_9  and  N_10 
REMARK       I    between atoms: N_10  and  C_11 
REMARK    6  A    between atoms: C_11  and  C_12 
REMARK    7  A    between atoms: C_21  and  C_22 
REMARK       I    between atoms: C_22  and  N_23 
REMARK    8  A    between atoms: C_25  and  C_26 
REMARK       I    between atoms: C_26  and  N_27 
ROOT
HETATM    1  C   UNL     1     -42.194  58.246 -54.685  1.00  0.00     0.088 A 
HETATM    2  N   UNL     1     -41.736  57.102 -54.111  1.00  0.00    -0.335 N 
HETATM    3  H   UNL     1     -41.518  56.257 -54.621  1.00  0.00     0.168 HD
HETATM    4  C   UNL     1     -41.657  57.242 -52.756  1.00  0.00     0.125 A 
HETATM    5  C   UNL     1     -42.019  58.556 -52.453  1.00  0.00     0.094 A 
HETATM    6  C   UNL     1     -42.404  59.203 -53.703  1.00  0.00     0.084 A 
ENDROOT
BRANCH   4   7
HETATM    7  N   UNL     1     -41.283  56.217 -51.899  1.00  0.00    -0.318 N 
HETATM    8  H   UNL     1     -40.395  56.344 -51.404  1.00  0.00     0.170 HD
BRANCH   7   9
HETATM    9  C   UNL     1     -41.986  55.087 -51.542  1.00  0.00     0.180 C 
HETATM   10  S   UNL     1     -43.388  54.956 -50.636  1.00  0.00    -0.040 SA
BRANCH   9  11
HETATM   11  N   UNL     1     -41.445  53.896 -52.001  1.00  0.00    -0.299 N 
HETATM   12  C   UNL     1     -40.275  53.265 -51.601  1.00  0.00     0.259 C 
HETATM   13  O   UNL     1     -39.497  53.726 -50.773  1.00  0.00    -0.267 OA
HETATM   14  H   UNL     1     -42.009  53.452 -52.717  1.00  0.00     0.171 HD
BRANCH  12  15
HETATM   15  C   UNL     1     -39.996  51.979 -52.280  1.00  0.00     0.054 A 
HETATM   16  C   UNL     1     -39.963  51.887 -53.676  1.00  0.00     0.049 A 
HETATM   17 CL   UNL     1     -40.169  53.252 -54.711  1.00  0.00    -0.083 Cl
HETATM   18  C   UNL     1     -39.702  50.652 -54.280  1.00  0.00     0.025 A 
HETATM   19  C   UNL     1     -39.476  49.517 -53.496  1.00  0.00     0.002 A 
HETATM   20  C   UNL     1     -39.514  49.609 -52.106  1.00  0.00     0.001 A 
HETATM   21  C   UNL     1     -39.777  50.836 -51.495  1.00  0.00     0.019 A 
ENDBRANCH  12  15
ENDBRANCH   9  11
ENDBRANCH   7   9
ENDBRANCH   4   7
BRANCH   5  22
HETATM   22  C   UNL     1     -42.037  59.127 -51.112  1.00  0.00     0.254 C 
HETATM   23  N   UNL     1     -43.257  59.524 -50.647  1.00  0.00    -0.366 N 
HETATM   24  H   UNL     1     -44.122  59.324 -51.130  1.00  0.00     0.159 HD
HETATM   25  H   UNL     1     -43.310  59.896 -49.709  1.00  0.00     0.159 HD
HETATM   26  O   UNL     1     -41.040  59.232 -50.405  1.00  0.00    -0.268 OA
ENDBRANCH   5  22
BRANCH   1  27
HETATM   27  S   UNL     1     -42.362  58.206 -56.411  1.00  0.00    -0.112 SA
BRANCH  27  28
HETATM   28  C   UNL     1     -43.575  56.865 -56.595  1.00  0.00     0.076 C 
HETATM   29  C   UNL     1     -42.883  55.605 -57.084  1.00  0.00     0.016 C 
ENDBRANCH  27  28
ENDBRANCH   1  27
BRANCH   6  30
HETATM   30  C   UNL     1     -42.877  60.565 -53.973  1.00  0.00     0.253 C 
HETATM   31  N   UNL     1     -42.285  61.258 -54.986  1.00  0.00    -0.366 N 
HETATM   32  H   UNL     1     -41.423  60.953 -55.431  1.00  0.00     0.159 HD
HETATM   33  H   UNL     1     -42.549  62.225 -55.092  1.00  0.00     0.159 HD
HETATM   34  O   UNL     1     -43.760  61.127 -53.331  1.00  0.00    -0.268 OA
ENDBRANCH   6  30
TORSDOF 8
ENDMDL
MODEL 10
REMARK VINA RESULT:      -6.7      3.281      7.778
REMARK  8 active torsions:
REMARK  status: ('A' for Active; 'I' for Inactive)
REMARK    1  A    between atoms: C_2  and  S_3 
REMARK    2  A    between atoms: S_3  and  C_4 
REMARK    3  A    between atoms: C_7  and  N_8 
REMARK    4  A    between atoms: N_8  and  C_9 
REMARK    5  A    between atoms: C_9  and  N_10 
REMARK       I    between atoms: N_10  and  C_11 
REMARK    6  A    between atoms: C_11  and  C_12 
REMARK    7  A    between atoms: C_21  and  C_22 
REMARK       I    between atoms: C_22  and  N_23 
REMARK    8  A    between atoms: C_25  and  C_26 
REMARK       I    between atoms: C_26  and  N_27 
ROOT
HETATM    1  C   UNL     1     -43.788  57.890 -57.876  1.00  0.00     0.088 A 
HETATM    2  N   UNL     1     -43.578  58.372 -56.623  1.00  0.00    -0.335 N 
HETATM    3  H   UNL     1     -43.748  59.329 -56.345  1.00  0.00     0.168 HD
HETATM    4  C   UNL     1     -43.064  57.401 -55.814  1.00  0.00     0.125 A 
HETATM    5  C   UNL     1     -43.004  56.226 -56.565  1.00  0.00     0.094 A 
HETATM    6  C   UNL     1     -43.441  56.548 -57.919  1.00  0.00     0.084 A 
ENDROOT
BRANCH   4   7
HETATM    7  N   UNL     1     -42.688  57.619 -54.496  1.00  0.00    -0.318 N 
HETATM    8  H   UNL     1     -41.777  58.064 -54.355  1.00  0.00     0.170 HD
BRANCH   7   9
HETATM    9  C   UNL     1     -43.411  57.406 -53.342  1.00  0.00     0.180 C 
HETATM   10  S   UNL     1     -44.895  58.037 -52.893  1.00  0.00    -0.040 SA
BRANCH   9  11
HETATM   11  N   UNL     1     -42.815  56.547 -52.432  1.00  0.00    -0.299 N 
HETATM   12  C   UNL     1     -41.483  56.163 -52.348  1.00  0.00     0.259 C 
HETATM   13  O   UNL     1     -40.617  56.516 -53.142  1.00  0.00    -0.267 OA
HETATM   14  H   UNL     1     -43.465  56.177 -51.749  1.00  0.00     0.171 HD
BRANCH  12  15
HETATM   15  C   UNL     1     -41.168  55.245 -51.231  1.00  0.00     0.054 A 
HETATM   16  C   UNL     1     -40.755  53.928 -51.466  1.00  0.00     0.049 A 
HETATM   17 CL   UNL     1     -40.511  53.291 -53.051  1.00  0.00    -0.083 Cl
HETATM   18  C   UNL     1     -40.473  53.090 -50.382  1.00  0.00     0.025 A 
HETATM   19  C   UNL     1     -40.602  53.561 -49.073  1.00  0.00     0.002 A 
HETATM   20  C   UNL     1     -41.019  54.870 -48.840  1.00  0.00     0.001 A 
HETATM   21  C   UNL     1     -41.305  55.713 -49.915  1.00  0.00     0.019 A 
ENDBRANCH  12  15
ENDBRANCH   9  11
ENDBRANCH   7   9
ENDBRANCH   4   7
BRANCH   5  22
HETATM   22  C   UNL     1     -42.540  54.938 -56.061  1.00  0.00     0.254 C 
HETATM   23  N   UNL     1     -43.499  53.983 -55.888  1.00  0.00    -0.366 N 
HETATM   24  H   UNL     1     -44.452  54.095 -56.206  1.00  0.00     0.159 HD
HETATM   25  H   UNL     1     -43.208  53.069 -55.569  1.00  0.00     0.159 HD
HETATM   26  O   UNL     1     -41.364  54.685 -55.824  1.00  0.00    -0.268 OA
ENDBRANCH   5  22
BRANCH   1  27
HETATM   27  S   UNL     1     -44.426  59.026 -59.022  1.00  0.00    -0.112 SA
BRANCH  27  28
HETATM   28  C   UNL     1     -46.046  58.277 -59.365  1.00  0.00     0.076 C 
HETATM   29  C   UNL     1     -46.804  58.067 -58.066  1.00  0.00     0.016 C 
ENDBRANCH  27  28
ENDBRANCH   1  27
BRANCH   6  30
HETATM   30  C   UNL     1     -43.564  55.706 -59.114  1.00  0.00     0.253 C 
HETATM   31  N   UNL     1     -44.611  54.837 -59.178  1.00  0.00    -0.366 N 
HETATM   32  H   UNL     1     -45.190  54.613 -58.374  1.00  0.00     0.159 HD
HETATM   33  H   UNL     1     -44.624  54.195 -59.956  1.00  0.00     0.159 HD
HETATM   34  O   UNL     1     -42.772  55.724 -60.053  1.00  0.00    -0.268 OA
ENDBRANCH   6  30
TORSDOF 8
ENDMDL
