MODEL 1
REMARK VINA RESULT:      -8.6      0.000      0.000
REMARK  6 active torsions:
REMARK  status: ('A' for Active; 'I' for Inactive)
REMARK    1  A    between atoms: C_2  and  N_3 
REMARK    2  A    between atoms: C_11  and  C_12 
REMARK    3  A    between atoms: C_14  and  C_15 
REMARK    4  A    between atoms: C_15  and  O_16 
REMARK    5  A    between atoms: O_16  and  C_17 
REMARK    6  A    between atoms: C_25  and  O_26 
ROOT
HETATM    1  N   UNL     1     -43.857  60.161 -53.451  1.00  0.00    -0.067 N 
HETATM    2  H   UNL     1     -43.835  59.506 -54.243  1.00  0.00     0.280 HD
HETATM    3  C   UNL     1     -42.469  60.104 -52.815  1.00  0.00     0.281 C 
HETATM    4  C   UNL     1     -42.261  58.814 -52.101  1.00  0.00     0.018 A 
HETATM    5  C   UNL     1     -43.257  57.916 -51.764  1.00  0.00    -0.023 A 
HETATM    6  C   UNL     1     -42.724  56.796 -51.048  1.00  0.00     0.073 A 
HETATM    7  C   UNL     1     -41.364  56.902 -50.874  1.00  0.00     0.088 A 
HETATM    8  N   UNL     1     -40.631  55.987 -50.209  1.00  0.00    -0.358 N 
HETATM    9  C   UNL     1     -41.180  54.658 -50.010  1.00  0.00     0.219 C 
HETATM   10  N   UNL     1     -42.611  54.740 -49.844  1.00  0.00    -0.332 N 
HETATM   11  C   UNL     1     -43.409  55.644 -50.491  1.00  0.00     0.256 C 
HETATM   12  O   UNL     1     -44.622  55.489 -50.576  1.00  0.00    -0.267 OA
HETATM   13  S   UNL     1     -40.723  58.316 -51.566  1.00  0.00    -0.074 SA
HETATM   14  C   UNL     1     -44.686  58.162 -52.138  1.00  0.00     0.068 C 
HETATM   15  C   UNL     1     -44.929  59.640 -52.485  1.00  0.00     0.240 C 
HETATM   16  H   UNL     1     -39.618  56.026 -50.277  1.00  0.00     0.162 HD
HETATM   17  H   UNL     1     -43.089  53.921 -49.497  1.00  0.00     0.165 HD
ENDROOT
BRANCH   9  18
HETATM   18  C   UNL     1     -40.728  53.715 -51.117  1.00  0.00    -0.016 A 
HETATM   19  C   UNL     1     -40.876  54.111 -52.460  1.00  0.00     0.023 A 
HETATM   20  C   UNL     1     -40.468  53.287 -53.530  1.00  0.00    -0.000 A 
HETATM   21  C   UNL     1     -39.891  52.040 -53.250  1.00  0.00     0.076 A 
HETATM   22  C   UNL     1     -39.741  51.634 -51.922  1.00  0.00     0.038 A 
HETATM   23  C   UNL     1     -40.155  52.460 -50.870  1.00  0.00     0.014 A 
BRANCH  20  24
HETATM   24  C   UNL     1     -40.685  53.759 -54.953  1.00  0.00     0.217 C 
BRANCH  24  25
HETATM   25  O   UNL     1     -42.064  54.107 -55.123  1.00  0.00    -0.347 OA
BRANCH  25  26
HETATM   26  C   UNL     1     -42.329  55.334 -55.667  1.00  0.00     0.070 A 
HETATM   27  C   UNL     1     -42.889  55.294 -56.949  1.00  0.00     0.063 A 
HETATM   28  C   UNL     1     -43.206  56.478 -57.616  1.00  0.00     0.075 A 
HETATM   29 CL   UNL     1     -43.897  56.404 -59.191  1.00  0.00    -0.081 Cl
HETATM   30  C   UNL     1     -42.962  57.704 -57.004  1.00  0.00     0.138 A 
HETATM   31  F   UNL     1     -43.258  58.855 -57.624  1.00  0.00    -0.204 F 
HETATM   32  C   UNL     1     -42.401  57.756 -55.732  1.00  0.00     0.047 A 
HETATM   33  C   UNL     1     -42.082  56.570 -55.062  1.00  0.00     0.040 A 
ENDBRANCH  25  26
ENDBRANCH  24  25
ENDBRANCH  20  24
BRANCH  21  34
HETATM   34  O   UNL     1     -39.535  51.274 -54.328  1.00  0.00    -0.355 OA
HETATM   35  C   UNL     1     -39.840  49.886 -54.266  1.00  0.00     0.210 C 
ENDBRANCH  21  34
ENDBRANCH   9  18
BRANCH   1  36
HETATM   36  C   UNL     1     -44.214  61.527 -53.982  1.00  0.00     0.231 C 
HETATM   37  C   UNL     1     -44.150  61.561 -55.497  1.00  0.00     0.034 C 
ENDBRANCH   1  36
TORSDOF 6
ENDMDL
MODEL 2
REMARK VINA RESULT:      -8.4      3.172      7.070
REMARK  6 active torsions:
REMARK  status: ('A' for Active; 'I' for Inactive)
REMARK    1  A    between atoms: C_2  and  N_3 
REMARK    2  A    between atoms: C_11  and  C_12 
REMARK    3  A    between atoms: C_14  and  C_15 
REMARK    4  A    between atoms: C_15  and  O_16 
REMARK    5  A    between atoms: O_16  and  C_17 
REMARK    6  A    between atoms: C_25  and  O_26 
ROOT
HETATM    1  N   UNL     1     -39.963  52.418 -53.440  1.00  0.00    -0.067 N 
HETATM    2  H   UNL     1     -39.338  53.170 -53.758  1.00  0.00     0.280 HD
HETATM    3  C   UNL     1     -41.167  52.442 -54.382  1.00  0.00     0.281 C 
HETATM    4  C   UNL     1     -42.020  53.637 -54.129  1.00  0.00     0.018 A 
HETATM    5  C   UNL     1     -41.949  54.448 -53.011  1.00  0.00    -0.023 A 
HETATM    6  C   UNL     1     -42.935  55.486 -53.062  1.00  0.00     0.073 A 
HETATM    7  C   UNL     1     -43.701  55.406 -54.201  1.00  0.00     0.088 A 
HETATM    8  N   UNL     1     -44.714  56.254 -54.470  1.00  0.00    -0.358 N 
HETATM    9  C   UNL     1     -44.769  57.527 -53.774  1.00  0.00     0.219 C 
HETATM   10  N   UNL     1     -44.251  57.373 -52.435  1.00  0.00    -0.332 N 
HETATM   11  C   UNL     1     -43.226  56.533 -52.099  1.00  0.00     0.256 C 
HETATM   12  O   UNL     1     -42.609  56.654 -51.046  1.00  0.00    -0.267 OA
HETATM   13  S   UNL     1     -43.245  54.116 -55.209  1.00  0.00    -0.074 SA
HETATM   14  C   UNL     1     -40.939  54.203 -51.933  1.00  0.00     0.068 C 
HETATM   15  C   UNL     1     -40.376  52.773 -52.006  1.00  0.00     0.240 C 
HETATM   16  H   UNL     1     -45.114  56.260 -55.403  1.00  0.00     0.162 HD
HETATM   17  H   UNL     1     -44.419  58.124 -51.781  1.00  0.00     0.165 HD
ENDROOT
BRANCH   9  18
HETATM   18  C   UNL     1     -44.090  58.619 -54.589  1.00  0.00    -0.016 A 
HETATM   19  C   UNL     1     -44.438  58.782 -55.944  1.00  0.00     0.023 A 
HETATM   20  C   UNL     1     -43.852  59.781 -56.749  1.00  0.00    -0.000 A 
HETATM   21  C   UNL     1     -42.902  60.645 -56.184  1.00  0.00     0.076 A 
HETATM   22  C   UNL     1     -42.546  60.492 -54.841  1.00  0.00     0.038 A 
HETATM   23  C   UNL     1     -43.132  59.492 -54.055  1.00  0.00     0.014 A 
BRANCH  20  24
HETATM   24  C   UNL     1     -44.247  59.883 -58.208  1.00  0.00     0.217 C 
BRANCH  24  25
HETATM   25  O   UNL     1     -43.332  59.109 -58.992  1.00  0.00    -0.347 OA
BRANCH  25  26
HETATM   26  C   UNL     1     -43.707  57.828 -59.294  1.00  0.00     0.070 A 
HETATM   27  C   UNL     1     -45.056  57.679 -59.631  1.00  0.00     0.063 A 
HETATM   28  C   UNL     1     -45.566  56.423 -59.959  1.00  0.00     0.075 A 
HETATM   29 CL   UNL     1     -47.229  56.264 -60.374  1.00  0.00    -0.081 Cl
HETATM   30  C   UNL     1     -44.728  55.312 -59.949  1.00  0.00     0.138 A 
HETATM   31  F   UNL     1     -45.193  54.094 -60.260  1.00  0.00    -0.204 F 
HETATM   32  C   UNL     1     -43.385  55.447 -59.610  1.00  0.00     0.047 A 
HETATM   33  C   UNL     1     -42.872  56.706 -59.280  1.00  0.00     0.040 A 
ENDBRANCH  25  26
ENDBRANCH  24  25
ENDBRANCH  20  24
BRANCH  21  34
HETATM   34  O   UNL     1     -42.352  61.580 -57.018  1.00  0.00    -0.355 OA
HETATM   35  C   UNL     1     -42.797  62.923 -56.869  1.00  0.00     0.210 C 
ENDBRANCH  21  34
ENDBRANCH   9  18
BRANCH   1  36
HETATM   36  C   UNL     1     -39.198  51.119 -53.485  1.00  0.00     0.231 C 
HETATM   37  C   UNL     1     -39.886  50.107 -54.381  1.00  0.00     0.034 C 
ENDBRANCH   1  36
TORSDOF 6
ENDMDL
MODEL 3
REMARK VINA RESULT:      -8.1      3.933      6.880
REMARK  6 active torsions:
REMARK  status: ('A' for Active; 'I' for Inactive)
REMARK    1  A    between atoms: C_2  and  N_3 
REMARK    2  A    between atoms: C_11  and  C_12 
REMARK    3  A    between atoms: C_14  and  C_15 
REMARK    4  A    between atoms: C_15  and  O_16 
REMARK    5  A    between atoms: O_16  and  C_17 
REMARK    6  A    between atoms: C_25  and  O_26 
ROOT
HETATM    1  N   UNL     1     -46.284  56.475 -59.484  1.00  0.00    -0.067 N 
HETATM    2  H   UNL     1     -46.564  55.872 -58.699  1.00  0.00     0.280 HD
HETATM    3  C   UNL     1     -44.755  56.510 -59.466  1.00  0.00     0.281 C 
HETATM    4  C   UNL     1     -44.252  57.307 -58.313  1.00  0.00     0.018 A 
HETATM    5  C   UNL     1     -45.013  58.167 -57.542  1.00  0.00    -0.023 A 
HETATM    6  C   UNL     1     -44.214  58.805 -56.539  1.00  0.00     0.073 A 
HETATM    7  C   UNL     1     -42.901  58.406 -56.603  1.00  0.00     0.088 A 
HETATM    8  N   UNL     1     -41.943  58.883 -55.781  1.00  0.00    -0.358 N 
HETATM    9  C   UNL     1     -42.338  59.521 -54.539  1.00  0.00     0.219 C 
HETATM   10  N   UNL     1     -43.587  60.220 -54.724  1.00  0.00    -0.332 N 
HETATM   11  C   UNL     1     -44.596  59.787 -55.540  1.00  0.00     0.256 C 
HETATM   12  O   UNL     1     -45.740  60.217 -55.437  1.00  0.00    -0.267 OA
HETATM   13  S   UNL     1     -42.618  57.273 -57.837  1.00  0.00    -0.074 SA
HETATM   14  C   UNL     1     -46.478  58.349 -57.793  1.00  0.00     0.068 C 
HETATM   15  C   UNL     1     -46.872  57.862 -59.197  1.00  0.00     0.240 C 
HETATM   16  H   UNL     1     -41.042  58.415 -55.754  1.00  0.00     0.162 HD
HETATM   17  H   UNL     1     -43.869  60.870 -54.005  1.00  0.00     0.165 HD
ENDROOT
BRANCH   9  18
HETATM   18  C   UNL     1     -42.343  58.518 -53.393  1.00  0.00    -0.016 A 
HETATM   19  C   UNL     1     -42.140  57.153 -53.674  1.00  0.00     0.023 A 
HETATM   20  C   UNL     1     -42.124  56.177 -52.656  1.00  0.00    -0.000 A 
HETATM   21  C   UNL     1     -42.306  56.576 -51.323  1.00  0.00     0.076 A 
HETATM   22  C   UNL     1     -42.511  57.926 -51.032  1.00  0.00     0.038 A 
HETATM   23  C   UNL     1     -42.530  58.884 -52.053  1.00  0.00     0.014 A 
BRANCH  20  24
HETATM   24  C   UNL     1     -41.932  54.721 -53.029  1.00  0.00     0.217 C 
BRANCH  24  25
HETATM   25  O   UNL     1     -40.546  54.386 -52.900  1.00  0.00    -0.347 OA
BRANCH  25  26
HETATM   26  C   UNL     1     -40.252  53.092 -52.567  1.00  0.00     0.070 A 
HETATM   27  C   UNL     1     -40.133  52.222 -53.656  1.00  0.00     0.063 A 
HETATM   28  C   UNL     1     -39.835  50.874 -53.452  1.00  0.00     0.075 A 
HETATM   29 CL   UNL     1     -39.690  49.823 -54.808  1.00  0.00    -0.081 Cl
HETATM   30  C   UNL     1     -39.659  50.393 -52.158  1.00  0.00     0.138 A 
HETATM   31  F   UNL     1     -39.373  49.102 -51.936  1.00  0.00    -0.204 F 
HETATM   32  C   UNL     1     -39.780  51.247 -51.067  1.00  0.00     0.047 A 
HETATM   33  C   UNL     1     -40.079  52.599 -51.270  1.00  0.00     0.040 A 
ENDBRANCH  25  26
ENDBRANCH  24  25
ENDBRANCH  20  24
BRANCH  21  34
HETATM   34  O   UNL     1     -42.303  55.582 -50.381  1.00  0.00    -0.355 OA
HETATM   35  C   UNL     1     -41.212  55.560 -49.467  1.00  0.00     0.210 C 
ENDBRANCH  21  34
ENDBRANCH   9  18
BRANCH   1  36
HETATM   36  C   UNL     1     -46.852  55.889 -60.752  1.00  0.00     0.231 C 
HETATM   37  C   UNL     1     -47.821  56.850 -61.415  1.00  0.00     0.034 C 
ENDBRANCH   1  36
TORSDOF 6
ENDMDL
MODEL 4
REMARK VINA RESULT:      -8.1      3.220      7.085
REMARK  6 active torsions:
REMARK  status: ('A' for Active; 'I' for Inactive)
REMARK    1  A    between atoms: C_2  and  N_3 
REMARK    2  A    between atoms: C_11  and  C_12 
REMARK    3  A    between atoms: C_14  and  C_15 
REMARK    4  A    between atoms: C_15  and  O_16 
REMARK    5  A    between atoms: O_16  and  C_17 
REMARK    6  A    between atoms: C_25  and  O_26 
ROOT
HETATM    1  N   UNL     1     -39.975  52.395 -53.393  1.00  0.00    -0.067 N 
HETATM    2  H   UNL     1     -39.346  53.120 -53.763  1.00  0.00     0.280 HD
HETATM    3  C   UNL     1     -41.186  52.368 -54.325  1.00  0.00     0.281 C 
HETATM    4  C   UNL     1     -42.028  53.583 -54.143  1.00  0.00     0.018 A 
HETATM    5  C   UNL     1     -41.942  54.464 -53.081  1.00  0.00    -0.023 A 
HETATM    6  C   UNL     1     -42.920  55.504 -53.192  1.00  0.00     0.073 A 
HETATM    7  C   UNL     1     -43.696  55.357 -54.317  1.00  0.00     0.088 A 
HETATM    8  N   UNL     1     -44.705  56.194 -54.634  1.00  0.00    -0.358 N 
HETATM    9  C   UNL     1     -44.745  57.509 -54.020  1.00  0.00     0.219 C 
HETATM   10  N   UNL     1     -44.218  57.439 -52.679  1.00  0.00    -0.332 N 
HETATM   11  C   UNL     1     -43.196  56.613 -52.296  1.00  0.00     0.256 C 
HETATM   12  O   UNL     1     -42.571  56.797 -51.258  1.00  0.00    -0.267 OA
HETATM   13  S   UNL     1     -43.258  54.001 -55.243  1.00  0.00    -0.074 SA
HETATM   14  C   UNL     1     -40.926  54.281 -51.997  1.00  0.00     0.068 C 
HETATM   15  C   UNL     1     -40.374  52.846 -51.982  1.00  0.00     0.240 C 
HETATM   16  H   UNL     1     -45.112  56.143 -55.562  1.00  0.00     0.162 HD
HETATM   17  H   UNL     1     -44.375  58.231 -52.073  1.00  0.00     0.165 HD
ENDROOT
BRANCH   9  18
HETATM   18  C   UNL     1     -44.064  58.541 -54.909  1.00  0.00    -0.016 A 
HETATM   19  C   UNL     1     -43.462  58.123 -56.111  1.00  0.00     0.023 A 
HETATM   20  C   UNL     1     -42.825  59.031 -56.982  1.00  0.00    -0.000 A 
HETATM   21  C   UNL     1     -42.796  60.393 -56.647  1.00  0.00     0.076 A 
HETATM   22  C   UNL     1     -43.388  60.821 -55.456  1.00  0.00     0.038 A 
HETATM   23  C   UNL     1     -44.013  59.907 -54.599  1.00  0.00     0.014 A 
BRANCH  20  24
HETATM   24  C   UNL     1     -42.167  58.511 -58.244  1.00  0.00     0.217 C 
BRANCH  24  25
HETATM   25  O   UNL     1     -42.952  58.906 -59.374  1.00  0.00    -0.347 OA
BRANCH  25  26
HETATM   26  C   UNL     1     -44.136  58.248 -59.566  1.00  0.00     0.070 A 
HETATM   27  C   UNL     1     -44.021  56.857 -59.660  1.00  0.00     0.063 A 
HETATM   28  C   UNL     1     -45.155  56.068 -59.855  1.00  0.00     0.075 A 
HETATM   29 CL   UNL     1     -44.989  54.358 -59.965  1.00  0.00    -0.081 Cl
HETATM   30  C   UNL     1     -46.406  56.668 -59.961  1.00  0.00     0.138 A 
HETATM   31  F   UNL     1     -47.510  55.932 -60.149  1.00  0.00    -0.204 F 
HETATM   32  C   UNL     1     -46.532  58.051 -59.874  1.00  0.00     0.047 A 
HETATM   33  C   UNL     1     -45.396  58.844 -59.678  1.00  0.00     0.040 A 
ENDBRANCH  25  26
ENDBRANCH  24  25
ENDBRANCH  20  24
BRANCH  21  34
HETATM   34  O   UNL     1     -42.145  61.224 -57.519  1.00  0.00    -0.355 OA
HETATM   35  C   UNL     1     -42.467  62.609 -57.457  1.00  0.00     0.210 C 
ENDBRANCH  21  34
ENDBRANCH   9  18
BRANCH   1  36
HETATM   36  C   UNL     1     -39.219  51.090 -53.359  1.00  0.00     0.231 C 
HETATM   37  C   UNL     1     -39.859  50.061 -54.272  1.00  0.00     0.034 C 
ENDBRANCH   1  36
TORSDOF 6
ENDMDL
MODEL 5
REMARK VINA RESULT:      -8.1      5.009      8.104
REMARK  6 active torsions:
REMARK  status: ('A' for Active; 'I' for Inactive)
REMARK    1  A    between atoms: C_2  and  N_3 
REMARK    2  A    between atoms: C_11  and  C_12 
REMARK    3  A    between atoms: C_14  and  C_15 
REMARK    4  A    between atoms: C_15  and  O_16 
REMARK    5  A    between atoms: O_16  and  C_17 
REMARK    6  A    between atoms: C_25  and  O_26 
ROOT
HETATM    1  N   UNL     1     -46.184  61.297 -61.389  1.00  0.00    -0.067 N 
HETATM    2  H   UNL     1     -45.799  61.808 -60.583  1.00  0.00     0.280 HD
HETATM    3  C   UNL     1     -46.900  60.075 -60.812  1.00  0.00     0.281 C 
HETATM    4  C   UNL     1     -45.922  59.078 -60.295  1.00  0.00     0.018 A 
HETATM    5  C   UNL     1     -44.566  59.071 -60.567  1.00  0.00    -0.023 A 
HETATM    6  C   UNL     1     -43.920  57.954 -59.945  1.00  0.00     0.073 A 
HETATM    7  C   UNL     1     -44.810  57.175 -59.245  1.00  0.00     0.088 A 
HETATM    8  N   UNL     1     -44.452  56.050 -58.592  1.00  0.00    -0.358 N 
HETATM    9  C   UNL     1     -43.054  55.845 -58.261  1.00  0.00     0.219 C 
HETATM   10  N   UNL     1     -42.219  56.415 -59.292  1.00  0.00    -0.332 N 
HETATM   11  C   UNL     1     -42.525  57.552 -59.988  1.00  0.00     0.256 C 
HETATM   12  O   UNL     1     -41.675  58.175 -60.614  1.00  0.00    -0.267 OA
HETATM   13  S   UNL     1     -46.400  57.770 -59.315  1.00  0.00    -0.074 SA
HETATM   14  C   UNL     1     -43.936  60.133 -61.414  1.00  0.00     0.068 C 
HETATM   15  C   UNL     1     -44.987  60.879 -62.252  1.00  0.00     0.240 C 
HETATM   16  H   UNL     1     -45.111  55.628 -57.945  1.00  0.00     0.162 HD
HETATM   17  H   UNL     1     -41.241  56.167 -59.291  1.00  0.00     0.165 HD
ENDROOT
BRANCH   9  18
HETATM   18  C   UNL     1     -42.751  56.350 -56.857  1.00  0.00    -0.016 A 
HETATM   19  C   UNL     1     -42.538  55.418 -55.822  1.00  0.00     0.023 A 
HETATM   20  C   UNL     1     -42.244  55.822 -54.504  1.00  0.00    -0.000 A 
HETATM   21  C   UNL     1     -42.151  57.191 -54.213  1.00  0.00     0.076 A 
HETATM   22  C   UNL     1     -42.362  58.126 -55.229  1.00  0.00     0.038 A 
HETATM   23  C   UNL     1     -42.658  57.710 -56.533  1.00  0.00     0.014 A 
BRANCH  20  24
HETATM   24  C   UNL     1     -42.059  54.769 -53.430  1.00  0.00     0.217 C 
BRANCH  24  25
HETATM   25  O   UNL     1     -40.661  54.499 -53.280  1.00  0.00    -0.347 OA
BRANCH  25  26
HETATM   26  C   UNL     1     -40.317  53.256 -52.822  1.00  0.00     0.070 A 
HETATM   27  C   UNL     1     -40.153  52.291 -53.822  1.00  0.00     0.063 A 
HETATM   28  C   UNL     1     -39.802  50.983 -53.487  1.00  0.00     0.075 A 
HETATM   29 CL   UNL     1     -39.603  49.813 -54.735  1.00  0.00    -0.081 Cl
HETATM   30  C   UNL     1     -39.619  50.635 -52.152  1.00  0.00     0.138 A 
HETATM   31  F   UNL     1     -39.283  49.385 -51.805  1.00  0.00    -0.204 F 
HETATM   32  C   UNL     1     -39.784  51.585 -51.149  1.00  0.00     0.047 A 
HETATM   33  C   UNL     1     -40.136  52.897 -51.482  1.00  0.00     0.040 A 
ENDBRANCH  25  26
ENDBRANCH  24  25
ENDBRANCH  20  24
BRANCH  21  34
HETATM   34  O   UNL     1     -41.885  57.524 -52.911  1.00  0.00    -0.355 OA
HETATM   35  C   UNL     1     -40.686  58.248 -52.660  1.00  0.00     0.210 C 
ENDBRANCH  21  34
ENDBRANCH   9  18
BRANCH   1  36
HETATM   36  C   UNL     1     -47.104  62.227 -62.139  1.00  0.00     0.231 C 
HETATM   37  C   UNL     1     -47.429  61.684 -63.518  1.00  0.00     0.034 C 
ENDBRANCH   1  36
TORSDOF 6
ENDMDL
MODEL 6
REMARK VINA RESULT:      -7.9      4.797      8.042
REMARK  6 active torsions:
REMARK  status: ('A' for Active; 'I' for Inactive)
REMARK    1  A    between atoms: C_2  and  N_3 
REMARK    2  A    between atoms: C_11  and  C_12 
REMARK    3  A    between atoms: C_14  and  C_15 
REMARK    4  A    between atoms: C_15  and  O_16 
REMARK    5  A    between atoms: O_16  and  C_17 
REMARK    6  A    between atoms: C_25  and  O_26 
ROOT
HETATM    1  N   UNL     1     -47.901  57.121 -61.180  1.00  0.00    -0.067 N 
HETATM    2  H   UNL     1     -48.341  57.107 -60.250  1.00  0.00     0.280 HD
HETATM    3  C   UNL     1     -46.729  56.141 -61.108  1.00  0.00     0.281 C 
HETATM    4  C   UNL     1     -45.626  56.687 -60.270  1.00  0.00     0.018 A 
HETATM    5  C   UNL     1     -45.503  58.005 -59.870  1.00  0.00    -0.023 A 
HETATM    6  C   UNL     1     -44.307  58.204 -59.106  1.00  0.00     0.073 A 
HETATM    7  C   UNL     1     -43.588  57.040 -58.973  1.00  0.00     0.088 A 
HETATM    8  N   UNL     1     -42.410  56.970 -58.320  1.00  0.00    -0.358 N 
HETATM    9  C   UNL     1     -42.062  58.025 -57.385  1.00  0.00     0.219 C 
HETATM   10  N   UNL     1     -42.592  59.285 -57.850  1.00  0.00    -0.332 N 
HETATM   11  C   UNL     1     -43.779  59.421 -58.517  1.00  0.00     0.256 C 
HETATM   12  O   UNL     1     -44.344  60.504 -58.615  1.00  0.00    -0.267 OA
HETATM   13  S   UNL     1     -44.332  55.718 -59.739  1.00  0.00    -0.074 SA
HETATM   14  C   UNL     1     -46.533  59.029 -60.232  1.00  0.00     0.068 C 
HETATM   15  C   UNL     1     -47.407  58.556 -61.405  1.00  0.00     0.240 C 
HETATM   16  H   UNL     1     -42.026  56.057 -58.096  1.00  0.00     0.162 HD
HETATM   17  H   UNL     1     -42.253  60.126 -57.407  1.00  0.00     0.165 HD
ENDROOT
BRANCH   9  18
HETATM   18  C   UNL     1     -42.481  57.652 -55.969  1.00  0.00    -0.016 A 
HETATM   19  C   UNL     1     -42.206  56.357 -55.489  1.00  0.00     0.023 A 
HETATM   20  C   UNL     1     -42.559  55.955 -54.185  1.00  0.00    -0.000 A 
HETATM   21  C   UNL     1     -43.196  56.872 -53.335  1.00  0.00     0.076 A 
HETATM   22  C   UNL     1     -43.478  58.159 -53.800  1.00  0.00     0.038 A 
HETATM   23  C   UNL     1     -43.125  58.543 -55.100  1.00  0.00     0.014 A 
BRANCH  20  24
HETATM   24  C   UNL     1     -42.263  54.537 -53.741  1.00  0.00     0.217 C 
BRANCH  24  25
HETATM   25  O   UNL     1     -40.961  54.497 -53.146  1.00  0.00    -0.347 OA
BRANCH  25  26
HETATM   26  C   UNL     1     -40.512  53.277 -52.721  1.00  0.00     0.070 A 
HETATM   27  C   UNL     1     -40.317  52.340 -53.743  1.00  0.00     0.063 A 
HETATM   28  C   UNL     1     -39.861  51.056 -53.443  1.00  0.00     0.075 A 
HETATM   29 CL   UNL     1     -39.625  49.922 -54.716  1.00  0.00    -0.081 Cl
HETATM   30  C   UNL     1     -39.603  50.705 -52.121  1.00  0.00     0.138 A 
HETATM   31  F   UNL     1     -39.165  49.477 -51.807  1.00  0.00    -0.204 F 
HETATM   32  C   UNL     1     -39.799  51.626 -51.097  1.00  0.00     0.047 A 
HETATM   33  C   UNL     1     -40.256  52.913 -51.395  1.00  0.00     0.040 A 
ENDBRANCH  25  26
ENDBRANCH  24  25
ENDBRANCH  20  24
BRANCH  21  34
HETATM   34  O   UNL     1     -43.535  56.418 -52.089  1.00  0.00    -0.355 OA
HETATM   35  C   UNL     1     -44.482  57.186 -51.355  1.00  0.00     0.210 C 
ENDBRANCH  21  34
ENDBRANCH   9  18
BRANCH   1  36
HETATM   36  C   UNL     1     -48.942  56.732 -62.199  1.00  0.00     0.231 C 
HETATM   37  C   UNL     1     -48.527  57.155 -63.596  1.00  0.00     0.034 C 
ENDBRANCH   1  36
TORSDOF 6
ENDMDL
MODEL 7
REMARK VINA RESULT:      -7.6      2.788      6.760
REMARK  6 active torsions:
REMARK  status: ('A' for Active; 'I' for Inactive)
REMARK    1  A    between atoms: C_2  and  N_3 
REMARK    2  A    between atoms: C_11  and  C_12 
REMARK    3  A    between atoms: C_14  and  C_15 
REMARK    4  A    between atoms: C_15  and  O_16 
REMARK    5  A    between atoms: O_16  and  C_17 
REMARK    6  A    between atoms: C_25  and  O_26 
ROOT
HETATM    1  N   UNL     1     -39.990  52.545 -53.699  1.00  0.00    -0.067 N 
HETATM    2  H   UNL     1     -39.417  53.351 -53.983  1.00  0.00     0.280 HD
HETATM    3  C   UNL     1     -41.377  52.779 -54.298  1.00  0.00     0.281 C 
HETATM    4  C   UNL     1     -42.085  53.884 -53.594  1.00  0.00     0.018 A 
HETATM    5  C   UNL     1     -41.714  54.424 -52.376  1.00  0.00    -0.023 A 
HETATM    6  C   UNL     1     -42.630  55.445 -51.963  1.00  0.00     0.073 A 
HETATM    7  C   UNL     1     -43.642  55.622 -52.875  1.00  0.00     0.088 A 
HETATM    8  N   UNL     1     -44.645  56.507 -52.703  1.00  0.00    -0.358 N 
HETATM    9  C   UNL     1     -44.471  57.589 -51.753  1.00  0.00     0.219 C 
HETATM   10  N   UNL     1     -43.665  57.140 -50.643  1.00  0.00    -0.332 N 
HETATM   11  C   UNL     1     -42.635  56.247 -50.752  1.00  0.00     0.256 C 
HETATM   12  O   UNL     1     -41.785  56.129 -49.876  1.00  0.00    -0.267 OA
HETATM   13  S   UNL     1     -43.501  54.592 -54.220  1.00  0.00    -0.074 SA
HETATM   14  C   UNL     1     -40.496  53.943 -51.649  1.00  0.00     0.068 C 
HETATM   15  C   UNL     1     -40.040  52.568 -52.166  1.00  0.00     0.240 C 
HETATM   16  H   UNL     1     -45.250  56.722 -53.490  1.00  0.00     0.162 HD
HETATM   17  H   UNL     1     -43.637  57.723 -49.820  1.00  0.00     0.165 HD
ENDROOT
BRANCH   9  18
HETATM   18  C   UNL     1     -43.943  58.838 -52.446  1.00  0.00    -0.016 A 
HETATM   19  C   UNL     1     -44.186  59.015 -53.822  1.00  0.00     0.023 A 
HETATM   20  C   UNL     1     -43.733  60.154 -54.519  1.00  0.00    -0.000 A 
HETATM   21  C   UNL     1     -43.028  61.146 -53.822  1.00  0.00     0.076 A 
HETATM   22  C   UNL     1     -42.778  60.982 -52.457  1.00  0.00     0.038 A 
HETATM   23  C   UNL     1     -43.230  59.844 -51.779  1.00  0.00     0.014 A 
BRANCH  20  24
HETATM   24  C   UNL     1     -44.000  60.267 -56.006  1.00  0.00     0.217 C 
BRANCH  24  25
HETATM   25  O   UNL     1     -44.620  59.059 -56.461  1.00  0.00    -0.347 OA
BRANCH  25  26
HETATM   26  C   UNL     1     -43.918  58.307 -57.364  1.00  0.00     0.070 A 
HETATM   27  C   UNL     1     -43.363  59.035 -58.422  1.00  0.00     0.063 A 
HETATM   28  C   UNL     1     -42.624  58.386 -59.412  1.00  0.00     0.075 A 
HETATM   29 CL   UNL     1     -41.948  59.302 -60.703  1.00  0.00    -0.081 Cl
HETATM   30  C   UNL     1     -42.441  57.008 -59.347  1.00  0.00     0.138 A 
HETATM   31  F   UNL     1     -41.736  56.361 -60.286  1.00  0.00    -0.204 F 
HETATM   32  C   UNL     1     -42.993  56.274 -58.303  1.00  0.00     0.047 A 
HETATM   33  C   UNL     1     -43.735  56.922 -57.310  1.00  0.00     0.040 A 
ENDBRANCH  25  26
ENDBRANCH  24  25
ENDBRANCH  20  24
BRANCH  21  34
HETATM   34  O   UNL     1     -42.594  62.218 -54.555  1.00  0.00    -0.355 OA
HETATM   35  C   UNL     1     -43.172  63.484 -54.256  1.00  0.00     0.210 C 
ENDBRANCH  21  34
ENDBRANCH   9  18
BRANCH   1  36
HETATM   36  C   UNL     1     -39.324  51.291 -54.207  1.00  0.00     0.231 C 
HETATM   37  C   UNL     1     -40.316  50.148 -54.315  1.00  0.00     0.034 C 
ENDBRANCH   1  36
TORSDOF 6
ENDMDL
MODEL 8
REMARK VINA RESULT:      -7.4      3.336      5.743
REMARK  6 active torsions:
REMARK  status: ('A' for Active; 'I' for Inactive)
REMARK    1  A    between atoms: C_2  and  N_3 
REMARK    2  A    between atoms: C_11  and  C_12 
REMARK    3  A    between atoms: C_14  and  C_15 
REMARK    4  A    between atoms: C_15  and  O_16 
REMARK    5  A    between atoms: O_16  and  C_17 
REMARK    6  A    between atoms: C_25  and  O_26 
ROOT
HETATM    1  N   UNL     1     -46.780  62.531 -51.071  1.00  0.00    -0.067 N 
HETATM    2  H   UNL     1     -47.328  61.861 -51.626  1.00  0.00     0.280 HD
HETATM    3  C   UNL     1     -45.764  63.146 -52.034  1.00  0.00     0.281 C 
HETATM    4  C   UNL     1     -44.709  62.161 -52.399  1.00  0.00     0.018 A 
HETATM    5  C   UNL     1     -44.464  60.970 -51.742  1.00  0.00    -0.023 A 
HETATM    6  C   UNL     1     -43.355  60.276 -52.324  1.00  0.00     0.073 A 
HETATM    7  C   UNL     1     -42.815  60.972 -53.379  1.00  0.00     0.088 A 
HETATM    8  N   UNL     1     -41.744  60.542 -54.078  1.00  0.00    -0.358 N 
HETATM    9  C   UNL     1     -41.379  59.139 -54.008  1.00  0.00     0.219 C 
HETATM   10  N   UNL     1     -41.679  58.620 -52.695  1.00  0.00    -0.332 N 
HETATM   11  C   UNL     1     -42.748  59.015 -51.939  1.00  0.00     0.256 C 
HETATM   12  O   UNL     1     -43.150  58.348 -50.992  1.00  0.00    -0.267 OA
HETATM   13  S   UNL     1     -43.626  62.434 -53.685  1.00  0.00    -0.074 SA
HETATM   14  C   UNL     1     -45.301  60.536 -50.578  1.00  0.00     0.068 C 
HETATM   15  C   UNL     1     -46.080  61.717 -49.975  1.00  0.00     0.240 C 
HETATM   16  H   UNL     1     -41.513  61.001 -54.953  1.00  0.00     0.162 HD
HETATM   17  H   UNL     1     -41.289  57.722 -52.448  1.00  0.00     0.165 HD
ENDROOT
BRANCH   9  18
HETATM   18  C   UNL     1     -42.012  58.358 -55.152  1.00  0.00    -0.016 A 
HETATM   19  C   UNL     1     -42.136  56.959 -55.043  1.00  0.00     0.023 A 
HETATM   20  C   UNL     1     -42.722  56.180 -56.062  1.00  0.00    -0.000 A 
HETATM   21  C   UNL     1     -43.204  56.816 -57.216  1.00  0.00     0.076 A 
HETATM   22  C   UNL     1     -43.085  58.203 -57.338  1.00  0.00     0.038 A 
HETATM   23  C   UNL     1     -42.496  58.963 -56.319  1.00  0.00     0.014 A 
BRANCH  20  24
HETATM   24  C   UNL     1     -42.795  54.676 -55.896  1.00  0.00     0.217 C 
BRANCH  24  25
HETATM   25  O   UNL     1     -43.094  54.373 -54.529  1.00  0.00    -0.347 OA
BRANCH  25  26
HETATM   26  C   UNL     1     -42.096  53.795 -53.792  1.00  0.00     0.070 A 
HETATM   27  C   UNL     1     -41.499  52.681 -54.392  1.00  0.00     0.063 A 
HETATM   28  C   UNL     1     -40.468  52.000 -53.743  1.00  0.00     0.075 A 
HETATM   29 CL   UNL     1     -39.746  50.633 -54.501  1.00  0.00    -0.081 Cl
HETATM   30  C   UNL     1     -40.034  52.430 -52.493  1.00  0.00     0.138 A 
HETATM   31  F   UNL     1     -39.046  51.793 -51.849  1.00  0.00    -0.204 F 
HETATM   32  C   UNL     1     -40.624  53.534 -51.885  1.00  0.00     0.047 A 
HETATM   33  C   UNL     1     -41.658  54.218 -52.533  1.00  0.00     0.040 A 
ENDBRANCH  25  26
ENDBRANCH  24  25
ENDBRANCH  20  24
BRANCH  21  34
HETATM   34  O   UNL     1     -43.742  56.007 -58.181  1.00  0.00    -0.355 OA
HETATM   35  C   UNL     1     -43.182  56.095 -59.486  1.00  0.00     0.210 C 
ENDBRANCH  21  34
ENDBRANCH   9  18
BRANCH   1  36
HETATM   36  C   UNL     1     -47.731  63.542 -50.481  1.00  0.00     0.231 C 
HETATM   37  C   UNL     1     -48.985  63.673 -51.326  1.00  0.00     0.034 C 
ENDBRANCH   1  36
TORSDOF 6
ENDMDL
MODEL 9
REMARK VINA RESULT:      -7.3      2.832      7.032
REMARK  6 active torsions:
REMARK  status: ('A' for Active; 'I' for Inactive)
REMARK    1  A    between atoms: C_2  and  N_3 
REMARK    2  A    between atoms: C_11  and  C_12 
REMARK    3  A    between atoms: C_14  and  C_15 
REMARK    4  A    between atoms: C_15  and  O_16 
REMARK    5  A    between atoms: O_16  and  C_17 
REMARK    6  A    between atoms: C_25  and  O_26 
ROOT
HETATM    1  N   UNL     1     -41.641  53.760 -54.105  1.00  0.00    -0.067 N 
HETATM    2  H   UNL     1     -42.183  54.147 -54.889  1.00  0.00     0.280 HD
HETATM    3  C   UNL     1     -42.470  54.021 -52.847  1.00  0.00     0.281 C 
HETATM    4  C   UNL     1     -42.469  55.468 -52.497  1.00  0.00     0.018 A 
HETATM    5  C   UNL     1     -41.603  56.416 -53.011  1.00  0.00    -0.023 A 
HETATM    6  C   UNL     1     -41.846  57.705 -52.437  1.00  0.00     0.073 A 
HETATM    7  C   UNL     1     -42.869  57.670 -51.520  1.00  0.00     0.088 A 
HETATM    8  N   UNL     1     -43.273  58.751 -50.821  1.00  0.00    -0.358 N 
HETATM    9  C   UNL     1     -42.920  60.072 -51.308  1.00  0.00     0.219 C 
HETATM   10  N   UNL     1     -41.627  60.029 -51.947  1.00  0.00    -0.332 N 
HETATM   11  C   UNL     1     -41.162  58.964 -52.669  1.00  0.00     0.256 C 
HETATM   12  O   UNL     1     -40.221  59.073 -53.447  1.00  0.00    -0.267 OA
HETATM   13  S   UNL     1     -43.546  56.120 -51.350  1.00  0.00    -0.074 SA
HETATM   14  C   UNL     1     -40.572  56.054 -54.035  1.00  0.00     0.068 C 
HETATM   15  C   UNL     1     -40.319  54.537 -54.066  1.00  0.00     0.240 C 
HETATM   16  H   UNL     1     -44.146  58.704 -50.305  1.00  0.00     0.162 HD
HETATM   17  H   UNL     1     -41.175  60.909 -52.146  1.00  0.00     0.165 HD
ENDROOT
BRANCH   9  18
HETATM   18  C   UNL     1     -44.032  60.643 -52.177  1.00  0.00    -0.016 A 
HETATM   19  C   UNL     1     -44.242  60.108 -53.463  1.00  0.00     0.023 A 
HETATM   20  C   UNL     1     -45.261  60.586 -54.313  1.00  0.00    -0.000 A 
HETATM   21  C   UNL     1     -46.098  61.618 -53.863  1.00  0.00     0.076 A 
HETATM   22  C   UNL     1     -45.899  62.159 -52.590  1.00  0.00     0.038 A 
HETATM   23  C   UNL     1     -44.880  61.678 -51.759  1.00  0.00     0.014 A 
BRANCH  20  24
HETATM   24  C   UNL     1     -45.413  59.989 -55.697  1.00  0.00     0.217 C 
BRANCH  24  25
HETATM   25  O   UNL     1     -45.495  58.564 -55.583  1.00  0.00    -0.347 OA
BRANCH  25  26
HETATM   26  C   UNL     1     -44.680  57.830 -56.401  1.00  0.00     0.070 A 
HETATM   27  C   UNL     1     -44.882  58.044 -57.769  1.00  0.00     0.063 A 
HETATM   28  C   UNL     1     -44.114  57.357 -58.710  1.00  0.00     0.075 A 
HETATM   29 CL   UNL     1     -44.379  57.639 -60.388  1.00  0.00    -0.081 Cl
HETATM   30  C   UNL     1     -43.146  56.453 -58.286  1.00  0.00     0.138 A 
HETATM   31  F   UNL     1     -42.396  55.779 -59.170  1.00  0.00    -0.204 F 
HETATM   32  C   UNL     1     -42.940  56.228 -56.929  1.00  0.00     0.047 A 
HETATM   33  C   UNL     1     -43.708  56.915 -55.983  1.00  0.00     0.040 A 
ENDBRANCH  25  26
ENDBRANCH  24  25
ENDBRANCH  20  24
BRANCH  21  34
HETATM   34  O   UNL     1     -47.055  62.056 -54.739  1.00  0.00    -0.355 OA
HETATM   35  C   UNL     1     -47.651  63.319 -54.468  1.00  0.00     0.210 C 
ENDBRANCH  21  34
ENDBRANCH   9  18
BRANCH   1  36
HETATM   36  C   UNL     1     -41.409  52.294 -54.372  1.00  0.00     0.231 C 
HETATM   37  C   UNL     1     -40.025  51.867 -53.919  1.00  0.00     0.034 C 
ENDBRANCH   1  36
TORSDOF 6
ENDMDL
MODEL 10
REMARK VINA RESULT:      -7.3      4.331      8.362
REMARK  6 active torsions:
REMARK  status: ('A' for Active; 'I' for Inactive)
REMARK    1  A    between atoms: C_2  and  N_3 
REMARK    2  A    between atoms: C_11  and  C_12 
REMARK    3  A    between atoms: C_14  and  C_15 
REMARK    4  A    between atoms: C_15  and  O_16 
REMARK    5  A    between atoms: O_16  and  C_17 
REMARK    6  A    between atoms: C_25  and  O_26 
ROOT
HETATM    1  N   UNL     1     -39.945  52.424 -53.405  1.00  0.00    -0.067 N 
HETATM    2  H   UNL     1     -39.346  53.234 -53.617  1.00  0.00     0.280 HD
HETATM    3  C   UNL     1     -41.075  52.452 -54.433  1.00  0.00     0.281 C 
HETATM    4  C   UNL     1     -42.019  53.571 -54.161  1.00  0.00     0.018 A 
HETATM    5  C   UNL     1     -42.081  54.297 -52.985  1.00  0.00    -0.023 A 
HETATM    6  C   UNL     1     -43.125  55.277 -53.037  1.00  0.00     0.073 A 
HETATM    7  C   UNL     1     -43.799  55.240 -54.235  1.00  0.00     0.088 A 
HETATM    8  N   UNL     1     -44.842  56.047 -54.520  1.00  0.00    -0.358 N 
HETATM    9  C   UNL     1     -45.028  57.256 -53.739  1.00  0.00     0.219 C 
HETATM   10  N   UNL     1     -44.601  57.030 -52.379  1.00  0.00    -0.332 N 
HETATM   11  C   UNL     1     -43.552  56.227 -52.026  1.00  0.00     0.256 C 
HETATM   12  O   UNL     1     -43.024  56.302 -50.922  1.00  0.00    -0.267 OA
HETATM   13  S   UNL     1     -43.190  54.061 -55.295  1.00  0.00    -0.074 SA
HETATM   14  C   UNL     1     -41.140  54.028 -51.852  1.00  0.00     0.068 C 
HETATM   15  C   UNL     1     -40.483  52.643 -51.985  1.00  0.00     0.240 C 
HETATM   16  H   UNL     1     -45.172  56.101 -55.479  1.00  0.00     0.162 HD
HETATM   17  H   UNL     1     -44.864  57.717 -51.688  1.00  0.00     0.165 HD
ENDROOT
BRANCH   9  18
HETATM   18  C   UNL     1     -44.362  58.446 -54.418  1.00  0.00    -0.016 A 
HETATM   19  C   UNL     1     -43.939  59.536 -53.633  1.00  0.00     0.023 A 
HETATM   20  C   UNL     1     -43.308  60.662 -54.200  1.00  0.00    -0.000 A 
HETATM   21  C   UNL     1     -43.085  60.696 -55.585  1.00  0.00     0.076 A 
HETATM   22  C   UNL     1     -43.502  59.622 -56.375  1.00  0.00     0.038 A 
HETATM   23  C   UNL     1     -44.133  58.512 -55.799  1.00  0.00     0.014 A 
BRANCH  20  24
HETATM   24  C   UNL     1     -42.906  61.816 -53.304  1.00  0.00     0.217 C 
BRANCH  24  25
HETATM   25  O   UNL     1     -42.677  61.319 -51.980  1.00  0.00    -0.347 OA
BRANCH  25  26
HETATM   26  C   UNL     1     -43.165  62.070 -50.946  1.00  0.00     0.070 A 
HETATM   27  C   UNL     1     -43.820  61.336 -49.951  1.00  0.00     0.063 A 
HETATM   28  C   UNL     1     -44.364  61.984 -48.841  1.00  0.00     0.075 A 
HETATM   29 CL   UNL     1     -45.163  61.060 -47.628  1.00  0.00    -0.081 Cl
HETATM   30  C   UNL     1     -44.257  63.366 -48.725  1.00  0.00     0.138 A 
HETATM   31  F   UNL     1     -44.771  64.012 -47.669  1.00  0.00    -0.204 F 
HETATM   32  C   UNL     1     -43.612  64.107 -49.710  1.00  0.00     0.047 A 
HETATM   33  C   UNL     1     -43.066  63.460 -50.824  1.00  0.00     0.040 A 
ENDBRANCH  25  26
ENDBRANCH  24  25
ENDBRANCH  20  24
BRANCH  21  34
HETATM   34  O   UNL     1     -42.488  61.824 -56.081  1.00  0.00    -0.355 OA
HETATM   35  C   UNL     1     -43.277  62.658 -56.922  1.00  0.00     0.210 C 
ENDBRANCH  21  34
ENDBRANCH   9  18
BRANCH   1  36
HETATM   36  C   UNL     1     -39.096  51.180 -53.484  1.00  0.00     0.231 C 
HETATM   37  C   UNL     1     -39.764  50.114 -54.332  1.00  0.00     0.034 C 
ENDBRANCH   1  36
TORSDOF 6
ENDMDL
