MODEL 1
REMARK VINA RESULT:      -8.2      0.000      0.000
REMARK  5 active torsions:
REMARK  status: ('A' for Active; 'I' for Inactive)
REMARK    1  A    between atoms: C_2  and  N_3 
REMARK    2  A    between atoms: C_2  and  C_19 
REMARK       I    between atoms: N_3  and  C_4 
REMARK    3  A    between atoms: C_4  and  C_5 
REMARK    4  A    between atoms: C_7  and  O_8 
REMARK    5  A    between atoms: O_8  and  C_9 
ROOT
HETATM    1  C   UNL     1     -42.498  55.399 -55.428  1.00  0.00     0.146 A 
HETATM    2  O   UNL     1     -41.202  54.983 -55.254  1.00  0.00    -0.282 OA
HETATM    3  C   UNL     1     -41.217  54.054 -54.256  1.00  0.00     0.191 A 
HETATM    4  C   UNL     1     -42.503  53.833 -53.822  1.00  0.00     0.067 A 
HETATM    5  C   UNL     1     -43.324  54.724 -54.550  1.00  0.00     0.048 A 
ENDROOT
BRANCH   1   6
HETATM    6  C   UNL     1     -42.799  56.409 -56.423  1.00  0.00     0.276 C 
HETATM    7  N   UNL     1     -42.796  55.943 -57.717  1.00  0.00    -0.347 N 
HETATM    8  H   UNL     1     -42.571  54.965 -57.861  1.00  0.00     0.163 HD
HETATM    9  O   UNL     1     -43.050  57.577 -56.140  1.00  0.00    -0.265 OA
BRANCH   7  10
HETATM   10  C   UNL     1     -43.031  56.804 -58.858  1.00  0.00     0.114 C 
HETATM   11  C   UNL     1     -42.002  56.535 -59.957  1.00  0.00     0.037 C 
BRANCH  10  12
HETATM   12  C   UNL     1     -44.459  56.651 -59.342  1.00  0.00    -0.033 A 
HETATM   13  C   UNL     1     -44.768  55.677 -60.301  1.00  0.00     0.028 A 
HETATM   14  C   UNL     1     -46.077  55.557 -60.738  1.00  0.00     0.116 A 
HETATM   15  N   UNL     1     -47.089  56.333 -60.297  1.00  0.00    -0.273 NA
HETATM   16  C   UNL     1     -46.775  57.274 -59.384  1.00  0.00     0.116 A 
HETATM   17  C   UNL     1     -45.497  57.471 -58.883  1.00  0.00     0.028 A 
ENDBRANCH  10  12
ENDBRANCH   7  10
ENDBRANCH   1   6
BRANCH   3  18
HETATM   18  O   UNL     1     -40.055  53.494 -53.931  1.00  0.00    -0.286 OA
BRANCH  18  19
HETATM   19  C   UNL     1     -39.976  52.189 -53.496  1.00  0.00     0.100 A 
HETATM   20  C   UNL     1     -39.755  51.958 -52.133  1.00  0.00     0.068 A 
HETATM   21 CL   UNL     1     -39.675  53.259 -51.000  1.00  0.00    -0.081 Cl
HETATM   22  C   UNL     1     -39.589  50.654 -51.658  1.00  0.00     0.026 A 
HETATM   23  C   UNL     1     -39.633  49.577 -52.544  1.00  0.00     0.002 A 
HETATM   24  C   UNL     1     -39.840  49.802 -53.904  1.00  0.00     0.003 A 
HETATM   25  C   UNL     1     -40.004  51.104 -54.381  1.00  0.00     0.039 A 
ENDBRANCH  18  19
ENDBRANCH   3  18
TORSDOF 5
ENDMDL
MODEL 2
REMARK VINA RESULT:      -7.9      2.022      2.580
REMARK  5 active torsions:
REMARK  status: ('A' for Active; 'I' for Inactive)
REMARK    1  A    between atoms: C_2  and  N_3 
REMARK    2  A    between atoms: C_2  and  C_19 
REMARK       I    between atoms: N_3  and  C_4 
REMARK    3  A    between atoms: C_4  and  C_5 
REMARK    4  A    between atoms: C_7  and  O_8 
REMARK    5  A    between atoms: O_8  and  C_9 
ROOT
HETATM    1  C   UNL     1     -42.980  55.476 -53.579  1.00  0.00     0.146 A 
HETATM    2  O   UNL     1     -41.683  55.055 -53.736  1.00  0.00    -0.282 OA
HETATM    3  C   UNL     1     -41.434  54.162 -52.736  1.00  0.00     0.191 A 
HETATM    4  C   UNL     1     -42.560  53.969 -51.971  1.00  0.00     0.067 A 
HETATM    5  C   UNL     1     -43.545  54.840 -52.490  1.00  0.00     0.048 A 
ENDROOT
BRANCH   1   6
HETATM    6  C   UNL     1     -43.534  56.451 -54.496  1.00  0.00     0.276 C 
HETATM    7  N   UNL     1     -42.643  56.906 -55.440  1.00  0.00    -0.347 N 
HETATM    8  H   UNL     1     -41.697  56.545 -55.401  1.00  0.00     0.163 HD
HETATM    9  O   UNL     1     -44.700  56.831 -54.448  1.00  0.00    -0.265 OA
BRANCH   7  10
HETATM   10  C   UNL     1     -42.990  57.916 -56.419  1.00  0.00     0.114 C 
HETATM   11  C   UNL     1     -42.241  59.220 -56.138  1.00  0.00     0.037 C 
BRANCH  10  12
HETATM   12  C   UNL     1     -42.746  57.390 -57.819  1.00  0.00    -0.033 A 
HETATM   13  C   UNL     1     -42.048  58.175 -58.745  1.00  0.00     0.028 A 
HETATM   14  C   UNL     1     -41.843  57.681 -60.024  1.00  0.00     0.116 A 
HETATM   15  N   UNL     1     -42.282  56.476 -60.442  1.00  0.00    -0.273 NA
HETATM   16  C   UNL     1     -42.964  55.737 -59.543  1.00  0.00     0.116 A 
HETATM   17  C   UNL     1     -43.218  56.142 -58.242  1.00  0.00     0.028 A 
ENDBRANCH  10  12
ENDBRANCH   7  10
ENDBRANCH   1   6
BRANCH   3  18
HETATM   18  O   UNL     1     -40.227  53.605 -52.707  1.00  0.00    -0.286 OA
BRANCH  18  19
HETATM   19  C   UNL     1     -40.057  52.239 -52.768  1.00  0.00     0.100 A 
HETATM   20  C   UNL     1     -39.954  51.529 -51.566  1.00  0.00     0.068 A 
HETATM   21 CL   UNL     1     -40.125  52.317 -50.039  1.00  0.00    -0.081 Cl
HETATM   22  C   UNL     1     -39.703  50.155 -51.579  1.00  0.00     0.026 A 
HETATM   23  C   UNL     1     -39.544  49.485 -52.793  1.00  0.00     0.002 A 
HETATM   24  C   UNL     1     -39.634  50.189 -53.993  1.00  0.00     0.003 A 
HETATM   25  C   UNL     1     -39.883  51.563 -53.983  1.00  0.00     0.039 A 
ENDBRANCH  18  19
ENDBRANCH   3  18
TORSDOF 5
ENDMDL
MODEL 3
REMARK VINA RESULT:      -7.6      2.125      3.022
REMARK  5 active torsions:
REMARK  status: ('A' for Active; 'I' for Inactive)
REMARK    1  A    between atoms: C_2  and  N_3 
REMARK    2  A    between atoms: C_2  and  C_19 
REMARK       I    between atoms: N_3  and  C_4 
REMARK    3  A    between atoms: C_4  and  C_5 
REMARK    4  A    between atoms: C_7  and  O_8 
REMARK    5  A    between atoms: O_8  and  C_9 
ROOT
HETATM    1  C   UNL     1     -41.926  55.134 -55.125  1.00  0.00     0.146 A 
HETATM    2  O   UNL     1     -42.399  54.598 -53.953  1.00  0.00    -0.282 OA
HETATM    3  C   UNL     1     -41.447  53.733 -53.502  1.00  0.00     0.191 A 
HETATM    4  C   UNL     1     -40.355  53.739 -54.337  1.00  0.00     0.067 A 
HETATM    5  C   UNL     1     -40.676  54.614 -55.401  1.00  0.00     0.048 A 
ENDROOT
BRANCH   1   6
HETATM    6  C   UNL     1     -42.735  56.089 -55.855  1.00  0.00     0.276 C 
HETATM    7  N   UNL     1     -42.280  56.356 -57.126  1.00  0.00    -0.347 N 
HETATM    8  H   UNL     1     -41.432  55.890 -57.426  1.00  0.00     0.163 HD
HETATM    9  O   UNL     1     -43.746  56.607 -55.391  1.00  0.00    -0.265 OA
BRANCH   7  10
HETATM   10  C   UNL     1     -42.925  57.316 -57.999  1.00  0.00     0.114 C 
HETATM   11  C   UNL     1     -41.884  58.093 -58.807  1.00  0.00     0.037 C 
BRANCH  10  12
HETATM   12  C   UNL     1     -43.946  56.619 -58.875  1.00  0.00    -0.033 A 
HETATM   13  C   UNL     1     -45.203  57.203 -59.078  1.00  0.00     0.028 A 
HETATM   14  C   UNL     1     -46.128  56.547 -59.874  1.00  0.00     0.116 A 
HETATM   15  N   UNL     1     -45.896  55.361 -60.472  1.00  0.00    -0.273 NA
HETATM   16  C   UNL     1     -44.686  54.803 -60.257  1.00  0.00     0.116 A 
HETATM   17  C   UNL     1     -43.694  55.382 -59.479  1.00  0.00     0.028 A 
ENDBRANCH  10  12
ENDBRANCH   7  10
ENDBRANCH   1   6
BRANCH   3  18
HETATM   18  O   UNL     1     -41.690  53.108 -52.354  1.00  0.00    -0.286 OA
BRANCH  18  19
HETATM   19  C   UNL     1     -41.337  53.658 -51.141  1.00  0.00     0.100 A 
HETATM   20  C   UNL     1     -40.605  52.870 -50.244  1.00  0.00     0.068 A 
HETATM   21 CL   UNL     1     -40.072  51.283 -50.668  1.00  0.00    -0.081 Cl
HETATM   22  C   UNL     1     -40.292  53.357 -48.972  1.00  0.00     0.026 A 
HETATM   23  C   UNL     1     -40.718  54.629 -48.587  1.00  0.00     0.002 A 
HETATM   24  C   UNL     1     -41.457  55.413 -49.471  1.00  0.00     0.003 A 
HETATM   25  C   UNL     1     -41.773  54.928 -50.742  1.00  0.00     0.039 A 
ENDBRANCH  18  19
ENDBRANCH   3  18
TORSDOF 5
ENDMDL
MODEL 4
REMARK VINA RESULT:      -7.5      1.504      1.788
REMARK  5 active torsions:
REMARK  status: ('A' for Active; 'I' for Inactive)
REMARK    1  A    between atoms: C_2  and  N_3 
REMARK    2  A    between atoms: C_2  and  C_19 
REMARK       I    between atoms: N_3  and  C_4 
REMARK    3  A    between atoms: C_4  and  C_5 
REMARK    4  A    between atoms: C_7  and  O_8 
REMARK    5  A    between atoms: O_8  and  C_9 
ROOT
HETATM    1  C   UNL     1     -42.349  57.126 -55.205  1.00  0.00     0.146 A 
HETATM    2  O   UNL     1     -42.759  55.888 -54.777  1.00  0.00    -0.282 OA
HETATM    3  C   UNL     1     -42.064  55.615 -53.636  1.00  0.00     0.191 A 
HETATM    4  C   UNL     1     -41.253  56.673 -53.301  1.00  0.00     0.067 A 
HETATM    5  C   UNL     1     -41.408  57.632 -54.328  1.00  0.00     0.048 A 
ENDROOT
BRANCH   1   6
HETATM    6  C   UNL     1     -42.907  57.687 -56.419  1.00  0.00     0.276 C 
HETATM    7  N   UNL     1     -42.371  57.172 -57.576  1.00  0.00    -0.347 N 
HETATM    8  H   UNL     1     -41.639  56.477 -57.483  1.00  0.00     0.163 HD
HETATM    9  O   UNL     1     -43.792  58.538 -56.420  1.00  0.00    -0.265 OA
BRANCH   7  10
HETATM   10  C   UNL     1     -42.765  57.633 -58.892  1.00  0.00     0.114 C 
HETATM   11  C   UNL     1     -41.566  57.638 -59.842  1.00  0.00     0.037 C 
BRANCH  10  12
HETATM   12  C   UNL     1     -43.920  56.802 -59.411  1.00  0.00    -0.033 A 
HETATM   13  C   UNL     1     -43.708  55.466 -59.776  1.00  0.00     0.028 A 
HETATM   14  C   UNL     1     -44.775  54.724 -60.258  1.00  0.00     0.116 A 
HETATM   15  N   UNL     1     -46.023  55.213 -60.405  1.00  0.00    -0.273 NA
HETATM   16  C   UNL     1     -46.210  56.504 -60.063  1.00  0.00     0.116 A 
HETATM   17  C   UNL     1     -45.208  57.327 -59.570  1.00  0.00     0.028 A 
ENDBRANCH  10  12
ENDBRANCH   7  10
ENDBRANCH   1   6
BRANCH   3  18
HETATM   18  O   UNL     1     -42.321  54.459 -53.032  1.00  0.00    -0.286 OA
BRANCH  18  19
HETATM   19  C   UNL     1     -41.437  53.404 -53.077  1.00  0.00     0.100 A 
HETATM   20  C   UNL     1     -40.643  53.155 -51.951  1.00  0.00     0.068 A 
HETATM   21 CL   UNL     1     -40.819  54.080 -50.503  1.00  0.00    -0.081 Cl
HETATM   22  C   UNL     1     -39.678  52.146 -51.979  1.00  0.00     0.026 A 
HETATM   23  C   UNL     1     -39.495  51.386 -53.135  1.00  0.00     0.002 A 
HETATM   24  C   UNL     1     -40.275  51.636 -54.264  1.00  0.00     0.003 A 
HETATM   25  C   UNL     1     -41.239  52.646 -54.238  1.00  0.00     0.039 A 
ENDBRANCH  18  19
ENDBRANCH   3  18
TORSDOF 5
ENDMDL
MODEL 5
REMARK VINA RESULT:      -7.4      2.247      3.226
REMARK  5 active torsions:
REMARK  status: ('A' for Active; 'I' for Inactive)
REMARK    1  A    between atoms: C_2  and  N_3 
REMARK    2  A    between atoms: C_2  and  C_19 
REMARK       I    between atoms: N_3  and  C_4 
REMARK    3  A    between atoms: C_4  and  C_5 
REMARK    4  A    between atoms: C_7  and  O_8 
REMARK    5  A    between atoms: O_8  and  C_9 
ROOT
HETATM    1  C   UNL     1     -42.783  55.507 -52.329  1.00  0.00     0.146 A 
HETATM    2  O   UNL     1     -41.484  55.131 -52.561  1.00  0.00    -0.282 OA
HETATM    3  C   UNL     1     -41.233  54.061 -51.754  1.00  0.00     0.191 A 
HETATM    4  C   UNL     1     -42.359  53.716 -51.046  1.00  0.00     0.067 A 
HETATM    5  C   UNL     1     -43.348  54.668 -51.388  1.00  0.00     0.048 A 
ENDROOT
BRANCH   1   6
HETATM    6  C   UNL     1     -43.340  56.641 -53.039  1.00  0.00     0.276 C 
HETATM    7  N   UNL     1     -42.816  56.830 -54.297  1.00  0.00    -0.347 N 
HETATM    8  H   UNL     1     -42.092  56.190 -54.602  1.00  0.00     0.163 HD
HETATM    9  O   UNL     1     -44.213  57.365 -52.570  1.00  0.00    -0.265 OA
BRANCH   7  10
HETATM   10  C   UNL     1     -43.209  57.935 -55.148  1.00  0.00     0.114 C 
HETATM   11  C   UNL     1     -42.250  59.114 -54.979  1.00  0.00     0.037 C 
BRANCH  10  12
HETATM   12  C   UNL     1     -43.318  57.469 -56.586  1.00  0.00    -0.033 A 
HETATM   13  C   UNL     1     -43.739  58.366 -57.577  1.00  0.00     0.028 A 
HETATM   14  C   UNL     1     -43.842  57.921 -58.886  1.00  0.00     0.116 A 
HETATM   15  N   UNL     1     -43.563  56.658 -59.273  1.00  0.00    -0.273 NA
HETATM   16  C   UNL     1     -43.172  55.803 -58.306  1.00  0.00     0.116 A 
HETATM   17  C   UNL     1     -43.037  56.153 -56.971  1.00  0.00     0.028 A 
ENDBRANCH  10  12
ENDBRANCH   7  10
ENDBRANCH   1   6
BRANCH   3  18
HETATM   18  O   UNL     1     -40.023  53.515 -51.831  1.00  0.00    -0.286 OA
BRANCH  18  19
HETATM   19  C   UNL     1     -39.844  52.199 -52.198  1.00  0.00     0.100 A 
HETATM   20  C   UNL     1     -39.887  51.879 -53.560  1.00  0.00     0.068 A 
HETATM   21 CL   UNL     1     -40.069  53.101 -54.767  1.00  0.00    -0.081 Cl
HETATM   22  C   UNL     1     -39.789  50.548 -53.974  1.00  0.00     0.026 A 
HETATM   23  C   UNL     1     -39.656  49.530 -53.029  1.00  0.00     0.002 A 
HETATM   24  C   UNL     1     -39.624  49.842 -51.670  1.00  0.00     0.003 A 
HETATM   25  C   UNL     1     -39.724  51.171 -51.254  1.00  0.00     0.039 A 
ENDBRANCH  18  19
ENDBRANCH   3  18
TORSDOF 5
ENDMDL
MODEL 6
REMARK VINA RESULT:      -7.4      3.624      5.113
REMARK  5 active torsions:
REMARK  status: ('A' for Active; 'I' for Inactive)
REMARK    1  A    between atoms: C_2  and  N_3 
REMARK    2  A    between atoms: C_2  and  C_19 
REMARK       I    between atoms: N_3  and  C_4 
REMARK    3  A    between atoms: C_4  and  C_5 
REMARK    4  A    between atoms: C_7  and  O_8 
REMARK    5  A    between atoms: O_8  and  C_9 
ROOT
HETATM    1  C   UNL     1     -42.246  55.193 -50.424  1.00  0.00     0.146 A 
HETATM    2  O   UNL     1     -41.921  53.907 -50.780  1.00  0.00    -0.282 OA
HETATM    3  C   UNL     1     -40.626  53.708 -50.400  1.00  0.00     0.191 A 
HETATM    4  C   UNL     1     -40.132  54.824 -49.767  1.00  0.00     0.067 A 
HETATM    5  C   UNL     1     -41.161  55.793 -49.813  1.00  0.00     0.048 A 
ENDROOT
BRANCH   1   6
HETATM    6  C   UNL     1     -43.569  55.705 -50.717  1.00  0.00     0.276 C 
HETATM    7  N   UNL     1     -43.572  56.885 -51.424  1.00  0.00    -0.347 N 
HETATM    8  H   UNL     1     -42.674  57.293 -51.657  1.00  0.00     0.163 HD
HETATM    9  O   UNL     1     -44.601  55.134 -50.377  1.00  0.00    -0.265 OA
BRANCH   7  10
HETATM   10  C   UNL     1     -44.793  57.581 -51.776  1.00  0.00     0.114 C 
HETATM   11  C   UNL     1     -45.014  58.782 -50.854  1.00  0.00     0.037 C 
BRANCH  10  12
HETATM   12  C   UNL     1     -44.770  57.965 -53.242  1.00  0.00    -0.033 A 
HETATM   13  C   UNL     1     -44.335  57.036 -54.196  1.00  0.00     0.028 A 
HETATM   14  C   UNL     1     -44.312  57.407 -55.532  1.00  0.00     0.116 A 
HETATM   15  N   UNL     1     -44.682  58.625 -55.978  1.00  0.00    -0.273 NA
HETATM   16  C   UNL     1     -45.086  59.513 -55.046  1.00  0.00     0.116 A 
HETATM   17  C   UNL     1     -45.146  59.237 -53.689  1.00  0.00     0.028 A 
ENDBRANCH  10  12
ENDBRANCH   7  10
ENDBRANCH   1   6
BRANCH   3  18
HETATM   18  O   UNL     1     -40.104  52.508 -50.632  1.00  0.00    -0.286 OA
BRANCH  18  19
HETATM   19  C   UNL     1     -40.087  51.956 -51.894  1.00  0.00     0.100 A 
HETATM   20  C   UNL     1     -39.744  50.605 -52.023  1.00  0.00     0.068 A 
HETATM   21 CL   UNL     1     -39.437  49.619 -50.638  1.00  0.00    -0.081 Cl
HETATM   22  C   UNL     1     -39.638  50.022 -53.288  1.00  0.00     0.026 A 
HETATM   23  C   UNL     1     -39.863  50.790 -54.432  1.00  0.00     0.002 A 
HETATM   24  C   UNL     1     -40.194  52.139 -54.311  1.00  0.00     0.003 A 
HETATM   25  C   UNL     1     -40.299  52.723 -53.047  1.00  0.00     0.039 A 
ENDBRANCH  18  19
ENDBRANCH   3  18
TORSDOF 5
ENDMDL
MODEL 7
REMARK VINA RESULT:      -7.4     14.813     17.542
REMARK  5 active torsions:
REMARK  status: ('A' for Active; 'I' for Inactive)
REMARK    1  A    between atoms: C_2  and  N_3 
REMARK    2  A    between atoms: C_2  and  C_19 
REMARK       I    between atoms: N_3  and  C_4 
REMARK    3  A    between atoms: C_4  and  C_5 
REMARK    4  A    between atoms: C_7  and  O_8 
REMARK    5  A    between atoms: O_8  and  C_9 
ROOT
HETATM    1  C   UNL     1     -35.557  41.915 -54.573  1.00  0.00     0.146 A 
HETATM    2  O   UNL     1     -36.784  41.822 -55.182  1.00  0.00    -0.282 OA
HETATM    3  C   UNL     1     -36.555  41.764 -56.525  1.00  0.00     0.191 A 
HETATM    4  C   UNL     1     -35.204  41.771 -56.784  1.00  0.00     0.067 A 
HETATM    5  C   UNL     1     -34.562  41.904 -55.532  1.00  0.00     0.048 A 
ENDROOT
BRANCH   1   6
HETATM    6  C   UNL     1     -35.478  42.008 -53.130  1.00  0.00     0.276 C 
HETATM    7  N   UNL     1     -35.507  40.794 -52.484  1.00  0.00    -0.347 N 
HETATM    8  H   UNL     1     -35.597  39.963 -53.057  1.00  0.00     0.163 HD
HETATM    9  O   UNL     1     -35.380  43.075 -52.530  1.00  0.00    -0.265 OA
BRANCH   7  10
HETATM   10  C   UNL     1     -35.483  40.676 -51.040  1.00  0.00     0.114 C 
HETATM   11  C   UNL     1     -36.687  39.874 -50.545  1.00  0.00     0.037 C 
BRANCH  10  12
HETATM   12  C   UNL     1     -34.161  40.089 -50.588  1.00  0.00    -0.033 A 
HETATM   13  C   UNL     1     -32.965  40.551 -51.153  1.00  0.00     0.028 A 
HETATM   14  C   UNL     1     -31.766  39.996 -50.734  1.00  0.00     0.116 A 
HETATM   15  N   UNL     1     -31.674  39.021 -49.807  1.00  0.00    -0.273 NA
HETATM   16  C   UNL     1     -32.835  38.576 -49.281  1.00  0.00     0.116 A 
HETATM   17  C   UNL     1     -34.083  39.069 -49.633  1.00  0.00     0.028 A 
ENDBRANCH  10  12
ENDBRANCH   7  10
ENDBRANCH   1   6
BRANCH   3  18
HETATM   18  O   UNL     1     -37.616  41.649 -57.317  1.00  0.00    -0.286 OA
BRANCH  18  19
HETATM   19  C   UNL     1     -37.728  40.629 -58.236  1.00  0.00     0.100 A 
HETATM   20  C   UNL     1     -37.618  40.945 -59.595  1.00  0.00     0.068 A 
HETATM   21 CL   UNL     1     -37.259  42.552 -60.118  1.00  0.00    -0.081 Cl
HETATM   22  C   UNL     1     -37.802  39.957 -60.565  1.00  0.00     0.026 A 
HETATM   23  C   UNL     1     -38.108  38.650 -60.183  1.00  0.00     0.002 A 
HETATM   24  C   UNL     1     -38.231  38.331 -58.831  1.00  0.00     0.003 A 
HETATM   25  C   UNL     1     -38.049  39.318 -57.859  1.00  0.00     0.039 A 
ENDBRANCH  18  19
ENDBRANCH   3  18
TORSDOF 5
ENDMDL
MODEL 8
REMARK VINA RESULT:      -7.3      3.477      8.214
REMARK  5 active torsions:
REMARK  status: ('A' for Active; 'I' for Inactive)
REMARK    1  A    between atoms: C_2  and  N_3 
REMARK    2  A    between atoms: C_2  and  C_19 
REMARK       I    between atoms: N_3  and  C_4 
REMARK    3  A    between atoms: C_4  and  C_5 
REMARK    4  A    between atoms: C_7  and  O_8 
REMARK    5  A    between atoms: O_8  and  C_9 
ROOT
HETATM    1  C   UNL     1     -42.676  56.876 -54.476  1.00  0.00     0.146 A 
HETATM    2  O   UNL     1     -42.249  56.877 -55.781  1.00  0.00    -0.282 OA
HETATM    3  C   UNL     1     -43.300  57.303 -56.539  1.00  0.00     0.191 A 
HETATM    4  C   UNL     1     -44.373  57.621 -55.741  1.00  0.00     0.067 A 
HETATM    5  C   UNL     1     -43.986  57.313 -54.416  1.00  0.00     0.048 A 
ENDROOT
BRANCH   1   6
HETATM    6  C   UNL     1     -41.773  56.451 -53.426  1.00  0.00     0.276 C 
HETATM    7  N   UNL     1     -41.870  55.116 -53.107  1.00  0.00    -0.347 N 
HETATM    8  H   UNL     1     -42.559  54.566 -53.606  1.00  0.00     0.163 HD
HETATM    9  O   UNL     1     -40.978  57.207 -52.875  1.00  0.00    -0.265 OA
BRANCH   7  10
HETATM   10  C   UNL     1     -41.084  54.506 -52.054  1.00  0.00     0.114 C 
HETATM   11  C   UNL     1     -41.897  54.409 -50.762  1.00  0.00     0.037 C 
BRANCH  10  12
HETATM   12  C   UNL     1     -40.551  53.164 -52.513  1.00  0.00    -0.033 A 
HETATM   13  C   UNL     1     -40.700  52.777 -53.851  1.00  0.00     0.028 A 
HETATM   14  C   UNL     1     -40.214  51.542 -54.252  1.00  0.00     0.116 A 
HETATM   15  N   UNL     1     -39.602  50.673 -53.422  1.00  0.00    -0.273 NA
HETATM   16  C   UNL     1     -39.476  51.053 -52.134  1.00  0.00     0.116 A 
HETATM   17  C   UNL     1     -39.927  52.267 -51.638  1.00  0.00     0.028 A 
ENDBRANCH  10  12
ENDBRANCH   7  10
ENDBRANCH   1   6
BRANCH   3  18
HETATM   18  O   UNL     1     -43.100  57.402 -57.850  1.00  0.00    -0.286 OA
BRANCH  18  19
HETATM   19  C   UNL     1     -43.829  56.658 -58.752  1.00  0.00     0.100 A 
HETATM   20  C   UNL     1     -44.875  57.287 -59.437  1.00  0.00     0.068 A 
HETATM   21 CL   UNL     1     -45.198  58.972 -59.237  1.00  0.00    -0.081 Cl
HETATM   22  C   UNL     1     -45.691  56.554 -60.303  1.00  0.00     0.026 A 
HETATM   23  C   UNL     1     -45.472  55.187 -60.480  1.00  0.00     0.002 A 
HETATM   24  C   UNL     1     -44.439  54.553 -59.792  1.00  0.00     0.003 A 
HETATM   25  C   UNL     1     -43.623  55.283 -58.924  1.00  0.00     0.039 A 
ENDBRANCH  18  19
ENDBRANCH   3  18
TORSDOF 5
ENDMDL
MODEL 9
REMARK VINA RESULT:      -7.3      3.679      8.068
REMARK  5 active torsions:
REMARK  status: ('A' for Active; 'I' for Inactive)
REMARK    1  A    between atoms: C_2  and  N_3 
REMARK    2  A    between atoms: C_2  and  C_19 
REMARK       I    between atoms: N_3  and  C_4 
REMARK    3  A    between atoms: C_4  and  C_5 
REMARK    4  A    between atoms: C_7  and  O_8 
REMARK    5  A    between atoms: O_8  and  C_9 
ROOT
HETATM    1  C   UNL     1     -41.736  57.842 -53.500  1.00  0.00     0.146 A 
HETATM    2  O   UNL     1     -42.593  57.548 -54.531  1.00  0.00    -0.282 OA
HETATM    3  C   UNL     1     -42.598  58.631 -55.360  1.00  0.00     0.191 A 
HETATM    4  C   UNL     1     -41.724  59.590 -54.906  1.00  0.00     0.067 A 
HETATM    5  C   UNL     1     -41.195  59.099 -53.690  1.00  0.00     0.048 A 
ENDROOT
BRANCH   1   6
HETATM    6  C   UNL     1     -41.533  56.876 -52.439  1.00  0.00     0.276 C 
HETATM    7  N   UNL     1     -41.873  55.587 -52.778  1.00  0.00    -0.347 N 
HETATM    8  H   UNL     1     -42.245  55.431 -53.708  1.00  0.00     0.163 HD
HETATM    9  O   UNL     1     -41.083  57.174 -51.336  1.00  0.00    -0.265 OA
BRANCH   7  10
HETATM   10  C   UNL     1     -41.785  54.485 -51.842  1.00  0.00     0.114 C 
HETATM   11  C   UNL     1     -43.180  54.038 -51.402  1.00  0.00     0.037 C 
BRANCH  10  12
HETATM   12  C   UNL     1     -40.971  53.356 -52.442  1.00  0.00    -0.033 A 
HETATM   13  C   UNL     1     -40.158  52.569 -51.617  1.00  0.00     0.028 A 
HETATM   14  C   UNL     1     -39.413  51.547 -52.184  1.00  0.00     0.116 A 
HETATM   15  N   UNL     1     -39.416  51.261 -53.502  1.00  0.00    -0.273 NA
HETATM   16  C   UNL     1     -40.193  52.035 -54.287  1.00  0.00     0.116 A 
HETATM   17  C   UNL     1     -40.975  53.078 -53.814  1.00  0.00     0.028 A 
ENDBRANCH  10  12
ENDBRANCH   7  10
ENDBRANCH   1   6
BRANCH   3  18
HETATM   18  O   UNL     1     -43.355  58.556 -56.451  1.00  0.00    -0.286 OA
BRANCH  18  19
HETATM   19  C   UNL     1     -42.969  57.824 -57.553  1.00  0.00     0.100 A 
HETATM   20  C   UNL     1     -42.235  58.471 -58.554  1.00  0.00     0.068 A 
HETATM   21 CL   UNL     1     -41.739  60.116 -58.386  1.00  0.00    -0.081 Cl
HETATM   22  C   UNL     1     -41.890  57.790 -59.724  1.00  0.00     0.026 A 
HETATM   23  C   UNL     1     -42.285  56.464 -59.904  1.00  0.00     0.002 A 
HETATM   24  C   UNL     1     -43.027  55.818 -58.915  1.00  0.00     0.003 A 
HETATM   25  C   UNL     1     -43.374  56.497 -57.745  1.00  0.00     0.039 A 
ENDBRANCH  18  19
ENDBRANCH   3  18
TORSDOF 5
ENDMDL
MODEL 10
REMARK VINA RESULT:      -7.3      1.986      2.922
REMARK  5 active torsions:
REMARK  status: ('A' for Active; 'I' for Inactive)
REMARK    1  A    between atoms: C_2  and  N_3 
REMARK    2  A    between atoms: C_2  and  C_19 
REMARK       I    between atoms: N_3  and  C_4 
REMARK    3  A    between atoms: C_4  and  C_5 
REMARK    4  A    between atoms: C_7  and  O_8 
REMARK    5  A    between atoms: O_8  and  C_9 
ROOT
HETATM    1  C   UNL     1     -42.861  55.225 -55.399  1.00  0.00     0.146 A 
HETATM    2  O   UNL     1     -41.578  54.783 -55.194  1.00  0.00    -0.282 OA
HETATM    3  C   UNL     1     -41.526  54.297 -53.922  1.00  0.00     0.191 A 
HETATM    4  C   UNL     1     -42.762  54.374 -53.325  1.00  0.00     0.067 A 
HETATM    5  C   UNL     1     -43.614  55.004 -54.261  1.00  0.00     0.048 A 
ENDROOT
BRANCH   1   6
HETATM    6  C   UNL     1     -43.223  55.817 -56.671  1.00  0.00     0.276 C 
HETATM    7  N   UNL     1     -43.949  56.980 -56.565  1.00  0.00    -0.347 N 
HETATM    8  H   UNL     1     -44.179  57.304 -55.632  1.00  0.00     0.163 HD
HETATM    9  O   UNL     1     -42.900  55.334 -57.752  1.00  0.00    -0.265 OA
BRANCH   7  10
HETATM   10  C   UNL     1     -44.443  57.700 -57.720  1.00  0.00     0.114 C 
HETATM   11  C   UNL     1     -45.844  58.252 -57.453  1.00  0.00     0.037 C 
BRANCH  10  12
HETATM   12  C   UNL     1     -43.456  58.777 -58.124  1.00  0.00    -0.033 A 
HETATM   13  C   UNL     1     -43.451  59.258 -59.440  1.00  0.00     0.028 A 
HETATM   14  C   UNL     1     -42.535  60.236 -59.794  1.00  0.00     0.116 A 
HETATM   15  N   UNL     1     -41.630  60.760 -58.941  1.00  0.00    -0.273 NA
HETATM   16  C   UNL     1     -41.638  60.278 -57.681  1.00  0.00     0.116 A 
HETATM   17  C   UNL     1     -42.515  59.302 -57.231  1.00  0.00     0.028 A 
ENDBRANCH  10  12
ENDBRANCH   7  10
ENDBRANCH   1   6
BRANCH   3  18
HETATM   18  O   UNL     1     -40.366  53.791 -53.513  1.00  0.00    -0.286 OA
BRANCH  18  19
HETATM   19  C   UNL     1     -40.190  52.437 -53.328  1.00  0.00     0.100 A 
HETATM   20  C   UNL     1     -39.813  51.985 -52.058  1.00  0.00     0.068 A 
HETATM   21 CL   UNL     1     -39.658  53.072 -50.725  1.00  0.00    -0.081 Cl
HETATM   22  C   UNL     1     -39.546  50.631 -51.843  1.00  0.00     0.026 A 
HETATM   23  C   UNL     1     -39.645  49.723 -52.899  1.00  0.00     0.002 A 
HETATM   24  C   UNL     1     -40.009  50.169 -54.169  1.00  0.00     0.003 A 
HETATM   25  C   UNL     1     -40.274  51.523 -54.386  1.00  0.00     0.039 A 
ENDBRANCH  18  19
ENDBRANCH   3  18
TORSDOF 5
ENDMDL
