MODEL 1
REMARK VINA RESULT:      -8.5      0.000      0.000
REMARK  3 active torsions:
REMARK  status: ('A' for Active; 'I' for Inactive)
REMARK    1  A    between atoms: C_2  and  O_3 
REMARK    2  A    between atoms: O_3  and  C_4 
REMARK    3  A    between atoms: C_8  and  N_9 
REMARK       I    between atoms: N_9  and  C_10 
REMARK       I    between atoms: C_10  and  N_11 
ROOT
HETATM    1  N   UNL     1     -42.402  55.065 -56.601  1.00  0.00    -0.309 N 
HETATM    2  C   UNL     1     -42.964  56.304 -56.804  1.00  0.00     0.323 C 
HETATM    3  N   UNL     1     -43.596  56.483 -58.033  1.00  0.00    -0.328 N 
HETATM    4  C   UNL     1     -44.062  57.852 -58.318  1.00  0.00     0.185 C 
HETATM    5  C   UNL     1     -45.200  57.809 -59.274  1.00  0.00     0.035 A 
HETATM    6  C   UNL     1     -45.681  56.709 -59.950  1.00  0.00    -0.020 A 
HETATM    7  C   UNL     1     -45.078  55.368 -59.751  1.00  0.00     0.061 C 
HETATM    8  C   UNL     1     -43.663  55.509 -59.151  1.00  0.00     0.132 C 
HETATM    9  N   UNL     1     -45.965  58.888 -59.623  1.00  0.00    -0.357 N 
HETATM   10  H   UNL     1     -45.854  59.828 -59.270  1.00  0.00     0.166 HD
HETATM   11  C   UNL     1     -46.935  58.502 -60.524  1.00  0.00     0.043 A 
HETATM   12  C   UNL     1     -46.777  57.130 -60.748  1.00  0.00    -0.001 A 
HETATM   13  C   UNL     1     -47.938  59.255 -61.146  1.00  0.00     0.030 A 
HETATM   14  C   UNL     1     -48.801  58.589 -62.022  1.00  0.00     0.002 A 
HETATM   15  C   UNL     1     -48.666  57.224 -62.263  1.00  0.00     0.001 A 
HETATM   16  C   UNL     1     -47.659  56.483 -61.634  1.00  0.00     0.014 A 
HETATM   17  O   UNL     1     -42.929  57.210 -55.972  1.00  0.00    -0.247 OA
HETATM   18  H   UNL     1     -42.141  54.554 -57.426  1.00  0.00     0.170 HD
ENDROOT
BRANCH   1  19
HETATM   19  C   UNL     1     -41.925  54.531 -55.384  1.00  0.00     0.038 A 
HETATM   20  C   UNL     1     -42.673  54.474 -54.209  1.00  0.00     0.056 A 
HETATM   21  C   UNL     1     -42.134  53.896 -53.052  1.00  0.00     0.069 A 
HETATM   22  C   UNL     1     -40.843  53.346 -53.055  1.00  0.00     0.090 A 
HETATM   23 CL   UNL     1     -43.118  53.860 -51.628  1.00  0.00    -0.081 Cl
HETATM   24  C   UNL     1     -40.094  53.406 -54.231  1.00  0.00     0.041 A 
HETATM   25  C   UNL     1     -40.633  53.991 -55.385  1.00  0.00     0.032 A 
BRANCH  22  26
HETATM   26  O   UNL     1     -40.398  52.794 -51.883  1.00  0.00    -0.350 OA
BRANCH  26  27
HETATM   27  C   UNL     1     -39.470  51.715 -51.970  1.00  0.00     0.171 C 
HETATM   28  C   UNL     1     -39.835  50.699 -50.902  1.00  0.00     0.034 C 
ENDBRANCH  26  27
ENDBRANCH  22  26
ENDBRANCH   1  19
TORSDOF 3
ENDMDL
MODEL 2
REMARK VINA RESULT:      -8.0      6.829     10.372
REMARK  3 active torsions:
REMARK  status: ('A' for Active; 'I' for Inactive)
REMARK    1  A    between atoms: C_2  and  O_3 
REMARK    2  A    between atoms: O_3  and  C_4 
REMARK    3  A    between atoms: C_8  and  N_9 
REMARK       I    between atoms: N_9  and  C_10 
REMARK       I    between atoms: C_10  and  N_11 
ROOT
HETATM    1  N   UNL     1     -42.535  57.946 -51.119  1.00  0.00    -0.309 N 
HETATM    2  C   UNL     1     -42.235  57.198 -52.234  1.00  0.00     0.323 C 
HETATM    3  N   UNL     1     -41.385  56.115 -52.021  1.00  0.00    -0.328 N 
HETATM    4  C   UNL     1     -40.937  55.406 -53.232  1.00  0.00     0.185 C 
HETATM    5  C   UNL     1     -40.596  53.998 -52.896  1.00  0.00     0.035 A 
HETATM    6  C   UNL     1     -40.530  53.433 -51.641  1.00  0.00    -0.020 A 
HETATM    7  C   UNL     1     -40.838  54.229 -50.429  1.00  0.00     0.061 C 
HETATM    8  C   UNL     1     -40.730  55.736 -50.744  1.00  0.00     0.132 C 
HETATM    9  N   UNL     1     -40.300  53.029 -53.814  1.00  0.00    -0.357 N 
HETATM   10  H   UNL     1     -40.287  53.150 -54.817  1.00  0.00     0.166 HD
HETATM   11  C   UNL     1     -40.036  51.839 -53.168  1.00  0.00     0.043 A 
HETATM   12  C   UNL     1     -40.174  52.067 -51.796  1.00  0.00    -0.001 A 
HETATM   13  C   UNL     1     -39.698  50.585 -53.693  1.00  0.00     0.030 A 
HETATM   14  C   UNL     1     -39.491  49.538 -52.789  1.00  0.00     0.002 A 
HETATM   15  C   UNL     1     -39.621  49.738 -51.417  1.00  0.00     0.001 A 
HETATM   16  C   UNL     1     -39.961  50.996 -50.907  1.00  0.00     0.014 A 
HETATM   17  O   UNL     1     -42.677  57.444 -53.355  1.00  0.00    -0.247 OA
HETATM   18  H   UNL     1     -41.863  57.922 -50.373  1.00  0.00     0.170 HD
ENDROOT
BRANCH   1  19
HETATM   19  C   UNL     1     -43.542  58.928 -50.993  1.00  0.00     0.038 A 
HETATM   20  C   UNL     1     -43.290  60.282 -50.777  1.00  0.00     0.056 A 
HETATM   21  C   UNL     1     -44.348  61.197 -50.697  1.00  0.00     0.069 A 
HETATM   22  C   UNL     1     -45.678  60.777 -50.851  1.00  0.00     0.090 A 
HETATM   23 CL   UNL     1     -43.963  62.863 -50.425  1.00  0.00    -0.081 Cl
HETATM   24  C   UNL     1     -45.929  59.421 -51.063  1.00  0.00     0.041 A 
HETATM   25  C   UNL     1     -44.869  58.507 -51.137  1.00  0.00     0.032 A 
BRANCH  22  26
HETATM   26  O   UNL     1     -46.650  61.739 -50.765  1.00  0.00    -0.350 OA
BRANCH  26  27
HETATM   27  C   UNL     1     -47.215  62.218 -51.983  1.00  0.00     0.171 C 
HETATM   28  C   UNL     1     -47.226  63.735 -51.926  1.00  0.00     0.034 C 
ENDBRANCH  26  27
ENDBRANCH  22  26
ENDBRANCH   1  19
TORSDOF 3
ENDMDL
MODEL 3
REMARK VINA RESULT:      -7.7      3.080      4.137
REMARK  3 active torsions:
REMARK  status: ('A' for Active; 'I' for Inactive)
REMARK    1  A    between atoms: C_2  and  O_3 
REMARK    2  A    between atoms: O_3  and  C_4 
REMARK    3  A    between atoms: C_8  and  N_9 
REMARK       I    between atoms: N_9  and  C_10 
REMARK       I    between atoms: C_10  and  N_11 
ROOT
HETATM    1  N   UNL     1     -42.081  56.655 -55.522  1.00  0.00    -0.309 N 
HETATM    2  C   UNL     1     -42.617  56.645 -56.789  1.00  0.00     0.323 C 
HETATM    3  N   UNL     1     -42.704  57.887 -57.415  1.00  0.00    -0.328 N 
HETATM    4  C   UNL     1     -43.418  57.904 -58.704  1.00  0.00     0.185 C 
HETATM    5  C   UNL     1     -42.933  59.039 -59.534  1.00  0.00     0.035 A 
HETATM    6  C   UNL     1     -42.075  60.046 -59.151  1.00  0.00    -0.020 A 
HETATM    7  C   UNL     1     -41.498  60.077 -57.785  1.00  0.00     0.061 C 
HETATM    8  C   UNL     1     -42.342  59.204 -56.833  1.00  0.00     0.132 C 
HETATM    9  N   UNL     1     -43.272  59.246 -60.843  1.00  0.00    -0.357 N 
HETATM   10  H   UNL     1     -43.877  58.655 -61.396  1.00  0.00     0.166 HD
HETATM   11  C   UNL     1     -42.647  60.381 -61.314  1.00  0.00     0.043 A 
HETATM   12  C   UNL     1     -41.885  60.906 -60.265  1.00  0.00    -0.001 A 
HETATM   13  C   UNL     1     -42.690  60.974 -62.581  1.00  0.00     0.030 A 
HETATM   14  C   UNL     1     -41.938  62.135 -62.781  1.00  0.00     0.002 A 
HETATM   15  C   UNL     1     -41.171  62.680 -61.753  1.00  0.00     0.001 A 
HETATM   16  C   UNL     1     -41.136  62.076 -60.492  1.00  0.00     0.014 A 
HETATM   17  O   UNL     1     -42.999  55.622 -57.356  1.00  0.00    -0.247 OA
HETATM   18  H   UNL     1     -42.161  57.516 -55.011  1.00  0.00     0.170 HD
ENDROOT
BRANCH   1  19
HETATM   19  C   UNL     1     -41.653  55.542 -54.765  1.00  0.00     0.038 A 
HETATM   20  C   UNL     1     -42.216  55.163 -53.548  1.00  0.00     0.056 A 
HETATM   21  C   UNL     1     -41.754  54.023 -52.876  1.00  0.00     0.069 A 
HETATM   22  C   UNL     1     -40.732  53.231 -53.420  1.00  0.00     0.090 A 
HETATM   23 CL   UNL     1     -42.497  53.611 -51.368  1.00  0.00    -0.081 Cl
HETATM   24  C   UNL     1     -40.166  53.614 -54.638  1.00  0.00     0.041 A 
HETATM   25  C   UNL     1     -40.627  54.757 -55.304  1.00  0.00     0.032 A 
BRANCH  22  26
HETATM   26  O   UNL     1     -40.346  52.131 -52.701  1.00  0.00    -0.350 OA
BRANCH  26  27
HETATM   27  C   UNL     1     -39.391  51.254 -53.295  1.00  0.00     0.171 C 
HETATM   28  C   UNL     1     -40.151  50.192 -54.069  1.00  0.00     0.034 C 
ENDBRANCH  26  27
ENDBRANCH  22  26
ENDBRANCH   1  19
TORSDOF 3
ENDMDL
MODEL 4
REMARK VINA RESULT:      -7.7      4.963      9.727
REMARK  3 active torsions:
REMARK  status: ('A' for Active; 'I' for Inactive)
REMARK    1  A    between atoms: C_2  and  O_3 
REMARK    2  A    between atoms: O_3  and  C_4 
REMARK    3  A    between atoms: C_8  and  N_9 
REMARK       I    between atoms: N_9  and  C_10 
REMARK       I    between atoms: C_10  and  N_11 
ROOT
HETATM    1  N   UNL     1     -42.581  58.332 -56.040  1.00  0.00    -0.309 N 
HETATM    2  C   UNL     1     -42.075  57.962 -54.815  1.00  0.00     0.323 C 
HETATM    3  N   UNL     1     -42.132  56.600 -54.528  1.00  0.00    -0.328 N 
HETATM    4  C   UNL     1     -41.737  56.218 -53.161  1.00  0.00     0.185 C 
HETATM    5  C   UNL     1     -41.245  54.815 -53.151  1.00  0.00     0.035 A 
HETATM    6  C   UNL     1     -41.284  53.910 -54.188  1.00  0.00    -0.020 A 
HETATM    7  C   UNL     1     -41.838  54.289 -55.510  1.00  0.00     0.061 C 
HETATM    8  C   UNL     1     -42.736  55.537 -55.370  1.00  0.00     0.132 C 
HETATM    9  N   UNL     1     -40.655  54.205 -52.078  1.00  0.00    -0.357 N 
HETATM   10  H   UNL     1     -40.477  54.633 -51.180  1.00  0.00     0.166 HD
HETATM   11  C   UNL     1     -40.315  52.909 -52.406  1.00  0.00     0.043 A 
HETATM   12  C   UNL     1     -40.702  52.697 -53.733  1.00  0.00    -0.001 A 
HETATM   13  C   UNL     1     -39.690  51.920 -51.637  1.00  0.00     0.030 A 
HETATM   14  C   UNL     1     -39.458  50.679 -52.240  1.00  0.00     0.002 A 
HETATM   15  C   UNL     1     -39.834  50.441 -53.560  1.00  0.00     0.001 A 
HETATM   16  C   UNL     1     -40.456  51.440 -54.317  1.00  0.00     0.014 A 
HETATM   17  O   UNL     1     -41.594  58.759 -54.011  1.00  0.00    -0.247 OA
HETATM   18  H   UNL     1     -43.272  57.721 -56.439  1.00  0.00     0.170 HD
ENDROOT
BRANCH   1  19
HETATM   19  C   UNL     1     -42.432  59.578 -56.686  1.00  0.00     0.038 A 
HETATM   20  C   UNL     1     -42.974  60.773 -56.214  1.00  0.00     0.056 A 
HETATM   21  C   UNL     1     -42.750  61.974 -56.900  1.00  0.00     0.069 A 
HETATM   22  C   UNL     1     -41.964  62.005 -58.061  1.00  0.00     0.090 A 
HETATM   23 CL   UNL     1     -43.454  63.420 -56.257  1.00  0.00    -0.081 Cl
HETATM   24  C   UNL     1     -41.426  60.808 -58.536  1.00  0.00     0.041 A 
HETATM   25  C   UNL     1     -41.656  59.608 -57.851  1.00  0.00     0.032 A 
BRANCH  22  26
HETATM   26  O   UNL     1     -41.791  63.223 -58.665  1.00  0.00    -0.350 OA
BRANCH  26  27
HETATM   27  C   UNL     1     -40.559  63.903 -58.441  1.00  0.00     0.171 C 
HETATM   28  C   UNL     1     -39.703  63.738 -59.684  1.00  0.00     0.034 C 
ENDBRANCH  26  27
ENDBRANCH  22  26
ENDBRANCH   1  19
TORSDOF 3
ENDMDL
MODEL 5
REMARK VINA RESULT:      -7.5      3.561      9.778
REMARK  3 active torsions:
REMARK  status: ('A' for Active; 'I' for Inactive)
REMARK    1  A    between atoms: C_2  and  O_3 
REMARK    2  A    between atoms: O_3  and  C_4 
REMARK    3  A    between atoms: C_8  and  N_9 
REMARK       I    between atoms: N_9  and  C_10 
REMARK       I    between atoms: C_10  and  N_11 
ROOT
HETATM    1  N   UNL     1     -43.860  56.636 -56.837  1.00  0.00    -0.309 N 
HETATM    2  C   UNL     1     -43.835  57.113 -55.547  1.00  0.00     0.323 C 
HETATM    3  N   UNL     1     -43.614  56.158 -54.557  1.00  0.00    -0.328 N 
HETATM    4  C   UNL     1     -43.741  56.636 -53.169  1.00  0.00     0.185 C 
HETATM    5  C   UNL     1     -42.918  55.787 -52.266  1.00  0.00     0.035 A 
HETATM    6  C   UNL     1     -42.254  54.625 -52.589  1.00  0.00    -0.020 A 
HETATM    7  C   UNL     1     -42.281  54.091 -53.973  1.00  0.00     0.061 C 
HETATM    8  C   UNL     1     -43.471  54.693 -54.749  1.00  0.00     0.132 C 
HETATM    9  N   UNL     1     -42.688  56.053 -50.944  1.00  0.00    -0.357 N 
HETATM   10  H   UNL     1     -43.038  56.853 -50.433  1.00  0.00     0.166 HD
HETATM   11  C   UNL     1     -41.884  55.072 -50.403  1.00  0.00     0.043 A 
HETATM   12  C   UNL     1     -41.596  54.158 -51.421  1.00  0.00    -0.001 A 
HETATM   13  C   UNL     1     -41.387  54.931 -49.102  1.00  0.00     0.030 A 
HETATM   14  C   UNL     1     -40.576  53.824 -48.833  1.00  0.00     0.002 A 
HETATM   15  C   UNL     1     -40.273  52.898 -49.829  1.00  0.00     0.001 A 
HETATM   16  C   UNL     1     -40.776  53.052 -51.125  1.00  0.00     0.014 A 
HETATM   17  O   UNL     1     -43.991  58.299 -55.259  1.00  0.00    -0.247 OA
HETATM   18  H   UNL     1     -44.109  55.669 -56.949  1.00  0.00     0.170 HD
ENDROOT
BRANCH   1  19
HETATM   19  C   UNL     1     -43.819  57.390 -58.029  1.00  0.00     0.038 A 
HETATM   20  C   UNL     1     -44.949  57.869 -58.691  1.00  0.00     0.056 A 
HETATM   21  C   UNL     1     -44.817  58.640 -59.853  1.00  0.00     0.069 A 
HETATM   22  C   UNL     1     -43.552  58.963 -60.365  1.00  0.00     0.090 A 
HETATM   23 CL   UNL     1     -46.263  59.200 -60.624  1.00  0.00    -0.081 Cl
HETATM   24  C   UNL     1     -42.421  58.481 -59.704  1.00  0.00     0.041 A 
HETATM   25  C   UNL     1     -42.556  57.705 -58.545  1.00  0.00     0.032 A 
BRANCH  22  26
HETATM   26  O   UNL     1     -43.515  59.728 -61.501  1.00  0.00    -0.350 OA
BRANCH  26  27
HETATM   27  C   UNL     1     -42.613  60.831 -61.527  1.00  0.00     0.171 C 
HETATM   28  C   UNL     1     -43.255  61.976 -60.762  1.00  0.00     0.034 C 
ENDBRANCH  26  27
ENDBRANCH  22  26
ENDBRANCH   1  19
TORSDOF 3
ENDMDL
MODEL 6
REMARK VINA RESULT:      -7.5      3.386      9.961
REMARK  3 active torsions:
REMARK  status: ('A' for Active; 'I' for Inactive)
REMARK    1  A    between atoms: C_2  and  O_3 
REMARK    2  A    between atoms: O_3  and  C_4 
REMARK    3  A    between atoms: C_8  and  N_9 
REMARK       I    between atoms: N_9  and  C_10 
REMARK       I    between atoms: C_10  and  N_11 
ROOT
HETATM    1  N   UNL     1     -42.541  57.366 -55.379  1.00  0.00    -0.309 N 
HETATM    2  C   UNL     1     -42.095  56.134 -55.797  1.00  0.00     0.323 C 
HETATM    3  N   UNL     1     -41.325  55.428 -54.875  1.00  0.00    -0.328 N 
HETATM    4  C   UNL     1     -40.717  54.182 -55.372  1.00  0.00     0.185 C 
HETATM    5  C   UNL     1     -40.480  53.249 -54.238  1.00  0.00     0.035 A 
HETATM    6  C   UNL     1     -40.628  53.514 -52.895  1.00  0.00    -0.020 A 
HETATM    7  C   UNL     1     -41.096  54.842 -52.427  1.00  0.00     0.061 C 
HETATM    8  C   UNL     1     -40.889  55.896 -53.535  1.00  0.00     0.132 C 
HETATM    9  N   UNL     1     -40.076  51.949 -54.372  1.00  0.00    -0.357 N 
HETATM   10  H   UNL     1     -39.903  51.471 -55.246  1.00  0.00     0.166 HD
HETATM   11  C   UNL     1     -39.955  51.367 -53.127  1.00  0.00     0.043 A 
HETATM   12  C   UNL     1     -40.298  52.335 -52.177  1.00  0.00    -0.001 A 
HETATM   13  C   UNL     1     -39.581  50.065 -52.774  1.00  0.00     0.030 A 
HETATM   14  C   UNL     1     -39.553  49.744 -51.413  1.00  0.00     0.002 A 
HETATM   15  C   UNL     1     -39.888  50.689 -50.446  1.00  0.00     0.001 A 
HETATM   16  C   UNL     1     -40.262  51.986 -50.813  1.00  0.00     0.014 A 
HETATM   17  O   UNL     1     -42.348  55.661 -56.904  1.00  0.00    -0.247 OA
HETATM   18  H   UNL     1     -41.994  57.819 -54.667  1.00  0.00     0.170 HD
ENDROOT
BRANCH   1  19
HETATM   19  C   UNL     1     -43.522  58.176 -55.992  1.00  0.00     0.038 A 
HETATM   20  C   UNL     1     -43.239  59.182 -56.915  1.00  0.00     0.056 A 
HETATM   21  C   UNL     1     -44.277  59.917 -57.503  1.00  0.00     0.069 A 
HETATM   22  C   UNL     1     -45.618  59.647 -57.193  1.00  0.00     0.090 A 
HETATM   23 CL   UNL     1     -43.854  61.152 -58.640  1.00  0.00    -0.081 Cl
HETATM   24  C   UNL     1     -45.899  58.642 -56.265  1.00  0.00     0.041 A 
HETATM   25  C   UNL     1     -44.859  57.912 -55.674  1.00  0.00     0.032 A 
BRANCH  22  26
HETATM   26  O   UNL     1     -46.569  60.409 -57.818  1.00  0.00    -0.350 OA
BRANCH  26  27
HETATM   27  C   UNL     1     -47.736  59.746 -58.299  1.00  0.00     0.171 C 
HETATM   28  C   UNL     1     -47.434  59.223 -59.692  1.00  0.00     0.034 C 
ENDBRANCH  26  27
ENDBRANCH  22  26
ENDBRANCH   1  19
TORSDOF 3
ENDMDL
MODEL 7
REMARK VINA RESULT:      -7.5      3.959      9.843
REMARK  3 active torsions:
REMARK  status: ('A' for Active; 'I' for Inactive)
REMARK    1  A    between atoms: C_2  and  O_3 
REMARK    2  A    between atoms: O_3  and  C_4 
REMARK    3  A    between atoms: C_8  and  N_9 
REMARK       I    between atoms: N_9  and  C_10 
REMARK       I    between atoms: C_10  and  N_11 
ROOT
HETATM    1  N   UNL     1     -42.889  57.704 -57.029  1.00  0.00    -0.309 N 
HETATM    2  C   UNL     1     -42.960  57.570 -55.661  1.00  0.00     0.323 C 
HETATM    3  N   UNL     1     -42.739  56.284 -55.172  1.00  0.00    -0.328 N 
HETATM    4  C   UNL     1     -42.967  56.103 -53.728  1.00  0.00     0.185 C 
HETATM    5  C   UNL     1     -42.147  54.968 -53.226  1.00  0.00     0.035 A 
HETATM    6  C   UNL     1     -41.402  54.083 -53.973  1.00  0.00    -0.020 A 
HETATM    7  C   UNL     1     -41.324  54.207 -55.449  1.00  0.00     0.061 C 
HETATM    8  C   UNL     1     -42.504  55.055 -55.971  1.00  0.00     0.132 C 
HETATM    9  N   UNL     1     -42.003  54.635 -51.907  1.00  0.00    -0.357 N 
HETATM   10  H   UNL     1     -42.424  55.121 -51.126  1.00  0.00     0.166 HD
HETATM   11  C   UNL     1     -41.175  53.538 -51.789  1.00  0.00     0.043 A 
HETATM   12  C   UNL     1     -40.782  53.170 -53.079  1.00  0.00    -0.001 A 
HETATM   13  C   UNL     1     -40.741  52.856 -50.646  1.00  0.00     0.030 A 
HETATM   14  C   UNL     1     -39.884  51.766 -50.827  1.00  0.00     0.002 A 
HETATM   15  C   UNL     1     -39.477  51.377 -52.101  1.00  0.00     0.001 A 
HETATM   16  C   UNL     1     -39.918  52.069 -53.235  1.00  0.00     0.014 A 
HETATM   17  O   UNL     1     -43.198  58.505 -54.899  1.00  0.00    -0.247 OA
HETATM   18  H   UNL     1     -43.077  56.877 -57.568  1.00  0.00     0.170 HD
ENDROOT
BRANCH   1  19
HETATM   19  C   UNL     1     -42.827  58.905 -57.769  1.00  0.00     0.038 A 
HETATM   20  C   UNL     1     -41.741  59.780 -57.748  1.00  0.00     0.056 A 
HETATM   21  C   UNL     1     -41.747  60.936 -58.540  1.00  0.00     0.069 A 
HETATM   22  C   UNL     1     -42.830  61.228 -59.382  1.00  0.00     0.090 A 
HETATM   23 CL   UNL     1     -40.367  61.979 -58.464  1.00  0.00    -0.081 Cl
HETATM   24  C   UNL     1     -43.918  60.354 -59.399  1.00  0.00     0.041 A 
HETATM   25  C   UNL     1     -43.912  59.202 -58.601  1.00  0.00     0.032 A 
BRANCH  22  26
HETATM   26  O   UNL     1     -42.749  62.375 -60.127  1.00  0.00    -0.350 OA
BRANCH  26  27
HETATM   27  C   UNL     1     -43.099  62.294 -61.506  1.00  0.00     0.171 C 
HETATM   28  C   UNL     1     -41.912  61.715 -62.254  1.00  0.00     0.034 C 
ENDBRANCH  26  27
ENDBRANCH  22  26
ENDBRANCH   1  19
TORSDOF 3
ENDMDL
MODEL 8
REMARK VINA RESULT:      -7.3      6.810      8.680
REMARK  3 active torsions:
REMARK  status: ('A' for Active; 'I' for Inactive)
REMARK    1  A    between atoms: C_2  and  O_3 
REMARK    2  A    between atoms: O_3  and  C_4 
REMARK    3  A    between atoms: C_8  and  N_9 
REMARK       I    between atoms: N_9  and  C_10 
REMARK       I    between atoms: C_10  and  N_11 
ROOT
HETATM    1  N   UNL     1     -42.569  56.846 -51.903  1.00  0.00    -0.309 N 
HETATM    2  C   UNL     1     -42.033  58.091 -51.668  1.00  0.00     0.323 C 
HETATM    3  N   UNL     1     -42.957  59.115 -51.472  1.00  0.00    -0.328 N 
HETATM    4  C   UNL     1     -42.394  60.473 -51.376  1.00  0.00     0.185 C 
HETATM    5  C   UNL     1     -43.304  61.342 -50.584  1.00  0.00     0.035 A 
HETATM    6  C   UNL     1     -44.566  61.032 -50.128  1.00  0.00    -0.020 A 
HETATM    7  C   UNL     1     -45.163  59.698 -50.384  1.00  0.00     0.061 C 
HETATM    8  C   UNL     1     -44.435  59.010 -51.558  1.00  0.00     0.132 C 
HETATM    9  N   UNL     1     -43.006  62.612 -50.173  1.00  0.00    -0.357 N 
HETATM   10  H   UNL     1     -42.138  63.101 -50.348  1.00  0.00     0.166 HD
HETATM   11  C   UNL     1     -44.064  63.133 -49.458  1.00  0.00     0.043 A 
HETATM   12  C   UNL     1     -45.063  62.155 -49.415  1.00  0.00    -0.001 A 
HETATM   13  C   UNL     1     -44.208  64.382 -48.842  1.00  0.00     0.030 A 
HETATM   14  C   UNL     1     -45.405  64.640 -48.169  1.00  0.00     0.002 A 
HETATM   15  C   UNL     1     -46.417  63.684 -48.111  1.00  0.00     0.001 A 
HETATM   16  C   UNL     1     -46.259  62.439 -48.730  1.00  0.00     0.014 A 
HETATM   17  O   UNL     1     -40.824  58.312 -51.624  1.00  0.00    -0.247 OA
HETATM   18  H   UNL     1     -43.493  56.826 -52.296  1.00  0.00     0.170 HD
ENDROOT
BRANCH   1  19
HETATM   19  C   UNL     1     -41.892  55.607 -51.890  1.00  0.00     0.038 A 
HETATM   20  C   UNL     1     -41.405  54.971 -53.032  1.00  0.00     0.056 A 
HETATM   21  C   UNL     1     -40.714  53.757 -52.927  1.00  0.00     0.069 A 
HETATM   22  C   UNL     1     -40.480  53.165 -51.676  1.00  0.00     0.090 A 
HETATM   23 CL   UNL     1     -40.138  53.021 -54.385  1.00  0.00    -0.081 Cl
HETATM   24  C   UNL     1     -40.971  53.801 -50.535  1.00  0.00     0.041 A 
HETATM   25  C   UNL     1     -41.667  55.012 -50.643  1.00  0.00     0.032 A 
BRANCH  22  26
HETATM   26  O   UNL     1     -39.789  51.982 -51.665  1.00  0.00    -0.350 OA
BRANCH  26  27
HETATM   27  C   UNL     1     -40.056  51.071 -50.602  1.00  0.00     0.171 C 
HETATM   28  C   UNL     1     -39.672  49.680 -51.073  1.00  0.00     0.034 C 
ENDBRANCH  26  27
ENDBRANCH  22  26
ENDBRANCH   1  19
TORSDOF 3
ENDMDL
MODEL 9
REMARK VINA RESULT:      -7.3     16.388     20.181
REMARK  3 active torsions:
REMARK  status: ('A' for Active; 'I' for Inactive)
REMARK    1  A    between atoms: C_2  and  O_3 
REMARK    2  A    between atoms: O_3  and  C_4 
REMARK    3  A    between atoms: C_8  and  N_9 
REMARK       I    between atoms: N_9  and  C_10 
REMARK       I    between atoms: C_10  and  N_11 
ROOT
HETATM    1  N   UNL     1     -36.512  40.973 -55.622  1.00  0.00    -0.309 N 
HETATM    2  C   UNL     1     -35.265  41.051 -55.045  1.00  0.00     0.323 C 
HETATM    3  N   UNL     1     -35.237  40.931 -53.657  1.00  0.00    -0.328 N 
HETATM    4  C   UNL     1     -33.928  41.169 -53.022  1.00  0.00     0.185 C 
HETATM    5  C   UNL     1     -33.856  40.441 -51.727  1.00  0.00     0.035 A 
HETATM    6  C   UNL     1     -34.876  39.771 -51.089  1.00  0.00    -0.020 A 
HETATM    7  C   UNL     1     -36.229  39.688 -51.692  1.00  0.00     0.061 C 
HETATM    8  C   UNL     1     -36.405  40.797 -52.750  1.00  0.00     0.132 C 
HETATM    9  N   UNL     1     -32.727  40.320 -50.965  1.00  0.00    -0.357 N 
HETATM   10  H   UNL     1     -31.818  40.699 -51.192  1.00  0.00     0.166 HD
HETATM   11  C   UNL     1     -33.004  39.582 -49.833  1.00  0.00     0.043 A 
HETATM   12  C   UNL     1     -34.355  39.223 -49.887  1.00  0.00    -0.001 A 
HETATM   13  C   UNL     1     -32.166  39.200 -48.779  1.00  0.00     0.030 A 
HETATM   14  C   UNL     1     -32.724  38.434 -47.751  1.00  0.00     0.002 A 
HETATM   15  C   UNL     1     -34.066  38.063 -47.779  1.00  0.00     0.001 A 
HETATM   16  C   UNL     1     -34.892  38.450 -48.840  1.00  0.00     0.014 A 
HETATM   17  O   UNL     1     -34.229  41.211 -55.688  1.00  0.00    -0.247 OA
HETATM   18  H   UNL     1     -37.289  41.228 -55.038  1.00  0.00     0.170 HD
ENDROOT
BRANCH   1  19
HETATM   19  C   UNL     1     -36.812  40.817 -56.993  1.00  0.00     0.038 A 
HETATM   20  C   UNL     1     -36.934  41.876 -57.891  1.00  0.00     0.056 A 
HETATM   21  C   UNL     1     -37.202  41.631 -59.244  1.00  0.00     0.069 A 
HETATM   22  C   UNL     1     -37.334  40.320 -59.728  1.00  0.00     0.090 A 
HETATM   23 CL   UNL     1     -37.341  42.993 -60.304  1.00  0.00    -0.081 Cl
HETATM   24  C   UNL     1     -37.216  39.261 -58.827  1.00  0.00     0.041 A 
HETATM   25  C   UNL     1     -36.954  39.510 -57.472  1.00  0.00     0.032 A 
BRANCH  22  26
HETATM   26  O   UNL     1     -37.588  40.172 -61.066  1.00  0.00    -0.350 OA
BRANCH  26  27
HETATM   27  C   UNL     1     -37.912  38.866 -61.536  1.00  0.00     0.171 C 
HETATM   28  C   UNL     1     -37.250  38.680 -62.890  1.00  0.00     0.034 C 
ENDBRANCH  26  27
ENDBRANCH  22  26
ENDBRANCH   1  19
TORSDOF 3
ENDMDL
MODEL 10
REMARK VINA RESULT:      -7.2      3.144      9.988
REMARK  3 active torsions:
REMARK  status: ('A' for Active; 'I' for Inactive)
REMARK    1  A    between atoms: C_2  and  O_3 
REMARK    2  A    between atoms: O_3  and  C_4 
REMARK    3  A    between atoms: C_8  and  N_9 
REMARK       I    between atoms: N_9  and  C_10 
REMARK       I    between atoms: C_10  and  N_11 
ROOT
HETATM    1  N   UNL     1     -43.264  57.438 -56.764  1.00  0.00    -0.309 N 
HETATM    2  C   UNL     1     -42.802  56.190 -56.412  1.00  0.00     0.323 C 
HETATM    3  N   UNL     1     -42.065  56.133 -55.231  1.00  0.00    -0.328 N 
HETATM    4  C   UNL     1     -41.439  54.834 -54.932  1.00  0.00     0.185 C 
HETATM    5  C   UNL     1     -41.242  54.695 -53.464  1.00  0.00     0.035 A 
HETATM    6  C   UNL     1     -41.439  55.659 -52.501  1.00  0.00    -0.020 A 
HETATM    7  C   UNL     1     -41.924  57.013 -52.865  1.00  0.00     0.061 C 
HETATM    8  C   UNL     1     -41.679  57.276 -54.366  1.00  0.00     0.132 C 
HETATM    9  N   UNL     1     -40.832  53.549 -52.839  1.00  0.00    -0.357 N 
HETATM   10  H   UNL     1     -40.627  52.670 -53.293  1.00  0.00     0.166 HD
HETATM   11  C   UNL     1     -40.756  53.761 -51.478  1.00  0.00     0.043 A 
HETATM   12  C   UNL     1     -41.134  55.086 -51.238  1.00  0.00    -0.001 A 
HETATM   13  C   UNL     1     -40.394  52.884 -50.449  1.00  0.00     0.030 A 
HETATM   14  C   UNL     1     -40.415  53.375 -49.140  1.00  0.00     0.002 A 
HETATM   15  C   UNL     1     -40.786  54.691 -48.873  1.00  0.00     0.001 A 
HETATM   16  C   UNL     1     -41.148  55.556 -49.911  1.00  0.00     0.014 A 
HETATM   17  O   UNL     1     -43.015  55.176 -57.075  1.00  0.00    -0.247 OA
HETATM   18  H   UNL     1     -42.743  58.221 -56.410  1.00  0.00     0.170 HD
ENDROOT
BRANCH   1  19
HETATM   19  C   UNL     1     -44.223  57.748 -57.753  1.00  0.00     0.038 A 
HETATM   20  C   UNL     1     -45.471  58.308 -57.483  1.00  0.00     0.056 A 
HETATM   21  C   UNL     1     -46.351  58.617 -58.528  1.00  0.00     0.069 A 
HETATM   22  C   UNL     1     -45.991  58.389 -59.865  1.00  0.00     0.090 A 
HETATM   23 CL   UNL     1     -47.885  59.309 -58.121  1.00  0.00    -0.081 Cl
HETATM   24  C   UNL     1     -44.744  57.824 -60.134  1.00  0.00     0.041 A 
HETATM   25  C   UNL     1     -43.867  57.511 -59.086  1.00  0.00     0.032 A 
BRANCH  22  26
HETATM   26  O   UNL     1     -46.909  58.726 -60.824  1.00  0.00    -0.350 OA
BRANCH  26  27
HETATM   27  C   UNL     1     -47.731  57.686 -61.348  1.00  0.00     0.171 C 
HETATM   28  C   UNL     1     -48.534  58.262 -62.501  1.00  0.00     0.034 C 
ENDBRANCH  26  27
ENDBRANCH  22  26
ENDBRANCH   1  19
TORSDOF 3
ENDMDL
