MODEL 1
REMARK VINA RESULT:      -9.2      0.000      0.000
REMARK  7 active torsions:
REMARK  status: ('A' for Active; 'I' for Inactive)
REMARK    1  A    between atoms: O_2  and  C_3 
REMARK    2  A    between atoms: C_5  and  C_6 
REMARK    3  A    between atoms: C_8  and  N_9 
REMARK    4  A    between atoms: N_12  and  C_14 
REMARK    5  A    between atoms: C_14  and  C_15 
REMARK       I    between atoms: C_15  and  N_16 
REMARK    6  A    between atoms: N_16  and  N_17 
REMARK       I    between atoms: N_17  and  C_18 
REMARK    7  A    between atoms: C_18  and  C_19 
ROOT
HETATM    1  N   UNL     1     -41.320  59.222 -53.289  1.00  0.00    -0.357 N 
HETATM    2  C   UNL     1     -41.064  59.352 -51.846  1.00  0.00     0.152 C 
HETATM    3  C   UNL     1     -42.387  59.564 -51.072  1.00  0.00     0.255 C 
HETATM    4  N   UNL     1     -43.130  60.766 -51.656  1.00  0.00    -0.060 N 
HETATM    5  H   UNL     1     -42.482  61.559 -51.623  1.00  0.00     0.280 HD
HETATM    6  C   UNL     1     -43.426  60.534 -53.147  1.00  0.00     0.255 C 
HETATM    7  C   UNL     1     -42.082  60.338 -53.885  1.00  0.00     0.152 C 
ENDROOT
BRANCH   4   8
HETATM    8  C   UNL     1     -44.353  61.204 -50.849  1.00  0.00     0.338 C 
BRANCH   8   9
HETATM    9  C   UNL     1     -45.317  60.100 -50.409  1.00  0.00     0.262 C 
HETATM   10  N   UNL     1     -45.438  59.856 -49.059  1.00  0.00    -0.266 N 
HETATM   11  H   UNL     1     -46.182  59.216 -48.783  1.00  0.00     0.190 HD
HETATM   12  O   UNL     1     -45.938  59.412 -51.217  1.00  0.00    -0.270 OA
BRANCH  10  13
HETATM   13  N   UNL     1     -44.901  60.696 -48.065  1.00  0.00    -0.263 N 
HETATM   14  C   UNL     1     -45.786  61.289 -47.171  1.00  0.00     0.270 C 
HETATM   15  O   UNL     1     -46.994  61.351 -47.374  1.00  0.00    -0.266 OA
HETATM   16  H   UNL     1     -43.973  60.440 -47.727  1.00  0.00     0.190 HD
BRANCH  14  17
HETATM   17  C   UNL     1     -45.189  61.878 -45.946  1.00  0.00     0.033 A 
HETATM   18  C   UNL     1     -44.470  61.040 -45.084  1.00  0.00     0.019 A 
HETATM   19  C   UNL     1     -43.912  61.556 -43.912  1.00  0.00     0.025 A 
HETATM   20  C   UNL     1     -44.087  62.902 -43.594  1.00  0.00     0.034 A 
HETATM   21 CL   UNL     1     -43.414  63.535 -42.145  1.00  0.00    -0.084 Cl
HETATM   22  C   UNL     1     -44.815  63.738 -44.441  1.00  0.00     0.025 A 
HETATM   23  C   UNL     1     -45.368  63.230 -45.620  1.00  0.00     0.019 A 
ENDBRANCH  14  17
ENDBRANCH  10  13
ENDBRANCH   8   9
ENDBRANCH   4   8
BRANCH   1  24
HETATM   24  C   UNL     1     -41.510  57.988 -53.859  1.00  0.00     0.169 A 
HETATM   25  N   UNL     1     -40.929  56.903 -53.396  1.00  0.00    -0.223 NA
HETATM   26  C   UNL     1     -41.328  55.772 -54.094  1.00  0.00     0.076 A 
HETATM   27  C   UNL     1     -42.209  56.019 -55.125  1.00  0.00     0.085 A 
HETATM   28  S   UNL     1     -42.548  57.692 -55.212  1.00  0.00    -0.062 SA
BRANCH  26  29
HETATM   29  C   UNL     1     -40.861  54.444 -53.708  1.00  0.00    -0.004 A 
HETATM   30  C   UNL     1     -40.802  54.038 -52.368  1.00  0.00     0.050 A 
HETATM   31  C   UNL     1     -40.338  52.764 -52.018  1.00  0.00     0.069 A 
HETATM   32  C   UNL     1     -39.928  51.884 -53.018  1.00  0.00     0.037 A 
HETATM   33  C   UNL     1     -39.989  52.272 -54.358  1.00  0.00     0.004 A 
HETATM   34  C   UNL     1     -40.455  53.543 -54.700  1.00  0.00     0.014 A 
BRANCH  31  35
HETATM   35  O   UNL     1     -40.336  52.511 -50.674  1.00  0.00    -0.356 OA
HETATM   36  C   UNL     1     -40.224  53.635 -49.807  1.00  0.00     0.210 C 
ENDBRANCH  31  35
ENDBRANCH  26  29
ENDBRANCH   1  24
TORSDOF 7
ENDMDL
MODEL 2
REMARK VINA RESULT:      -8.8      5.759      8.261
REMARK  7 active torsions:
REMARK  status: ('A' for Active; 'I' for Inactive)
REMARK    1  A    between atoms: O_2  and  C_3 
REMARK    2  A    between atoms: C_5  and  C_6 
REMARK    3  A    between atoms: C_8  and  N_9 
REMARK    4  A    between atoms: N_12  and  C_14 
REMARK    5  A    between atoms: C_14  and  C_15 
REMARK       I    between atoms: C_15  and  N_16 
REMARK    6  A    between atoms: N_16  and  N_17 
REMARK       I    between atoms: N_17  and  C_18 
REMARK    7  A    between atoms: C_18  and  C_19 
ROOT
HETATM    1  N   UNL     1     -42.042  56.624 -52.010  1.00  0.00    -0.357 N 
HETATM    2  C   UNL     1     -43.510  56.688 -51.920  1.00  0.00     0.152 C 
HETATM    3  C   UNL     1     -44.071  57.756 -52.889  1.00  0.00     0.255 C 
HETATM    4  N   UNL     1     -43.398  59.100 -52.609  1.00  0.00    -0.060 N 
HETATM    5  H   UNL     1     -43.544  59.303 -51.615  1.00  0.00     0.280 HD
HETATM    6  C   UNL     1     -41.876  58.978 -52.788  1.00  0.00     0.255 C 
HETATM    7  C   UNL     1     -41.353  57.913 -51.798  1.00  0.00     0.152 C 
ENDROOT
BRANCH   4   8
HETATM    8  C   UNL     1     -44.012  60.281 -53.362  1.00  0.00     0.338 C 
BRANCH   8   9
HETATM    9  C   UNL     1     -43.048  61.372 -53.833  1.00  0.00     0.262 C 
HETATM   10  N   UNL     1     -42.535  61.267 -55.107  1.00  0.00    -0.266 N 
HETATM   11  H   UNL     1     -42.007  62.072 -55.446  1.00  0.00     0.190 HD
HETATM   12  O   UNL     1     -42.693  62.294 -53.100  1.00  0.00    -0.270 OA
BRANCH  10  13
HETATM   13  N   UNL     1     -43.008  60.350 -56.064  1.00  0.00    -0.263 N 
HETATM   14  C   UNL     1     -42.124  59.930 -57.051  1.00  0.00     0.270 C 
HETATM   15  O   UNL     1     -41.076  60.518 -57.299  1.00  0.00    -0.266 OA
HETATM   16  H   UNL     1     -43.708  59.687 -55.729  1.00  0.00     0.190 HD
BRANCH  14  17
HETATM   17  C   UNL     1     -42.524  58.728 -57.825  1.00  0.00     0.033 A 
HETATM   18  C   UNL     1     -43.446  57.841 -57.254  1.00  0.00     0.019 A 
HETATM   19  C   UNL     1     -43.830  56.689 -57.945  1.00  0.00     0.025 A 
HETATM   20  C   UNL     1     -43.279  56.416 -59.196  1.00  0.00     0.034 A 
HETATM   21 CL   UNL     1     -43.739  54.992 -60.042  1.00  0.00    -0.084 Cl
HETATM   22  C   UNL     1     -42.349  57.286 -59.764  1.00  0.00     0.025 A 
HETATM   23  C   UNL     1     -41.969  58.445 -59.081  1.00  0.00     0.019 A 
ENDBRANCH  14  17
ENDBRANCH  10  13
ENDBRANCH   8   9
ENDBRANCH   4   8
BRANCH   1  24
HETATM   24  C   UNL     1     -41.431  55.745 -52.868  1.00  0.00     0.169 A 
HETATM   25  N   UNL     1     -41.137  54.511 -52.520  1.00  0.00    -0.223 NA
HETATM   26  C   UNL     1     -40.588  53.799 -53.575  1.00  0.00     0.076 A 
HETATM   27  C   UNL     1     -40.438  54.525 -54.738  1.00  0.00     0.085 A 
HETATM   28  S   UNL     1     -41.006  56.121 -54.503  1.00  0.00    -0.062 SA
BRANCH  26  29
HETATM   29  C   UNL     1     -40.247  52.387 -53.436  1.00  0.00    -0.004 A 
HETATM   30  C   UNL     1     -39.940  51.816 -52.194  1.00  0.00     0.050 A 
HETATM   31  C   UNL     1     -39.602  50.461 -52.084  1.00  0.00     0.069 A 
HETATM   32  C   UNL     1     -39.572  49.666 -53.228  1.00  0.00     0.037 A 
HETATM   33  C   UNL     1     -39.884  50.219 -54.472  1.00  0.00     0.004 A 
HETATM   34  C   UNL     1     -40.221  51.570 -54.574  1.00  0.00     0.014 A 
BRANCH  31  35
HETATM   35  O   UNL     1     -39.327  50.047 -50.809  1.00  0.00    -0.356 OA
HETATM   36  C   UNL     1     -40.265  50.404 -49.800  1.00  0.00     0.210 C 
ENDBRANCH  31  35
ENDBRANCH  26  29
ENDBRANCH   1  24
TORSDOF 7
ENDMDL
MODEL 3
REMARK VINA RESULT:      -8.7      5.036      8.333
REMARK  7 active torsions:
REMARK  status: ('A' for Active; 'I' for Inactive)
REMARK    1  A    between atoms: O_2  and  C_3 
REMARK    2  A    between atoms: C_5  and  C_6 
REMARK    3  A    between atoms: C_8  and  N_9 
REMARK    4  A    between atoms: N_12  and  C_14 
REMARK    5  A    between atoms: C_14  and  C_15 
REMARK       I    between atoms: C_15  and  N_16 
REMARK    6  A    between atoms: N_16  and  N_17 
REMARK       I    between atoms: N_17  and  C_18 
REMARK    7  A    between atoms: C_18  and  C_19 
ROOT
HETATM    1  N   UNL     1     -44.105  60.256 -55.822  1.00  0.00    -0.357 N 
HETATM    2  C   UNL     1     -43.219  61.028 -54.937  1.00  0.00     0.152 C 
HETATM    3  C   UNL     1     -42.890  60.225 -53.656  1.00  0.00     0.255 C 
HETATM    4  N   UNL     1     -44.191  59.802 -52.974  1.00  0.00    -0.060 N 
HETATM    5  H   UNL     1     -44.735  60.657 -52.817  1.00  0.00     0.280 HD
HETATM    6  C   UNL     1     -45.036  58.944 -53.929  1.00  0.00     0.255 C 
HETATM    7  C   UNL     1     -45.353  59.782 -55.188  1.00  0.00     0.152 C 
ENDROOT
BRANCH   4   8
HETATM    8  C   UNL     1     -44.004  59.178 -51.591  1.00  0.00     0.338 C 
BRANCH   8   9
HETATM    9  C   UNL     1     -45.156  58.322 -51.061  1.00  0.00     0.262 C 
HETATM   10  N   UNL     1     -45.031  56.953 -51.151  1.00  0.00    -0.266 N 
HETATM   11  H   UNL     1     -45.744  56.405 -50.670  1.00  0.00     0.190 HD
HETATM   12  O   UNL     1     -46.186  58.818 -50.608  1.00  0.00    -0.270 OA
BRANCH  10  13
HETATM   13  N   UNL     1     -43.832  56.302 -51.495  1.00  0.00    -0.263 N 
HETATM   14  C   UNL     1     -43.650  55.000 -51.044  1.00  0.00     0.270 C 
HETATM   15  O   UNL     1     -44.326  54.506 -50.147  1.00  0.00    -0.266 OA
HETATM   16  H   UNL     1     -43.435  56.559 -52.399  1.00  0.00     0.190 HD
BRANCH  14  17
HETATM   17  C   UNL     1     -42.561  54.224 -51.691  1.00  0.00     0.033 A 
HETATM   18  C   UNL     1     -42.603  54.046 -53.080  1.00  0.00     0.019 A 
HETATM   19  C   UNL     1     -41.607  53.304 -53.720  1.00  0.00     0.025 A 
HETATM   20  C   UNL     1     -40.582  52.728 -52.971  1.00  0.00     0.034 A 
HETATM   21 CL   UNL     1     -39.364  51.803 -53.755  1.00  0.00    -0.084 Cl
HETATM   22  C   UNL     1     -40.544  52.888 -51.586  1.00  0.00     0.025 A 
HETATM   23  C   UNL     1     -41.532  53.637 -50.941  1.00  0.00     0.019 A 
ENDBRANCH  14  17
ENDBRANCH  10  13
ENDBRANCH   8   9
ENDBRANCH   4   8
BRANCH   1  24
HETATM   24  C   UNL     1     -43.587  59.457 -56.809  1.00  0.00     0.169 A 
HETATM   25  N   UNL     1     -44.217  58.392 -57.255  1.00  0.00    -0.223 NA
HETATM   26  C   UNL     1     -43.527  57.788 -58.296  1.00  0.00     0.076 A 
HETATM   27  C   UNL     1     -42.334  58.399 -58.620  1.00  0.00     0.085 A 
HETATM   28  S   UNL     1     -42.082  59.755 -57.611  1.00  0.00    -0.062 SA
BRANCH  26  29
HETATM   29  C   UNL     1     -44.074  56.627 -58.990  1.00  0.00    -0.004 A 
HETATM   30  C   UNL     1     -45.066  56.749 -59.973  1.00  0.00     0.050 A 
HETATM   31  C   UNL     1     -45.588  55.620 -60.618  1.00  0.00     0.069 A 
HETATM   32  C   UNL     1     -45.114  54.354 -60.278  1.00  0.00     0.037 A 
HETATM   33  C   UNL     1     -44.120  54.219 -59.307  1.00  0.00     0.004 A 
HETATM   34  C   UNL     1     -43.602  55.348 -58.670  1.00  0.00     0.014 A 
BRANCH  31  35
HETATM   35  O   UNL     1     -46.549  55.895 -61.551  1.00  0.00    -0.356 OA
HETATM   36  C   UNL     1     -47.577  56.804 -61.169  1.00  0.00     0.210 C 
ENDBRANCH  31  35
ENDBRANCH  26  29
ENDBRANCH   1  24
TORSDOF 7
ENDMDL
MODEL 4
REMARK VINA RESULT:      -8.6      5.137      7.571
REMARK  7 active torsions:
REMARK  status: ('A' for Active; 'I' for Inactive)
REMARK    1  A    between atoms: O_2  and  C_3 
REMARK    2  A    between atoms: C_5  and  C_6 
REMARK    3  A    between atoms: C_8  and  N_9 
REMARK    4  A    between atoms: N_12  and  C_14 
REMARK    5  A    between atoms: C_14  and  C_15 
REMARK       I    between atoms: C_15  and  N_16 
REMARK    6  A    between atoms: N_16  and  N_17 
REMARK       I    between atoms: N_17  and  C_18 
REMARK    7  A    between atoms: C_18  and  C_19 
ROOT
HETATM    1  N   UNL     1     -41.939  56.563 -51.231  1.00  0.00    -0.357 N 
HETATM    2  C   UNL     1     -43.387  56.583 -50.971  1.00  0.00     0.152 C 
HETATM    3  C   UNL     1     -44.071  57.718 -51.770  1.00  0.00     0.255 C 
HETATM    4  N   UNL     1     -43.391  59.048 -51.446  1.00  0.00    -0.060 N 
HETATM    5  H   UNL     1     -43.425  59.158 -50.427  1.00  0.00     0.280 HD
HETATM    6  C   UNL     1     -41.897  58.981 -51.804  1.00  0.00     0.255 C 
HETATM    7  C   UNL     1     -41.249  57.845 -50.981  1.00  0.00     0.152 C 
ENDROOT
BRANCH   4   8
HETATM    8  C   UNL     1     -44.104  60.276 -52.014  1.00  0.00     0.338 C 
BRANCH   8   9
HETATM    9  C   UNL     1     -45.572  60.098 -52.404  1.00  0.00     0.262 C 
HETATM   10  N   UNL     1     -45.867  59.948 -53.741  1.00  0.00    -0.266 N 
HETATM   11  H   UNL     1     -46.829  59.695 -53.963  1.00  0.00     0.190 HD
HETATM   12  O   UNL     1     -46.479  60.131 -51.573  1.00  0.00    -0.270 OA
BRANCH  10  13
HETATM   13  N   UNL     1     -44.892  59.731 -54.733  1.00  0.00    -0.263 N 
HETATM   14  C   UNL     1     -44.891  58.503 -55.383  1.00  0.00     0.270 C 
HETATM   15  O   UNL     1     -45.488  57.521 -54.951  1.00  0.00    -0.266 OA
HETATM   16  H   UNL     1     -44.612  60.557 -55.262  1.00  0.00     0.190 HD
BRANCH  14  17
HETATM   17  C   UNL     1     -44.099  58.420 -56.636  1.00  0.00     0.033 A 
HETATM   18  C   UNL     1     -44.697  57.852 -57.768  1.00  0.00     0.019 A 
HETATM   19  C   UNL     1     -43.975  57.739 -58.959  1.00  0.00     0.025 A 
HETATM   20  C   UNL     1     -42.653  58.178 -59.012  1.00  0.00     0.034 A 
HETATM   21 CL   UNL     1     -41.758  58.027 -60.471  1.00  0.00    -0.084 Cl
HETATM   22  C   UNL     1     -42.047  58.731 -57.883  1.00  0.00     0.025 A 
HETATM   23  C   UNL     1     -42.767  58.855 -56.692  1.00  0.00     0.019 A 
ENDBRANCH  14  17
ENDBRANCH  10  13
ENDBRANCH   8   9
ENDBRANCH   4   8
BRANCH   1  24
HETATM   24  C   UNL     1     -41.416  55.780 -52.228  1.00  0.00     0.169 A 
HETATM   25  N   UNL     1     -41.081  54.523 -52.034  1.00  0.00    -0.223 NA
HETATM   26  C   UNL     1     -40.642  53.924 -53.205  1.00  0.00     0.076 A 
HETATM   27  C   UNL     1     -40.619  54.760 -54.301  1.00  0.00     0.085 A 
HETATM   28  S   UNL     1     -41.167  56.317 -53.855  1.00  0.00    -0.062 SA
BRANCH  26  29
HETATM   29  C   UNL     1     -40.282  52.510 -53.239  1.00  0.00    -0.004 A 
HETATM   30  C   UNL     1     -39.948  51.800 -52.077  1.00  0.00     0.050 A 
HETATM   31  C   UNL     1     -39.592  50.446 -52.134  1.00  0.00     0.069 A 
HETATM   32  C   UNL     1     -39.568  49.793 -53.365  1.00  0.00     0.037 A 
HETATM   33  C   UNL     1     -39.906  50.486 -54.529  1.00  0.00     0.004 A 
HETATM   34  C   UNL     1     -40.262  51.834 -54.466  1.00  0.00     0.014 A 
BRANCH  31  35
HETATM   35  O   UNL     1     -39.291  49.889 -50.921  1.00  0.00    -0.356 OA
HETATM   36  C   UNL     1     -40.166  50.190 -49.839  1.00  0.00     0.210 C 
ENDBRANCH  31  35
ENDBRANCH  26  29
ENDBRANCH   1  24
TORSDOF 7
ENDMDL
MODEL 5
REMARK VINA RESULT:      -8.6      6.264     10.323
REMARK  7 active torsions:
REMARK  status: ('A' for Active; 'I' for Inactive)
REMARK    1  A    between atoms: O_2  and  C_3 
REMARK    2  A    between atoms: C_5  and  C_6 
REMARK    3  A    between atoms: C_8  and  N_9 
REMARK    4  A    between atoms: N_12  and  C_14 
REMARK    5  A    between atoms: C_14  and  C_15 
REMARK       I    between atoms: C_15  and  N_16 
REMARK    6  A    between atoms: N_16  and  N_17 
REMARK       I    between atoms: N_17  and  C_18 
REMARK    7  A    between atoms: C_18  and  C_19 
ROOT
HETATM    1  N   UNL     1     -43.502  57.846 -57.307  1.00  0.00    -0.357 N 
HETATM    2  C   UNL     1     -42.374  57.175 -56.642  1.00  0.00     0.152 C 
HETATM    3  C   UNL     1     -42.855  56.417 -55.381  1.00  0.00     0.255 C 
HETATM    4  N   UNL     1     -43.600  57.384 -54.460  1.00  0.00    -0.060 N 
HETATM    5  H   UNL     1     -42.964  58.166 -54.275  1.00  0.00     0.280 HD
HETATM    6  C   UNL     1     -44.803  57.995 -55.196  1.00  0.00     0.255 C 
HETATM    7  C   UNL     1     -44.283  58.751 -56.439  1.00  0.00     0.152 C 
ENDROOT
BRANCH   4   8
HETATM    8  C   UNL     1     -43.948  56.805 -53.089  1.00  0.00     0.338 C 
BRANCH   8   9
HETATM    9  C   UNL     1     -43.272  57.451 -51.878  1.00  0.00     0.262 C 
HETATM   10  N   UNL     1     -42.124  56.863 -51.395  1.00  0.00    -0.266 N 
HETATM   11  H   UNL     1     -41.618  57.385 -50.680  1.00  0.00     0.190 HD
HETATM   12  O   UNL     1     -43.744  58.437 -51.312  1.00  0.00    -0.270 OA
BRANCH  10  13
HETATM   13  N   UNL     1     -41.427  55.845 -52.074  1.00  0.00    -0.263 N 
HETATM   14  C   UNL     1     -41.033  54.731 -51.341  1.00  0.00     0.270 C 
HETATM   15  O   UNL     1     -41.003  54.718 -50.115  1.00  0.00    -0.266 OA
HETATM   16  H   UNL     1     -41.683  55.714 -53.052  1.00  0.00     0.190 HD
BRANCH  14  17
HETATM   17  C   UNL     1     -40.616  53.541 -52.126  1.00  0.00     0.033 A 
HETATM   18  C   UNL     1     -41.045  53.433 -53.455  1.00  0.00     0.019 A 
HETATM   19  C   UNL     1     -40.689  52.317 -54.216  1.00  0.00     0.025 A 
HETATM   20  C   UNL     1     -39.921  51.304 -53.645  1.00  0.00     0.034 A 
HETATM   21 CL   UNL     1     -39.494  49.924 -54.575  1.00  0.00    -0.084 Cl
HETATM   22  C   UNL     1     -39.504  51.399 -52.317  1.00  0.00     0.025 A 
HETATM   23  C   UNL     1     -39.849  52.517 -51.553  1.00  0.00     0.019 A 
ENDBRANCH  14  17
ENDBRANCH  10  13
ENDBRANCH   8   9
ENDBRANCH   4   8
BRANCH   1  24
HETATM   24  C   UNL     1     -44.198  57.218 -58.309  1.00  0.00     0.169 A 
HETATM   25  N   UNL     1     -45.258  57.756 -58.872  1.00  0.00    -0.223 NA
HETATM   26  C   UNL     1     -45.746  56.964 -59.902  1.00  0.00     0.076 A 
HETATM   27  C   UNL     1     -45.053  55.789 -60.096  1.00  0.00     0.085 A 
HETATM   28  S   UNL     1     -43.764  55.682 -58.978  1.00  0.00    -0.062 SA
BRANCH  26  29
HETATM   29  C   UNL     1     -46.879  57.398 -60.714  1.00  0.00    -0.004 A 
HETATM   30  C   UNL     1     -47.285  58.738 -60.766  1.00  0.00     0.050 A 
HETATM   31  C   UNL     1     -48.384  59.131 -61.541  1.00  0.00     0.069 A 
HETATM   32  C   UNL     1     -49.085  58.175 -62.274  1.00  0.00     0.037 A 
HETATM   33  C   UNL     1     -48.686  56.837 -62.237  1.00  0.00     0.004 A 
HETATM   34  C   UNL     1     -47.589  56.452 -61.464  1.00  0.00     0.014 A 
BRANCH  31  35
HETATM   35  O   UNL     1     -48.662  60.470 -61.493  1.00  0.00    -0.356 OA
HETATM   36  C   UNL     1     -47.708  61.347 -62.083  1.00  0.00     0.210 C 
ENDBRANCH  31  35
ENDBRANCH  26  29
ENDBRANCH   1  24
TORSDOF 7
ENDMDL
MODEL 6
REMARK VINA RESULT:      -8.5      3.803     10.018
REMARK  7 active torsions:
REMARK  status: ('A' for Active; 'I' for Inactive)
REMARK    1  A    between atoms: O_2  and  C_3 
REMARK    2  A    between atoms: C_5  and  C_6 
REMARK    3  A    between atoms: C_8  and  N_9 
REMARK    4  A    between atoms: N_12  and  C_14 
REMARK    5  A    between atoms: C_14  and  C_15 
REMARK       I    between atoms: C_15  and  N_16 
REMARK    6  A    between atoms: N_16  and  N_17 
REMARK       I    between atoms: N_17  and  C_18 
REMARK    7  A    between atoms: C_18  and  C_19 
ROOT
HETATM    1  N   UNL     1     -44.206  58.454 -52.009  1.00  0.00    -0.357 N 
HETATM    2  C   UNL     1     -43.170  57.414 -52.112  1.00  0.00     0.152 C 
HETATM    3  C   UNL     1     -42.258  57.669 -53.336  1.00  0.00     0.255 C 
HETATM    4  N   UNL     1     -43.119  57.778 -54.595  1.00  0.00    -0.060 N 
HETATM    5  H   UNL     1     -43.678  56.920 -54.647  1.00  0.00     0.280 HD
HETATM    6  C   UNL     1     -44.132  58.925 -54.448  1.00  0.00     0.255 C 
HETATM    7  C   UNL     1     -45.028  58.629 -53.224  1.00  0.00     0.152 C 
ENDROOT
BRANCH   4   8
HETATM    8  C   UNL     1     -42.323  57.826 -55.900  1.00  0.00     0.338 C 
BRANCH   8   9
HETATM    9  C   UNL     1     -42.779  56.887 -57.018  1.00  0.00     0.262 C 
HETATM   10  N   UNL     1     -42.265  55.609 -57.031  1.00  0.00    -0.266 N 
HETATM   11  H   UNL     1     -42.684  54.963 -57.699  1.00  0.00     0.190 HD
HETATM   12  O   UNL     1     -43.542  57.253 -57.911  1.00  0.00    -0.270 OA
BRANCH  10  13
HETATM   13  N   UNL     1     -41.525  55.057 -55.968  1.00  0.00    -0.263 N 
HETATM   14  C   UNL     1     -42.230  54.430 -54.947  1.00  0.00     0.270 C 
HETATM   15  O   UNL     1     -43.436  54.583 -54.780  1.00  0.00    -0.266 OA
HETATM   16  H   UNL     1     -40.606  54.691 -56.216  1.00  0.00     0.190 HD
BRANCH  14  17
HETATM   17  C   UNL     1     -41.438  53.570 -54.032  1.00  0.00     0.033 A 
HETATM   18  C   UNL     1     -40.813  52.432 -54.559  1.00  0.00     0.019 A 
HETATM   19  C   UNL     1     -40.077  51.588 -53.724  1.00  0.00     0.025 A 
HETATM   20  C   UNL     1     -39.981  51.871 -52.362  1.00  0.00     0.034 A 
HETATM   21 CL   UNL     1     -39.088  50.827 -51.331  1.00  0.00    -0.084 Cl
HETATM   22  C   UNL     1     -40.613  52.994 -51.829  1.00  0.00     0.025 A 
HETATM   23  C   UNL     1     -41.343  53.848 -52.661  1.00  0.00     0.019 A 
ENDBRANCH  14  17
ENDBRANCH  10  13
ENDBRANCH   8   9
ENDBRANCH   4   8
BRANCH   1  24
HETATM   24  C   UNL     1     -43.998  59.579 -51.252  1.00  0.00     0.169 A 
HETATM   25  N   UNL     1     -44.784  59.909 -50.251  1.00  0.00    -0.223 NA
HETATM   26  C   UNL     1     -44.331  61.046 -49.598  1.00  0.00     0.076 A 
HETATM   27  C   UNL     1     -43.191  61.600 -50.141  1.00  0.00     0.085 A 
HETATM   28  S   UNL     1     -42.677  60.673 -51.482  1.00  0.00    -0.062 SA
BRANCH  26  29
HETATM   29  C   UNL     1     -45.012  61.557 -48.413  1.00  0.00    -0.004 A 
HETATM   30  C   UNL     1     -45.916  60.775 -47.681  1.00  0.00     0.050 A 
HETATM   31  C   UNL     1     -46.570  61.289 -46.554  1.00  0.00     0.069 A 
HETATM   32  C   UNL     1     -46.317  62.599 -46.152  1.00  0.00     0.037 A 
HETATM   33  C   UNL     1     -45.413  63.387 -46.866  1.00  0.00     0.004 A 
HETATM   34  C   UNL     1     -44.763  62.868 -47.988  1.00  0.00     0.014 A 
BRANCH  31  35
HETATM   35  O   UNL     1     -47.423  60.411 -45.944  1.00  0.00    -0.356 OA
HETATM   36  C   UNL     1     -47.001  59.054 -45.864  1.00  0.00     0.210 C 
ENDBRANCH  31  35
ENDBRANCH  26  29
ENDBRANCH   1  24
TORSDOF 7
ENDMDL
MODEL 7
REMARK VINA RESULT:      -8.4      5.589      9.535
REMARK  7 active torsions:
REMARK  status: ('A' for Active; 'I' for Inactive)
REMARK    1  A    between atoms: O_2  and  C_3 
REMARK    2  A    between atoms: C_5  and  C_6 
REMARK    3  A    between atoms: C_8  and  N_9 
REMARK    4  A    between atoms: N_12  and  C_14 
REMARK    5  A    between atoms: C_14  and  C_15 
REMARK       I    between atoms: C_15  and  N_16 
REMARK    6  A    between atoms: N_16  and  N_17 
REMARK       I    between atoms: N_17  and  C_18 
REMARK    7  A    between atoms: C_18  and  C_19 
ROOT
HETATM    1  N   UNL     1     -43.615  56.691 -56.329  1.00  0.00    -0.357 N 
HETATM    2  C   UNL     1     -44.313  57.586 -55.392  1.00  0.00     0.152 C 
HETATM    3  C   UNL     1     -43.299  58.372 -54.527  1.00  0.00     0.255 C 
HETATM    4  N   UNL     1     -42.362  57.389 -53.824  1.00  0.00    -0.060 N 
HETATM    5  H   UNL     1     -42.956  56.735 -53.303  1.00  0.00     0.280 HD
HETATM    6  C   UNL     1     -41.616  56.534 -54.861  1.00  0.00     0.255 C 
HETATM    7  C   UNL     1     -42.660  55.759 -55.696  1.00  0.00     0.152 C 
ENDROOT
BRANCH   4   8
HETATM    8  C   UNL     1     -41.445  58.028 -52.781  1.00  0.00     0.338 C 
BRANCH   8   9
HETATM    9  C   UNL     1     -41.954  58.049 -51.339  1.00  0.00     0.262 C 
HETATM   10  N   UNL     1     -41.845  56.889 -50.604  1.00  0.00    -0.266 N 
HETATM   11  H   UNL     1     -42.062  56.965 -49.610  1.00  0.00     0.190 HD
HETATM   12  O   UNL     1     -42.487  59.042 -50.846  1.00  0.00    -0.270 OA
BRANCH  10  13
HETATM   13  N   UNL     1     -41.105  55.768 -51.025  1.00  0.00    -0.263 N 
HETATM   14  C   UNL     1     -41.764  54.546 -51.096  1.00  0.00     0.270 C 
HETATM   15  O   UNL     1     -42.844  54.340 -50.551  1.00  0.00    -0.266 OA
HETATM   16  H   UNL     1     -40.366  55.958 -51.702  1.00  0.00     0.190 HD
BRANCH  14  17
HETATM   17  C   UNL     1     -41.078  53.470 -51.855  1.00  0.00     0.033 A 
HETATM   18  C   UNL     1     -41.359  53.333 -53.221  1.00  0.00     0.019 A 
HETATM   19  C   UNL     1     -40.747  52.319 -53.962  1.00  0.00     0.025 A 
HETATM   20  C   UNL     1     -39.871  51.434 -53.336  1.00  0.00     0.034 A 
HETATM   21 CL   UNL     1     -39.129  50.177 -54.242  1.00  0.00    -0.084 Cl
HETATM   22  C   UNL     1     -39.600  51.556 -51.973  1.00  0.00     0.025 A 
HETATM   23  C   UNL     1     -40.201  52.574 -51.228  1.00  0.00     0.019 A 
ENDBRANCH  14  17
ENDBRANCH  10  13
ENDBRANCH   8   9
ENDBRANCH   4   8
BRANCH   1  24
HETATM   24  C   UNL     1     -43.302  57.110 -57.597  1.00  0.00     0.169 A 
HETATM   25  N   UNL     1     -42.903  58.336 -57.854  1.00  0.00    -0.223 NA
HETATM   26  C   UNL     1     -42.581  58.499 -59.194  1.00  0.00     0.076 A 
HETATM   27  C   UNL     1     -42.772  57.373 -59.968  1.00  0.00     0.085 A 
HETATM   28  S   UNL     1     -43.353  56.092 -58.996  1.00  0.00    -0.062 SA
BRANCH  26  29
HETATM   29  C   UNL     1     -42.049  59.762 -59.694  1.00  0.00    -0.004 A 
HETATM   30  C   UNL     1     -41.481  60.718 -58.841  1.00  0.00     0.050 A 
HETATM   31  C   UNL     1     -40.988  61.931 -59.340  1.00  0.00     0.069 A 
HETATM   32  C   UNL     1     -41.063  62.193 -60.707  1.00  0.00     0.037 A 
HETATM   33  C   UNL     1     -41.620  61.246 -61.569  1.00  0.00     0.004 A 
HETATM   34  C   UNL     1     -42.107  60.039 -61.066  1.00  0.00     0.014 A 
BRANCH  31  35
HETATM   35  O   UNL     1     -40.465  62.764 -58.389  1.00  0.00    -0.356 OA
HETATM   36  C   UNL     1     -39.925  64.000 -58.842  1.00  0.00     0.210 C 
ENDBRANCH  31  35
ENDBRANCH  26  29
ENDBRANCH   1  24
TORSDOF 7
ENDMDL
MODEL 8
REMARK VINA RESULT:      -8.3      5.373      8.335
REMARK  7 active torsions:
REMARK  status: ('A' for Active; 'I' for Inactive)
REMARK    1  A    between atoms: O_2  and  C_3 
REMARK    2  A    between atoms: C_5  and  C_6 
REMARK    3  A    between atoms: C_8  and  N_9 
REMARK    4  A    between atoms: N_12  and  C_14 
REMARK    5  A    between atoms: C_14  and  C_15 
REMARK       I    between atoms: C_15  and  N_16 
REMARK    6  A    between atoms: N_16  and  N_17 
REMARK       I    between atoms: N_17  and  C_18 
REMARK    7  A    between atoms: C_18  and  C_19 
ROOT
HETATM    1  N   UNL     1     -41.995  58.654 -51.849  1.00  0.00    -0.357 N 
HETATM    2  C   UNL     1     -42.916  59.627 -51.240  1.00  0.00     0.152 C 
HETATM    3  C   UNL     1     -43.879  60.208 -52.302  1.00  0.00     0.255 C 
HETATM    4  N   UNL     1     -43.067  60.798 -53.456  1.00  0.00    -0.060 N 
HETATM    5  H   UNL     1     -42.420  61.478 -53.045  1.00  0.00     0.280 HD
HETATM    6  C   UNL     1     -42.180  59.713 -54.089  1.00  0.00     0.255 C 
HETATM    7  C   UNL     1     -41.227  59.167 -53.002  1.00  0.00     0.152 C 
ENDROOT
BRANCH   4   8
HETATM    8  C   UNL     1     -43.895  61.584 -54.472  1.00  0.00     0.338 C 
BRANCH   8   9
HETATM    9  C   UNL     1     -43.197  62.751 -55.172  1.00  0.00     0.262 C 
HETATM   10  N   UNL     1     -42.757  62.555 -56.462  1.00  0.00    -0.266 N 
HETATM   11  H   UNL     1     -42.420  63.383 -56.953  1.00  0.00     0.190 HD
HETATM   12  O   UNL     1     -42.985  63.823 -54.606  1.00  0.00    -0.270 OA
BRANCH  10  13
HETATM   13  N   UNL     1     -43.101  61.433 -57.240  1.00  0.00    -0.263 N 
HETATM   14  C   UNL     1     -42.072  60.601 -57.666  1.00  0.00     0.270 C 
HETATM   15  O   UNL     1     -40.893  60.939 -57.650  1.00  0.00    -0.266 OA
HETATM   16  H   UNL     1     -44.006  61.012 -57.027  1.00  0.00     0.190 HD
BRANCH  14  17
HETATM   17  C   UNL     1     -42.474  59.266 -58.177  1.00  0.00     0.033 A 
HETATM   18  C   UNL     1     -43.430  58.536 -57.459  1.00  0.00     0.019 A 
HETATM   19  C   UNL     1     -43.817  57.267 -57.899  1.00  0.00     0.025 A 
HETATM   20  C   UNL     1     -43.236  56.723 -59.043  1.00  0.00     0.034 A 
HETATM   21 CL   UNL     1     -43.700  55.157 -59.578  1.00  0.00    -0.084 Cl
HETATM   22  C   UNL     1     -42.272  57.439 -59.754  1.00  0.00     0.025 A 
HETATM   23  C   UNL     1     -41.888  58.712 -59.324  1.00  0.00     0.019 A 
ENDBRANCH  14  17
ENDBRANCH  10  13
ENDBRANCH   8   9
ENDBRANCH   4   8
BRANCH   1  24
HETATM   24  C   UNL     1     -42.305  57.318 -51.874  1.00  0.00     0.169 A 
HETATM   25  N   UNL     1     -41.485  56.415 -52.366  1.00  0.00    -0.223 NA
HETATM   26  C   UNL     1     -41.990  55.131 -52.219  1.00  0.00     0.076 A 
HETATM   27  C   UNL     1     -43.234  55.071 -51.627  1.00  0.00     0.085 A 
HETATM   28  S   UNL     1     -43.770  56.648 -51.242  1.00  0.00    -0.062 SA
BRANCH  26  29
HETATM   29  C   UNL     1     -41.217  53.964 -52.632  1.00  0.00    -0.004 A 
HETATM   30  C   UNL     1     -40.680  53.062 -51.704  1.00  0.00     0.050 A 
HETATM   31  C   UNL     1     -39.929  51.955 -52.121  1.00  0.00     0.069 A 
HETATM   32  C   UNL     1     -39.711  51.747 -53.482  1.00  0.00     0.037 A 
HETATM   33  C   UNL     1     -40.246  52.634 -54.418  1.00  0.00     0.004 A 
HETATM   34  C   UNL     1     -40.995  53.733 -53.996  1.00  0.00     0.014 A 
BRANCH  31  35
HETATM   35  O   UNL     1     -39.471  51.165 -51.103  1.00  0.00    -0.356 OA
HETATM   36  C   UNL     1     -39.512  49.757 -51.311  1.00  0.00     0.210 C 
ENDBRANCH  31  35
ENDBRANCH  26  29
ENDBRANCH   1  24
TORSDOF 7
ENDMDL
MODEL 9
REMARK VINA RESULT:      -8.3      6.331      9.479
REMARK  7 active torsions:
REMARK  status: ('A' for Active; 'I' for Inactive)
REMARK    1  A    between atoms: O_2  and  C_3 
REMARK    2  A    between atoms: C_5  and  C_6 
REMARK    3  A    between atoms: C_8  and  N_9 
REMARK    4  A    between atoms: N_12  and  C_14 
REMARK    5  A    between atoms: C_14  and  C_15 
REMARK       I    between atoms: C_15  and  N_16 
REMARK    6  A    between atoms: N_16  and  N_17 
REMARK       I    between atoms: N_17  and  C_18 
REMARK    7  A    between atoms: C_18  and  C_19 
ROOT
HETATM    1  N   UNL     1     -44.244  56.874 -52.960  1.00  0.00    -0.357 N 
HETATM    2  C   UNL     1     -44.748  56.560 -54.306  1.00  0.00     0.152 C 
HETATM    3  C   UNL     1     -44.093  57.480 -55.365  1.00  0.00     0.255 C 
HETATM    4  N   UNL     1     -44.312  58.942 -54.973  1.00  0.00    -0.060 N 
HETATM    5  H   UNL     1     -45.323  59.069 -54.859  1.00  0.00     0.280 HD
HETATM    6  C   UNL     1     -43.702  59.216 -53.588  1.00  0.00     0.255 C 
HETATM    7  C   UNL     1     -44.388  58.289 -52.560  1.00  0.00     0.152 C 
ENDROOT
BRANCH   4   8
HETATM    8  C   UNL     1     -43.889  59.951 -56.041  1.00  0.00     0.338 C 
BRANCH   8   9
HETATM    9  C   UNL     1     -42.461  59.829 -56.574  1.00  0.00     0.262 C 
HETATM   10  N   UNL     1     -42.292  59.313 -57.840  1.00  0.00    -0.266 N 
HETATM   11  H   UNL     1     -41.349  59.369 -58.225  1.00  0.00     0.190 HD
HETATM   12  O   UNL     1     -41.480  60.132 -55.897  1.00  0.00    -0.270 OA
BRANCH  10  13
HETATM   13  N   UNL     1     -43.351  59.099 -58.742  1.00  0.00    -0.263 N 
HETATM   14  C   UNL     1     -43.614  57.792 -59.135  1.00  0.00     0.270 C 
HETATM   15  O   UNL     1     -42.814  56.875 -58.972  1.00  0.00    -0.266 OA
HETATM   16  H   UNL     1     -44.137  59.745 -58.658  1.00  0.00     0.190 HD
BRANCH  14  17
HETATM   17  C   UNL     1     -44.921  57.552 -59.796  1.00  0.00     0.033 A 
HETATM   18  C   UNL     1     -45.307  56.231 -60.055  1.00  0.00     0.019 A 
HETATM   19  C   UNL     1     -46.521  55.969 -60.695  1.00  0.00     0.025 A 
HETATM   20  C   UNL     1     -47.338  57.027 -61.091  1.00  0.00     0.034 A 
HETATM   21 CL   UNL     1     -48.825  56.707 -61.891  1.00  0.00    -0.084 Cl
HETATM   22  C   UNL     1     -46.953  58.345 -60.850  1.00  0.00     0.025 A 
HETATM   23  C   UNL     1     -45.744  58.613 -60.201  1.00  0.00     0.019 A 
ENDBRANCH  14  17
ENDBRANCH  10  13
ENDBRANCH   8   9
ENDBRANCH   4   8
BRANCH   1  24
HETATM   24  C   UNL     1     -43.162  56.207 -52.444  1.00  0.00     0.169 A 
HETATM   25  N   UNL     1     -42.729  55.072 -52.948  1.00  0.00    -0.223 NA
HETATM   26  C   UNL     1     -41.585  54.628 -52.301  1.00  0.00     0.076 A 
HETATM   27  C   UNL     1     -41.166  55.436 -51.265  1.00  0.00     0.085 A 
HETATM   28  S   UNL     1     -42.217  56.775 -51.110  1.00  0.00    -0.062 SA
BRANCH  26  29
HETATM   29  C   UNL     1     -40.891  53.422 -52.739  1.00  0.00    -0.004 A 
HETATM   30  C   UNL     1     -40.312  52.527 -51.829  1.00  0.00     0.050 A 
HETATM   31  C   UNL     1     -39.638  51.381 -52.271  1.00  0.00     0.069 A 
HETATM   32  C   UNL     1     -39.540  51.126 -53.638  1.00  0.00     0.037 A 
HETATM   33  C   UNL     1     -40.119  52.005 -54.555  1.00  0.00     0.004 A 
HETATM   34  C   UNL     1     -40.791  53.144 -54.108  1.00  0.00     0.014 A 
BRANCH  31  35
HETATM   35  O   UNL     1     -39.125  50.604 -51.269  1.00  0.00    -0.356 OA
HETATM   36  C   UNL     1     -40.044  50.118 -50.296  1.00  0.00     0.210 C 
ENDBRANCH  31  35
ENDBRANCH  26  29
ENDBRANCH   1  24
TORSDOF 7
ENDMDL
MODEL 10
REMARK VINA RESULT:      -8.2      5.450      8.990
REMARK  7 active torsions:
REMARK  status: ('A' for Active; 'I' for Inactive)
REMARK    1  A    between atoms: O_2  and  C_3 
REMARK    2  A    between atoms: C_5  and  C_6 
REMARK    3  A    between atoms: C_8  and  N_9 
REMARK    4  A    between atoms: N_12  and  C_14 
REMARK    5  A    between atoms: C_14  and  C_15 
REMARK       I    between atoms: C_15  and  N_16 
REMARK    6  A    between atoms: N_16  and  N_17 
REMARK       I    between atoms: N_17  and  C_18 
REMARK    7  A    between atoms: C_18  and  C_19 
ROOT
HETATM    1  N   UNL     1     -43.842  60.537 -55.519  1.00  0.00    -0.357 N 
HETATM    2  C   UNL     1     -42.377  60.469 -55.626  1.00  0.00     0.152 C 
HETATM    3  C   UNL     1     -41.833  59.214 -54.901  1.00  0.00     0.255 C 
HETATM    4  N   UNL     1     -42.325  59.210 -53.454  1.00  0.00    -0.060 N 
HETATM    5  H   UNL     1     -42.038  60.103 -53.041  1.00  0.00     0.280 HD
HETATM    6  C   UNL     1     -43.862  59.213 -53.417  1.00  0.00     0.255 C 
HETATM    7  C   UNL     1     -44.365  60.483 -54.138  1.00  0.00     0.152 C 
ENDROOT
BRANCH   4   8
HETATM    8  C   UNL     1     -41.692  58.130 -52.576  1.00  0.00     0.338 C 
BRANCH   8   9
HETATM    9  C   UNL     1     -41.766  58.343 -51.063  1.00  0.00     0.262 C 
HETATM   10  N   UNL     1     -41.430  57.284 -50.249  1.00  0.00    -0.266 N 
HETATM   11  H   UNL     1     -41.355  57.490 -49.253  1.00  0.00     0.190 HD
HETATM   12  O   UNL     1     -42.154  59.401 -50.569  1.00  0.00    -0.270 OA
BRANCH  10  13
HETATM   13  N   UNL     1     -40.821  56.105 -50.718  1.00  0.00    -0.263 N 
HETATM   14  C   UNL     1     -41.625  54.985 -50.890  1.00  0.00     0.270 C 
HETATM   15  O   UNL     1     -42.743  54.887 -50.394  1.00  0.00    -0.266 OA
HETATM   16  H   UNL     1     -40.037  56.240 -51.357  1.00  0.00     0.190 HD
BRANCH  14  17
HETATM   17  C   UNL     1     -41.050  53.878 -51.695  1.00  0.00     0.033 A 
HETATM   18  C   UNL     1     -41.444  53.752 -53.034  1.00  0.00     0.019 A 
HETATM   19  C   UNL     1     -40.939  52.710 -53.816  1.00  0.00     0.025 A 
HETATM   20  C   UNL     1     -40.056  51.787 -53.256  1.00  0.00     0.034 A 
HETATM   21 CL   UNL     1     -39.445  50.497 -54.212  1.00  0.00    -0.084 Cl
HETATM   22  C   UNL     1     -39.673  51.899 -51.919  1.00  0.00     0.025 A 
HETATM   23  C   UNL     1     -40.167  52.944 -51.135  1.00  0.00     0.019 A 
ENDBRANCH  14  17
ENDBRANCH  10  13
ENDBRANCH   8   9
ENDBRANCH   4   8
BRANCH   1  24
HETATM   24  C   UNL     1     -44.642  59.990 -56.490  1.00  0.00     0.169 A 
HETATM   25  N   UNL     1     -44.269  58.951 -57.205  1.00  0.00    -0.223 NA
HETATM   26  C   UNL     1     -45.272  58.540 -58.072  1.00  0.00     0.076 A 
HETATM   27  C   UNL     1     -46.416  59.309 -58.027  1.00  0.00     0.085 A 
HETATM   28  S   UNL     1     -46.232  60.557 -56.873  1.00  0.00    -0.062 SA
BRANCH  26  29
HETATM   29  C   UNL     1     -45.104  57.361 -58.915  1.00  0.00    -0.004 A 
HETATM   30  C   UNL     1     -45.993  57.059 -59.956  1.00  0.00     0.050 A 
HETATM   31  C   UNL     1     -45.821  55.915 -60.745  1.00  0.00     0.069 A 
HETATM   32  C   UNL     1     -44.748  55.061 -60.493  1.00  0.00     0.037 A 
HETATM   33  C   UNL     1     -43.850  55.354 -59.465  1.00  0.00     0.004 A 
HETATM   34  C   UNL     1     -44.026  56.497 -58.683  1.00  0.00     0.014 A 
BRANCH  31  35
HETATM   35  O   UNL     1     -46.767  55.752 -61.720  1.00  0.00    -0.356 OA
HETATM   36  C   UNL     1     -47.900  56.612 -61.667  1.00  0.00     0.210 C 
ENDBRANCH  31  35
ENDBRANCH  26  29
ENDBRANCH   1  24
TORSDOF 7
ENDMDL
