MODEL 1
REMARK VINA RESULT:      -9.0      0.000      0.000
REMARK  3 active torsions:
REMARK  status: ('A' for Active; 'I' for Inactive)
REMARK    1  A    between atoms: C_4  and  C_5 
REMARK    2  A    between atoms: C_14  and  C_15 
REMARK       I    between atoms: C_15  and  N_16 
REMARK    3  A    between atoms: N_16  and  C_17 
ROOT
HETATM    1  C   UNL     1     -41.258  56.660 -52.602  1.00  0.00     0.222 A 
HETATM    2  N   UNL     1     -41.258  58.007 -52.036  1.00  0.00    -0.090 N 
HETATM    3  C   UNL     1     -41.243  58.287 -50.700  1.00  0.00     0.735 A 
HETATM    4  N   UNL     1     -41.165  59.587 -50.553  1.00  0.00     0.030 NA
HETATM    5  N   UNL     1     -41.084  60.104 -51.832  1.00  0.00     0.033 NA
HETATM    6  N   UNL     1     -41.106  59.139 -52.745  1.00  0.00     0.012 NA
HETATM    7  N   UNL     1     -41.274  57.270 -49.818  1.00  0.00    -0.191 N 
HETATM    8  C   UNL     1     -41.290  55.932 -50.196  1.00  0.00     0.037 A 
HETATM    9  C   UNL     1     -41.293  54.937 -49.058  1.00  0.00     0.070 C 
HETATM   10  C   UNL     1     -41.276  55.594 -51.511  1.00  0.00     0.064 A 
HETATM   11  H   UNL     1     -41.272  57.479 -48.823  1.00  0.00     0.184 HD
ENDROOT
BRANCH  10  12
HETATM   12  C   UNL     1     -41.397  54.162 -51.929  1.00  0.00     0.256 C 
HETATM   13  N   UNL     1     -40.202  53.562 -52.265  1.00  0.00    -0.323 N 
HETATM   14  H   UNL     1     -39.359  54.119 -52.265  1.00  0.00     0.169 HD
HETATM   15  O   UNL     1     -42.506  53.640 -51.963  1.00  0.00    -0.267 OA
BRANCH  13  16
HETATM   16  C   UNL     1     -40.005  52.219 -52.663  1.00  0.00     0.035 A 
HETATM   17  C   UNL     1     -40.111  51.768 -53.979  1.00  0.00     0.029 A 
HETATM   18  C   UNL     1     -39.919  50.416 -54.285  1.00  0.00     0.002 A 
HETATM   19  C   UNL     1     -39.615  49.506 -53.277  1.00  0.00     0.000 A 
HETATM   20  C   UNL     1     -39.505  49.944 -51.961  1.00  0.00     0.002 A 
HETATM   21  C   UNL     1     -39.702  51.293 -51.655  1.00  0.00     0.029 A 
ENDBRANCH  13  16
ENDBRANCH  10  12
BRANCH   1  22
HETATM   22  C   UNL     1     -42.361  56.538 -53.604  1.00  0.00     0.083 A 
HETATM   23  O   UNL     1     -41.984  56.149 -54.859  1.00  0.00    -0.317 OA
HETATM   24  C   UNL     1     -43.115  56.076 -55.613  1.00  0.00     0.049 A 
HETATM   25  C   UNL     1     -42.943  55.687 -57.027  1.00  0.00     0.076 C 
HETATM   26  C   UNL     1     -44.215  56.405 -54.852  1.00  0.00     0.035 A 
HETATM   27  C   UNL     1     -43.732  56.697 -53.554  1.00  0.00     0.038 A 
ENDBRANCH   1  22
TORSDOF 3
ENDMDL
MODEL 2
REMARK VINA RESULT:      -8.0      2.536      5.363
REMARK  3 active torsions:
REMARK  status: ('A' for Active; 'I' for Inactive)
REMARK    1  A    between atoms: C_4  and  C_5 
REMARK    2  A    between atoms: C_14  and  C_15 
REMARK       I    between atoms: C_15  and  N_16 
REMARK    3  A    between atoms: N_16  and  C_17 
ROOT
HETATM    1  C   UNL     1     -41.147  55.591 -51.292  1.00  0.00     0.222 A 
HETATM    2  N   UNL     1     -41.026  54.861 -50.033  1.00  0.00    -0.090 N 
HETATM    3  C   UNL     1     -40.708  53.538 -49.931  1.00  0.00     0.735 A 
HETATM    4  N   UNL     1     -40.606  53.236 -48.660  1.00  0.00     0.030 NA
HETATM    5  N   UNL     1     -40.821  54.417 -47.976  1.00  0.00     0.033 NA
HETATM    6  N   UNL     1     -41.046  55.425 -48.812  1.00  0.00     0.012 NA
HETATM    7  N   UNL     1     -40.532  52.819 -51.056  1.00  0.00    -0.191 N 
HETATM    8  C   UNL     1     -40.626  53.363 -52.333  1.00  0.00     0.037 A 
HETATM    9  C   UNL     1     -40.365  52.401 -53.468  1.00  0.00     0.070 C 
HETATM   10  C   UNL     1     -40.911  54.681 -52.493  1.00  0.00     0.064 A 
HETATM   11  H   UNL     1     -40.304  51.831 -50.980  1.00  0.00     0.184 HD
ENDROOT
BRANCH  10  12
HETATM   12  C   UNL     1     -41.115  55.253 -53.861  1.00  0.00     0.256 C 
HETATM   13  N   UNL     1     -42.434  55.322 -54.260  1.00  0.00    -0.323 N 
HETATM   14  H   UNL     1     -43.148  54.944 -53.653  1.00  0.00     0.169 HD
HETATM   15  O   UNL     1     -40.139  55.591 -54.520  1.00  0.00    -0.267 OA
BRANCH  13  16
HETATM   16  C   UNL     1     -42.928  55.841 -55.479  1.00  0.00     0.035 A 
HETATM   17  C   UNL     1     -42.773  55.217 -56.717  1.00  0.00     0.029 A 
HETATM   18  C   UNL     1     -43.279  55.810 -57.880  1.00  0.00     0.002 A 
HETATM   19  C   UNL     1     -43.947  57.029 -57.812  1.00  0.00     0.000 A 
HETATM   20  C   UNL     1     -44.109  57.660 -56.582  1.00  0.00     0.002 A 
HETATM   21  C   UNL     1     -43.599  57.071 -55.422  1.00  0.00     0.029 A 
ENDBRANCH  13  16
ENDBRANCH  10  12
BRANCH   1  22
HETATM   22  C   UNL     1     -42.449  56.327 -51.321  1.00  0.00     0.083 A 
HETATM   23  O   UNL     1     -42.414  57.578 -51.870  1.00  0.00    -0.317 OA
HETATM   24  C   UNL     1     -43.681  58.072 -51.826  1.00  0.00     0.049 A 
HETATM   25  C   UNL     1     -43.879  59.436 -52.356  1.00  0.00     0.076 C 
HETATM   26  C   UNL     1     -44.532  57.147 -51.261  1.00  0.00     0.035 A 
HETATM   27  C   UNL     1     -43.740  56.018 -50.941  1.00  0.00     0.038 A 
ENDBRANCH   1  22
TORSDOF 3
ENDMDL
MODEL 3
REMARK VINA RESULT:      -7.7      1.890      6.089
REMARK  3 active torsions:
REMARK  status: ('A' for Active; 'I' for Inactive)
REMARK    1  A    between atoms: C_4  and  C_5 
REMARK    2  A    between atoms: C_14  and  C_15 
REMARK       I    between atoms: C_15  and  N_16 
REMARK    3  A    between atoms: N_16  and  C_17 
ROOT
HETATM    1  C   UNL     1     -41.742  53.660 -52.864  1.00  0.00     0.222 A 
HETATM    2  N   UNL     1     -40.909  52.550 -53.321  1.00  0.00    -0.090 N 
HETATM    3  C   UNL     1     -39.834  52.055 -52.640  1.00  0.00     0.735 A 
HETATM    4  N   UNL     1     -39.375  51.017 -53.294  1.00  0.00     0.030 NA
HETATM    5  N   UNL     1     -40.221  50.851 -54.374  1.00  0.00     0.033 NA
HETATM    6  N   UNL     1     -41.184  51.766 -54.378  1.00  0.00     0.012 NA
HETATM    7  N   UNL     1     -39.466  52.639 -51.485  1.00  0.00    -0.191 N 
HETATM    8  C   UNL     1     -40.147  53.714 -50.922  1.00  0.00     0.037 A 
HETATM    9  C   UNL     1     -39.597  54.212 -49.605  1.00  0.00     0.070 C 
HETATM   10  C   UNL     1     -41.240  54.229 -51.541  1.00  0.00     0.064 A 
HETATM   11  H   UNL     1     -38.661  52.276 -50.982  1.00  0.00     0.184 HD
ENDROOT
BRANCH  10  12
HETATM   12  C   UNL     1     -41.917  55.448 -50.998  1.00  0.00     0.256 C 
HETATM   13  N   UNL     1     -41.446  56.639 -51.510  1.00  0.00    -0.323 N 
HETATM   14  H   UNL     1     -40.665  56.620 -52.151  1.00  0.00     0.169 HD
HETATM   15  O   UNL     1     -42.796  55.319 -50.154  1.00  0.00    -0.267 OA
BRANCH  13  16
HETATM   16  C   UNL     1     -41.913  57.940 -51.208  1.00  0.00     0.035 A 
HETATM   17  C   UNL     1     -43.164  58.430 -51.581  1.00  0.00     0.029 A 
HETATM   18  C   UNL     1     -43.540  59.738 -51.257  1.00  0.00     0.002 A 
HETATM   19  C   UNL     1     -42.669  60.565 -50.553  1.00  0.00     0.000 A 
HETATM   20  C   UNL     1     -41.418  60.086 -50.174  1.00  0.00     0.002 A 
HETATM   21  C   UNL     1     -41.041  58.781 -50.503  1.00  0.00     0.029 A 
ENDBRANCH  13  16
ENDBRANCH  10  12
BRANCH   1  22
HETATM   22  C   UNL     1     -41.876  54.669 -53.960  1.00  0.00     0.083 A 
HETATM   23  O   UNL     1     -43.042  55.382 -53.972  1.00  0.00    -0.317 OA
HETATM   24  C   UNL     1     -42.970  56.252 -55.016  1.00  0.00     0.049 A 
HETATM   25  C   UNL     1     -44.141  57.124 -55.234  1.00  0.00     0.076 C 
HETATM   26  C   UNL     1     -41.764  56.111 -55.669  1.00  0.00     0.035 A 
HETATM   27  C   UNL     1     -41.055  55.094 -54.986  1.00  0.00     0.038 A 
ENDBRANCH   1  22
TORSDOF 3
ENDMDL
MODEL 4
REMARK VINA RESULT:      -7.7      4.226      6.182
REMARK  3 active torsions:
REMARK  status: ('A' for Active; 'I' for Inactive)
REMARK    1  A    between atoms: C_4  and  C_5 
REMARK    2  A    between atoms: C_14  and  C_15 
REMARK       I    between atoms: C_15  and  N_16 
REMARK    3  A    between atoms: N_16  and  C_17 
ROOT
HETATM    1  C   UNL     1     -42.212  57.564 -58.595  1.00  0.00     0.222 A 
HETATM    2  N   UNL     1     -42.134  58.779 -59.403  1.00  0.00    -0.090 N 
HETATM    3  C   UNL     1     -42.103  60.046 -58.896  1.00  0.00     0.735 A 
HETATM    4  N   UNL     1     -41.948  60.883 -59.893  1.00  0.00     0.030 NA
HETATM    5  N   UNL     1     -41.837  60.100 -61.026  1.00  0.00     0.033 NA
HETATM    6  N   UNL     1     -41.915  58.807 -60.729  1.00  0.00     0.012 NA
HETATM    7  N   UNL     1     -42.194  60.221 -57.565  1.00  0.00    -0.191 N 
HETATM    8  C   UNL     1     -42.288  59.168 -56.661  1.00  0.00     0.037 A 
HETATM    9  C   UNL     1     -42.350  59.567 -55.205  1.00  0.00     0.070 C 
HETATM   10  C   UNL     1     -42.293  57.885 -57.106  1.00  0.00     0.064 A 
HETATM   11  H   UNL     1     -42.179  61.165 -57.188  1.00  0.00     0.184 HD
ENDROOT
BRANCH  10  12
HETATM   12  C   UNL     1     -42.498  56.751 -56.152  1.00  0.00     0.256 C 
HETATM   13  N   UNL     1     -41.338  56.108 -55.772  1.00  0.00    -0.323 N 
HETATM   14  H   UNL     1     -40.463  56.392 -56.189  1.00  0.00     0.169 HD
HETATM   15  O   UNL     1     -43.636  56.465 -55.797  1.00  0.00    -0.267 OA
BRANCH  13  16
HETATM   16  C   UNL     1     -41.221  55.030 -54.864  1.00  0.00     0.035 A 
HETATM   17  C   UNL     1     -41.873  54.968 -53.632  1.00  0.00     0.029 A 
HETATM   18  C   UNL     1     -41.687  53.870 -52.784  1.00  0.00     0.002 A 
HETATM   19  C   UNL     1     -40.850  52.824 -53.164  1.00  0.00     0.000 A 
HETATM   20  C   UNL     1     -40.196  52.874 -54.391  1.00  0.00     0.002 A 
HETATM   21  C   UNL     1     -40.378  53.973 -55.235  1.00  0.00     0.029 A 
ENDBRANCH  13  16
ENDBRANCH  10  12
BRANCH   1  22
HETATM   22  C   UNL     1     -43.321  56.696 -59.101  1.00  0.00     0.083 A 
HETATM   23  O   UNL     1     -44.559  57.273 -59.136  1.00  0.00    -0.317 OA
HETATM   24  C   UNL     1     -45.420  56.346 -59.638  1.00  0.00     0.049 A 
HETATM   25  C   UNL     1     -46.836  56.750 -59.751  1.00  0.00     0.076 C 
HETATM   26  C   UNL     1     -44.744  55.182 -59.935  1.00  0.00     0.035 A 
HETATM   27  C   UNL     1     -43.389  55.408 -59.595  1.00  0.00     0.038 A 
ENDBRANCH   1  22
TORSDOF 3
ENDMDL
MODEL 5
REMARK VINA RESULT:      -7.6      2.030      4.133
REMARK  3 active torsions:
REMARK  status: ('A' for Active; 'I' for Inactive)
REMARK    1  A    between atoms: C_4  and  C_5 
REMARK    2  A    between atoms: C_14  and  C_15 
REMARK       I    between atoms: C_15  and  N_16 
REMARK    3  A    between atoms: N_16  and  C_17 
ROOT
HETATM    1  C   UNL     1     -43.484  57.252 -53.087  1.00  0.00     0.222 A 
HETATM    2  N   UNL     1     -43.734  58.626 -53.515  1.00  0.00    -0.090 N 
HETATM    3  C   UNL     1     -43.729  59.047 -54.813  1.00  0.00     0.735 A 
HETATM    4  N   UNL     1     -44.070  60.312 -54.836  1.00  0.00     0.030 NA
HETATM    5  N   UNL     1     -44.332  60.654 -53.523  1.00  0.00     0.033 NA
HETATM    6  N   UNL     1     -44.162  59.616 -52.712  1.00  0.00     0.012 NA
HETATM    7  N   UNL     1     -43.433  58.165 -55.786  1.00  0.00    -0.191 N 
HETATM    8  C   UNL     1     -43.159  56.823 -55.543  1.00  0.00     0.037 A 
HETATM    9  C   UNL     1     -42.880  55.986 -56.769  1.00  0.00     0.070 C 
HETATM   10  C   UNL     1     -43.178  56.343 -54.273  1.00  0.00     0.064 A 
HETATM   11  H   UNL     1     -43.421  58.481 -56.753  1.00  0.00     0.184 HD
ENDROOT
BRANCH  10  12
HETATM   12  C   UNL     1     -42.784  54.927 -53.991  1.00  0.00     0.256 C 
HETATM   13  N   UNL     1     -41.431  54.736 -53.806  1.00  0.00    -0.323 N 
HETATM   14  H   UNL     1     -40.807  55.522 -53.925  1.00  0.00     0.169 HD
HETATM   15  O   UNL     1     -43.649  54.059 -53.963  1.00  0.00    -0.267 OA
BRANCH  13  16
HETATM   16  C   UNL     1     -40.776  53.521 -53.497  1.00  0.00     0.035 A 
HETATM   17  C   UNL     1     -40.453  52.543 -54.438  1.00  0.00     0.029 A 
HETATM   18  C   UNL     1     -39.821  51.359 -54.043  1.00  0.00     0.002 A 
HETATM   19  C   UNL     1     -39.502  51.146 -52.704  1.00  0.00     0.000 A 
HETATM   20  C   UNL     1     -39.818  52.116 -51.757  1.00  0.00     0.002 A 
HETATM   21  C   UNL     1     -40.455  53.296 -52.151  1.00  0.00     0.029 A 
ENDBRANCH  13  16
ENDBRANCH  10  12
BRANCH   1  22
HETATM   22  C   UNL     1     -42.440  57.242 -52.016  1.00  0.00     0.083 A 
HETATM   23  O   UNL     1     -42.488  56.187 -51.148  1.00  0.00    -0.317 OA
HETATM   24  C   UNL     1     -41.460  56.343 -50.270  1.00  0.00     0.049 A 
HETATM   25  C   UNL     1     -41.326  55.315 -49.219  1.00  0.00     0.076 C 
HETATM   26  C   UNL     1     -40.747  57.483 -50.572  1.00  0.00     0.035 A 
HETATM   27  C   UNL     1     -41.374  58.062 -51.700  1.00  0.00     0.038 A 
ENDBRANCH   1  22
TORSDOF 3
ENDMDL
MODEL 6
REMARK VINA RESULT:      -7.4      2.788      4.850
REMARK  3 active torsions:
REMARK  status: ('A' for Active; 'I' for Inactive)
REMARK    1  A    between atoms: C_4  and  C_5 
REMARK    2  A    between atoms: C_14  and  C_15 
REMARK       I    between atoms: C_15  and  N_16 
REMARK    3  A    between atoms: N_16  and  C_17 
ROOT
HETATM    1  C   UNL     1     -43.754  56.570 -54.507  1.00  0.00     0.222 A 
HETATM    2  N   UNL     1     -43.659  57.264 -55.790  1.00  0.00    -0.090 N 
HETATM    3  C   UNL     1     -42.765  56.955 -56.773  1.00  0.00     0.735 A 
HETATM    4  N   UNL     1     -43.014  57.718 -57.809  1.00  0.00     0.030 NA
HETATM    5  N   UNL     1     -44.116  58.475 -57.461  1.00  0.00     0.033 NA
HETATM    6  N   UNL     1     -44.538  58.177 -56.237  1.00  0.00     0.012 NA
HETATM    7  N   UNL     1     -41.866  55.977 -56.557  1.00  0.00    -0.191 N 
HETATM    8  C   UNL     1     -41.815  55.231 -55.384  1.00  0.00     0.037 A 
HETATM    9  C   UNL     1     -40.753  54.157 -55.344  1.00  0.00     0.070 C 
HETATM   10  C   UNL     1     -42.700  55.475 -54.383  1.00  0.00     0.064 A 
HETATM   11  H   UNL     1     -41.193  55.753 -57.287  1.00  0.00     0.184 HD
ENDROOT
BRANCH  10  12
HETATM   12  C   UNL     1     -42.589  54.749 -53.079  1.00  0.00     0.256 C 
HETATM   13  N   UNL     1     -41.471  55.072 -52.339  1.00  0.00    -0.323 N 
HETATM   14  H   UNL     1     -40.792  55.709 -52.732  1.00  0.00     0.169 HD
HETATM   15  O   UNL     1     -43.452  53.934 -52.772  1.00  0.00    -0.267 OA
BRANCH  13  16
HETATM   16  C   UNL     1     -41.121  54.572 -51.063  1.00  0.00     0.035 A 
HETATM   17  C   UNL     1     -40.597  53.300 -50.835  1.00  0.00     0.029 A 
HETATM   18  C   UNL     1     -40.295  52.877 -49.536  1.00  0.00     0.002 A 
HETATM   19  C   UNL     1     -40.510  53.727 -48.454  1.00  0.00     0.000 A 
HETATM   20  C   UNL     1     -41.031  54.999 -48.668  1.00  0.00     0.002 A 
HETATM   21  C   UNL     1     -41.338  55.419 -49.966  1.00  0.00     0.029 A 
ENDBRANCH  13  16
ENDBRANCH  10  12
BRANCH   1  22
HETATM   22  C   UNL     1     -43.740  57.570 -53.395  1.00  0.00     0.083 A 
HETATM   23  O   UNL     1     -42.505  57.988 -52.986  1.00  0.00    -0.317 OA
HETATM   24  C   UNL     1     -42.698  58.899 -51.993  1.00  0.00     0.049 A 
HETATM   25  C   UNL     1     -41.485  59.479 -51.382  1.00  0.00     0.076 C 
HETATM   26  C   UNL     1     -44.046  59.077 -51.768  1.00  0.00     0.035 A 
HETATM   27  C   UNL     1     -44.720  58.225 -52.675  1.00  0.00     0.038 A 
ENDBRANCH   1  22
TORSDOF 3
ENDMDL
MODEL 7
REMARK VINA RESULT:      -7.4      2.669      4.845
REMARK  3 active torsions:
REMARK  status: ('A' for Active; 'I' for Inactive)
REMARK    1  A    between atoms: C_4  and  C_5 
REMARK    2  A    between atoms: C_14  and  C_15 
REMARK       I    between atoms: C_15  and  N_16 
REMARK    3  A    between atoms: N_16  and  C_17 
ROOT
HETATM    1  C   UNL     1     -43.392  57.948 -54.701  1.00  0.00     0.222 A 
HETATM    2  N   UNL     1     -43.564  59.108 -55.573  1.00  0.00    -0.090 N 
HETATM    3  C   UNL     1     -43.601  59.055 -56.936  1.00  0.00     0.735 A 
HETATM    4  N   UNL     1     -43.851  60.259 -57.388  1.00  0.00     0.030 NA
HETATM    5  N   UNL     1     -44.014  61.053 -56.269  1.00  0.00     0.033 NA
HETATM    6  N   UNL     1     -43.875  60.347 -55.152  1.00  0.00     0.012 NA
HETATM    7  N   UNL     1     -43.425  57.870 -57.550  1.00  0.00    -0.191 N 
HETATM    8  C   UNL     1     -43.235  56.675 -56.863  1.00  0.00     0.037 A 
HETATM    9  C   UNL     1     -43.085  55.446 -57.730  1.00  0.00     0.070 C 
HETATM   10  C   UNL     1     -43.219  56.664 -55.505  1.00  0.00     0.064 A 
HETATM   11  H   UNL     1     -43.443  57.832 -58.566  1.00  0.00     0.184 HD
ENDROOT
BRANCH  10  12
HETATM   12  C   UNL     1     -42.913  55.403 -54.760  1.00  0.00     0.256 C 
HETATM   13  N   UNL     1     -41.570  55.182 -54.538  1.00  0.00    -0.323 N 
HETATM   14  H   UNL     1     -40.898  55.828 -54.926  1.00  0.00     0.169 HD
HETATM   15  O   UNL     1     -43.835  54.667 -54.426  1.00  0.00    -0.267 OA
BRANCH  13  16
HETATM   16  C   UNL     1     -40.990  54.097 -53.839  1.00  0.00     0.035 A 
HETATM   17  C   UNL     1     -40.894  54.022 -52.449  1.00  0.00     0.029 A 
HETATM   18  C   UNL     1     -40.287  52.919 -51.838  1.00  0.00     0.002 A 
HETATM   19  C   UNL     1     -39.776  51.881 -52.612  1.00  0.00     0.000 A 
HETATM   20  C   UNL     1     -39.868  51.944 -53.999  1.00  0.00     0.002 A 
HETATM   21  C   UNL     1     -40.469  53.048 -54.609  1.00  0.00     0.029 A 
ENDBRANCH  13  16
ENDBRANCH  10  12
BRANCH   1  22
HETATM   22  C   UNL     1     -42.294  58.217 -53.722  1.00  0.00     0.083 A 
HETATM   23  O   UNL     1     -42.362  57.523 -52.546  1.00  0.00    -0.317 OA
HETATM   24  C   UNL     1     -41.279  57.882 -51.805  1.00  0.00     0.049 A 
HETATM   25  C   UNL     1     -41.155  57.261 -50.471  1.00  0.00     0.076 C 
HETATM   26  C   UNL     1     -40.512  58.795 -52.496  1.00  0.00     0.035 A 
HETATM   27  C   UNL     1     -41.161  59.007 -53.735  1.00  0.00     0.038 A 
ENDBRANCH   1  22
TORSDOF 3
ENDMDL
MODEL 8
REMARK VINA RESULT:      -7.4      2.022      5.651
REMARK  3 active torsions:
REMARK  status: ('A' for Active; 'I' for Inactive)
REMARK    1  A    between atoms: C_4  and  C_5 
REMARK    2  A    between atoms: C_14  and  C_15 
REMARK       I    between atoms: C_15  and  N_16 
REMARK    3  A    between atoms: N_16  and  C_17 
ROOT
HETATM    1  C   UNL     1     -42.349  54.373 -52.118  1.00  0.00     0.222 A 
HETATM    2  N   UNL     1     -41.713  54.572 -50.818  1.00  0.00    -0.090 N 
HETATM    3  C   UNL     1     -41.765  55.730 -50.098  1.00  0.00     0.735 A 
HETATM    4  N   UNL     1     -41.161  55.531 -48.953  1.00  0.00     0.030 NA
HETATM    5  N   UNL     1     -40.773  54.204 -48.961  1.00  0.00     0.033 NA
HETATM    6  N   UNL     1     -41.138  53.601 -50.087  1.00  0.00     0.012 NA
HETATM    7  N   UNL     1     -42.404  56.795 -50.618  1.00  0.00    -0.191 N 
HETATM    8  C   UNL     1     -43.049  56.773 -51.850  1.00  0.00     0.037 A 
HETATM    9  C   UNL     1     -43.735  58.059 -52.247  1.00  0.00     0.070 C 
HETATM   10  C   UNL     1     -43.054  55.638 -52.597  1.00  0.00     0.064 A 
HETATM   11  H   UNL     1     -42.435  57.661 -50.086  1.00  0.00     0.184 HD
ENDROOT
BRANCH  10  12
HETATM   12  C   UNL     1     -43.655  55.633 -53.967  1.00  0.00     0.256 C 
HETATM   13  N   UNL     1     -43.055  56.499 -54.857  1.00  0.00    -0.323 N 
HETATM   14  H   UNL     1     -42.314  57.101 -54.528  1.00  0.00     0.169 HD
HETATM   15  O   UNL     1     -44.615  54.906 -54.196  1.00  0.00    -0.267 OA
BRANCH  13  16
HETATM   16  C   UNL     1     -43.387  56.684 -56.219  1.00  0.00     0.035 A 
HETATM   17  C   UNL     1     -44.190  57.720 -56.697  1.00  0.00     0.029 A 
HETATM   18  C   UNL     1     -44.485  57.819 -58.061  1.00  0.00     0.002 A 
HETATM   19  C   UNL     1     -43.975  56.886 -58.959  1.00  0.00     0.000 A 
HETATM   20  C   UNL     1     -43.171  55.849 -58.495  1.00  0.00     0.002 A 
HETATM   21  C   UNL     1     -42.881  55.747 -57.132  1.00  0.00     0.029 A 
ENDBRANCH  13  16
ENDBRANCH  10  12
BRANCH   1  22
HETATM   22  C   UNL     1     -41.351  53.819 -53.085  1.00  0.00     0.083 A 
HETATM   23  O   UNL     1     -41.295  52.455 -53.166  1.00  0.00    -0.317 OA
HETATM   24  C   UNL     1     -40.355  52.147 -54.101  1.00  0.00     0.049 A 
HETATM   25  C   UNL     1     -40.111  50.712 -54.345  1.00  0.00     0.076 C 
HETATM   26  C   UNL     1     -39.813  53.300 -54.627  1.00  0.00     0.035 A 
HETATM   27  C   UNL     1     -40.458  54.379 -53.977  1.00  0.00     0.038 A 
ENDBRANCH   1  22
TORSDOF 3
ENDMDL
MODEL 9
REMARK VINA RESULT:      -7.3      2.675      5.934
REMARK  3 active torsions:
REMARK  status: ('A' for Active; 'I' for Inactive)
REMARK    1  A    between atoms: C_4  and  C_5 
REMARK    2  A    between atoms: C_14  and  C_15 
REMARK       I    between atoms: C_15  and  N_16 
REMARK    3  A    between atoms: N_16  and  C_17 
ROOT
HETATM    1  C   UNL     1     -42.938  56.233 -51.958  1.00  0.00     0.222 A 
HETATM    2  N   UNL     1     -42.321  55.620 -50.784  1.00  0.00    -0.090 N 
HETATM    3  C   UNL     1     -41.486  56.268 -49.920  1.00  0.00     0.735 A 
HETATM    4  N   UNL     1     -41.187  55.446 -48.944  1.00  0.00     0.030 NA
HETATM    5  N   UNL     1     -41.895  54.288 -49.199  1.00  0.00     0.033 NA
HETATM    6  N   UNL     1     -42.619  54.399 -50.307  1.00  0.00     0.012 NA
HETATM    7  N   UNL     1     -41.155  57.549 -50.166  1.00  0.00    -0.191 N 
HETATM    8  C   UNL     1     -41.647  58.270 -51.249  1.00  0.00     0.037 A 
HETATM    9  C   UNL     1     -41.183  59.706 -51.337  1.00  0.00     0.070 C 
HETATM   10  C   UNL     1     -42.505  57.685 -52.125  1.00  0.00     0.064 A 
HETATM   11  H   UNL     1     -40.526  58.029 -49.528  1.00  0.00     0.184 HD
ENDROOT
BRANCH  10  12
HETATM   12  C   UNL     1     -42.958  58.419 -53.348  1.00  0.00     0.256 C 
HETATM   13  N   UNL     1     -42.079  58.361 -54.408  1.00  0.00    -0.323 N 
HETATM   14  H   UNL     1     -41.191  57.895 -54.281  1.00  0.00     0.169 HD
HETATM   15  O   UNL     1     -44.029  59.016 -53.325  1.00  0.00    -0.267 OA
BRANCH  13  16
HETATM   16  C   UNL     1     -42.253  58.929 -55.692  1.00  0.00     0.035 A 
HETATM   17  C   UNL     1     -42.166  60.294 -55.963  1.00  0.00     0.029 A 
HETATM   18  C   UNL     1     -42.371  60.775 -57.262  1.00  0.00     0.002 A 
HETATM   19  C   UNL     1     -42.661  59.893 -58.299  1.00  0.00     0.000 A 
HETATM   20  C   UNL     1     -42.749  58.528 -58.041  1.00  0.00     0.002 A 
HETATM   21  C   UNL     1     -42.549  58.049 -56.743  1.00  0.00     0.029 A 
ENDBRANCH  13  16
ENDBRANCH  10  12
BRANCH   1  22
HETATM   22  C   UNL     1     -42.695  55.373 -53.158  1.00  0.00     0.083 A 
HETATM   23  O   UNL     1     -41.386  55.213 -53.519  1.00  0.00    -0.317 OA
HETATM   24  C   UNL     1     -41.368  54.393 -54.605  1.00  0.00     0.049 A 
HETATM   25  C   UNL     1     -40.044  54.091 -55.185  1.00  0.00     0.076 C 
HETATM   26  C   UNL     1     -42.652  54.019 -54.940  1.00  0.00     0.035 A 
HETATM   27  C   UNL     1     -43.508  54.645 -54.004  1.00  0.00     0.038 A 
ENDBRANCH   1  22
TORSDOF 3
ENDMDL
MODEL 10
REMARK VINA RESULT:      -7.2      2.780      5.878
REMARK  3 active torsions:
REMARK  status: ('A' for Active; 'I' for Inactive)
REMARK    1  A    between atoms: C_4  and  C_5 
REMARK    2  A    between atoms: C_14  and  C_15 
REMARK       I    between atoms: C_15  and  N_16 
REMARK    3  A    between atoms: N_16  and  C_17 
ROOT
HETATM    1  C   UNL     1     -42.930  57.344 -53.334  1.00  0.00     0.222 A 
HETATM    2  N   UNL     1     -42.034  57.884 -52.314  1.00  0.00    -0.090 N 
HETATM    3  C   UNL     1     -41.349  59.059 -52.427  1.00  0.00     0.735 A 
HETATM    4  N   UNL     1     -40.712  59.273 -51.302  1.00  0.00     0.030 NA
HETATM    5  N   UNL     1     -41.056  58.224 -50.471  1.00  0.00     0.033 NA
HETATM    6  N   UNL     1     -41.894  57.387 -51.073  1.00  0.00     0.012 NA
HETATM    7  N   UNL     1     -41.453  59.770 -53.564  1.00  0.00    -0.191 N 
HETATM    8  C   UNL     1     -42.254  59.387 -54.635  1.00  0.00     0.037 A 
HETATM    9  C   UNL     1     -42.261  60.334 -55.812  1.00  0.00     0.070 C 
HETATM   10  C   UNL     1     -42.981  58.241 -54.567  1.00  0.00     0.064 A 
HETATM   11  H   UNL     1     -40.936  60.642 -53.652  1.00  0.00     0.184 HD
ENDROOT
BRANCH  10  12
HETATM   12  C   UNL     1     -43.763  57.767 -55.750  1.00  0.00     0.256 C 
HETATM   13  N   UNL     1     -42.994  57.299 -56.794  1.00  0.00    -0.323 N 
HETATM   14  H   UNL     1     -41.987  57.356 -56.723  1.00  0.00     0.169 HD
HETATM   15  O   UNL     1     -44.987  57.840 -55.727  1.00  0.00    -0.267 OA
BRANCH  13  16
HETATM   16  C   UNL     1     -43.455  56.763 -58.019  1.00  0.00     0.035 A 
HETATM   17  C   UNL     1     -43.555  55.398 -58.289  1.00  0.00     0.029 A 
HETATM   18  C   UNL     1     -44.006  54.952 -59.537  1.00  0.00     0.002 A 
HETATM   19  C   UNL     1     -44.364  55.867 -60.522  1.00  0.00     0.000 A 
HETATM   20  C   UNL     1     -44.270  57.231 -60.264  1.00  0.00     0.002 A 
HETATM   21  C   UNL     1     -43.815  57.677 -59.020  1.00  0.00     0.029 A 
ENDBRANCH  13  16
ENDBRANCH  10  12
BRANCH   1  22
HETATM   22  C   UNL     1     -42.566  55.922 -53.619  1.00  0.00     0.083 A 
HETATM   23  O   UNL     1     -41.413  55.734 -54.328  1.00  0.00    -0.317 OA
HETATM   24  C   UNL     1     -41.242  54.391 -54.468  1.00  0.00     0.049 A 
HETATM   25  C   UNL     1     -40.055  53.950 -55.226  1.00  0.00     0.076 C 
HETATM   26  C   UNL     1     -42.271  53.715 -53.847  1.00  0.00     0.035 A 
HETATM   27  C   UNL     1     -43.122  54.700 -53.294  1.00  0.00     0.038 A 
ENDBRANCH   1  22
TORSDOF 3
ENDMDL
