MODEL 1
REMARK VINA RESULT:      -8.3      0.000      0.000
REMARK  6 active torsions:
REMARK  status: ('A' for Active; 'I' for Inactive)
REMARK    1  A    between atoms: C_2  and  S_3 
REMARK    2  A    between atoms: C_2  and  C_18 
REMARK    3  A    between atoms: S_3  and  C_4 
REMARK    4  A    between atoms: C_4  and  C_5 
REMARK       I    between atoms: C_5  and  N_6 
REMARK    5  A    between atoms: N_6  and  C_7 
REMARK    6  A    between atoms: C_10  and  C_11 
REMARK       I    between atoms: C_11  and  N_12 
ROOT
HETATM    1  C   UNL     1     -41.450  57.134 -52.329  1.00  0.00     0.231 C 
HETATM    2  N   UNL     1     -42.453  56.384 -52.929  1.00  0.00    -0.327 N 
HETATM    3  O   UNL     1     -40.552  57.739 -52.908  1.00  0.00    -0.272 OA
HETATM    4  H   UNL     1     -43.119  55.937 -52.310  1.00  0.00     0.169 HD
ENDROOT
BRANCH   1   5
HETATM    5  C   UNL     1     -41.540  57.144 -50.809  1.00  0.00     0.177 C 
BRANCH   5   6
HETATM    6  S   UNL     1     -42.096  55.508 -50.220  1.00  0.00    -0.147 SA
BRANCH   6   7
HETATM    7  C   UNL     1     -40.450  54.726 -50.031  1.00  0.00     0.113 C 
HETATM    8  C   UNL     1     -40.280  54.229 -48.598  1.00  0.00     0.029 C 
BRANCH   7   9
HETATM    9  C   UNL     1     -40.281  53.629 -51.036  1.00  0.00     0.118 A 
HETATM   10  N   UNL     1     -40.486  53.726 -52.335  1.00  0.00    -0.232 NA
HETATM   11  C   UNL     1     -40.231  52.477 -52.846  1.00  0.00     0.085 A 
HETATM   12  C   UNL     1     -39.884  51.588 -51.836  1.00  0.00     0.062 A 
HETATM   13  C   UNL     1     -40.283  52.021 -54.172  1.00  0.00     0.034 A 
HETATM   14  N   UNL     1     -39.927  52.344 -50.693  1.00  0.00    -0.342 N 
HETATM   15  C   UNL     1     -39.582  50.245 -52.065  1.00  0.00     0.032 A 
HETATM   16  H   UNL     1     -39.748  52.014 -49.756  1.00  0.00     0.167 HD
HETATM   17  C   UNL     1     -39.638  49.807 -53.393  1.00  0.00     0.002 A 
HETATM   18  C   UNL     1     -39.982  50.678 -54.431  1.00  0.00     0.002 A 
ENDBRANCH   7   9
ENDBRANCH   6   7
ENDBRANCH   5   6
ENDBRANCH   1   5
BRANCH   2  19
HETATM   19  C   UNL     1     -42.647  56.163 -54.308  1.00  0.00     0.034 A 
HETATM   20  C   UNL     1     -42.594  54.905 -54.913  1.00  0.00     0.030 A 
HETATM   21  C   UNL     1     -42.806  54.762 -56.291  1.00  0.00     0.019 A 
HETATM   22  C   UNL     1     -43.092  55.879 -57.081  1.00  0.00     0.032 A 
HETATM   23  C   UNL     1     -43.124  57.144 -56.483  1.00  0.00     0.019 A 
HETATM   24  C   UNL     1     -42.903  57.283 -55.108  1.00  0.00     0.030 A 
BRANCH  22  25
HETATM   25  C   UNL     1     -43.339  55.781 -58.550  1.00  0.00     0.251 C 
HETATM   26  N   UNL     1     -44.329  54.909 -58.954  1.00  0.00    -0.361 N 
HETATM   27  C   UNL     1     -44.704  54.776 -60.341  1.00  0.00     0.149 C 
HETATM   28  H   UNL     1     -44.948  54.505 -58.266  1.00  0.00     0.162 HD
HETATM   29  O   UNL     1     -42.695  56.480 -59.324  1.00  0.00    -0.268 OA
ENDBRANCH  22  25
ENDBRANCH   2  19
TORSDOF 6
ENDMDL
MODEL 2
REMARK VINA RESULT:      -7.8      1.045      1.799
REMARK  6 active torsions:
REMARK  status: ('A' for Active; 'I' for Inactive)
REMARK    1  A    between atoms: C_2  and  S_3 
REMARK    2  A    between atoms: C_2  and  C_18 
REMARK    3  A    between atoms: S_3  and  C_4 
REMARK    4  A    between atoms: C_4  and  C_5 
REMARK       I    between atoms: C_5  and  N_6 
REMARK    5  A    between atoms: N_6  and  C_7 
REMARK    6  A    between atoms: C_10  and  C_11 
REMARK       I    between atoms: C_11  and  N_12 
ROOT
HETATM    1  C   UNL     1     -42.482  56.262 -52.477  1.00  0.00     0.231 C 
HETATM    2  N   UNL     1     -41.866  56.640 -53.662  1.00  0.00    -0.327 N 
HETATM    3  O   UNL     1     -43.603  55.773 -52.367  1.00  0.00    -0.272 OA
HETATM    4  H   UNL     1     -40.937  57.037 -53.586  1.00  0.00     0.169 HD
ENDROOT
BRANCH   1   5
HETATM    5  C   UNL     1     -41.623  56.524 -51.248  1.00  0.00     0.177 C 
BRANCH   5   6
HETATM    6  S   UNL     1     -41.941  55.235 -49.996  1.00  0.00    -0.147 SA
BRANCH   6   7
HETATM    7  C   UNL     1     -40.258  54.514 -49.929  1.00  0.00     0.113 C 
HETATM    8  C   UNL     1     -39.930  54.108 -48.495  1.00  0.00     0.029 C 
BRANCH   7   9
HETATM    9  C   UNL     1     -40.150  53.366 -50.884  1.00  0.00     0.118 A 
HETATM   10  N   UNL     1     -39.898  52.111 -50.567  1.00  0.00    -0.232 NA
HETATM   11  C   UNL     1     -39.870  51.425 -51.756  1.00  0.00     0.085 A 
HETATM   12  C   UNL     1     -40.088  52.281 -52.828  1.00  0.00     0.062 A 
HETATM   13  C   UNL     1     -39.656  50.061 -52.001  1.00  0.00     0.034 A 
HETATM   14  N   UNL     1     -40.260  53.511 -52.248  1.00  0.00    -0.342 N 
HETATM   15  C   UNL     1     -40.105  51.858 -54.159  1.00  0.00     0.032 A 
HETATM   16  H   UNL     1     -40.421  54.381 -52.735  1.00  0.00     0.167 HD
HETATM   17  C   UNL     1     -39.890  50.493 -54.385  1.00  0.00     0.002 A 
HETATM   18  C   UNL     1     -39.670  49.608 -53.326  1.00  0.00     0.002 A 
ENDBRANCH   7   9
ENDBRANCH   6   7
ENDBRANCH   5   6
ENDBRANCH   1   5
BRANCH   2  19
HETATM   19  C   UNL     1     -42.391  56.543 -54.967  1.00  0.00     0.034 A 
HETATM   20  C   UNL     1     -43.129  57.553 -55.590  1.00  0.00     0.030 A 
HETATM   21  C   UNL     1     -43.612  57.389 -56.895  1.00  0.00     0.019 A 
HETATM   22  C   UNL     1     -43.346  56.213 -57.603  1.00  0.00     0.032 A 
HETATM   23  C   UNL     1     -42.627  55.191 -56.976  1.00  0.00     0.019 A 
HETATM   24  C   UNL     1     -42.154  55.355 -55.669  1.00  0.00     0.030 A 
BRANCH  22  25
HETATM   25  C   UNL     1     -43.826  55.992 -59.000  1.00  0.00     0.251 C 
HETATM   26  N   UNL     1     -45.162  56.235 -59.241  1.00  0.00    -0.361 N 
HETATM   27  C   UNL     1     -45.728  56.120 -60.563  1.00  0.00     0.149 C 
HETATM   28  H   UNL     1     -45.719  56.698 -58.537  1.00  0.00     0.162 HD
HETATM   29  O   UNL     1     -43.034  55.642 -59.868  1.00  0.00    -0.268 OA
ENDBRANCH  22  25
ENDBRANCH   2  19
TORSDOF 6
ENDMDL
MODEL 3
REMARK VINA RESULT:      -7.7      1.548      1.955
REMARK  6 active torsions:
REMARK  status: ('A' for Active; 'I' for Inactive)
REMARK    1  A    between atoms: C_2  and  S_3 
REMARK    2  A    between atoms: C_2  and  C_18 
REMARK    3  A    between atoms: S_3  and  C_4 
REMARK    4  A    between atoms: C_4  and  C_5 
REMARK       I    between atoms: C_5  and  N_6 
REMARK    5  A    between atoms: N_6  and  C_7 
REMARK    6  A    between atoms: C_10  and  C_11 
REMARK       I    between atoms: C_11  and  N_12 
ROOT
HETATM    1  C   UNL     1     -42.056  58.585 -53.670  1.00  0.00     0.231 C 
HETATM    2  N   UNL     1     -42.968  57.666 -54.174  1.00  0.00    -0.327 N 
HETATM    3  O   UNL     1     -41.166  59.145 -54.305  1.00  0.00    -0.272 OA
HETATM    4  H   UNL     1     -43.640  57.287 -53.518  1.00  0.00     0.169 HD
ENDROOT
BRANCH   1   5
HETATM    5  C   UNL     1     -42.241  58.856 -52.184  1.00  0.00     0.177 C 
BRANCH   5   6
HETATM    6  S   UNL     1     -40.882  58.076 -51.248  1.00  0.00    -0.147 SA
BRANCH   6   7
HETATM    7  C   UNL     1     -41.774  56.573 -50.698  1.00  0.00     0.113 C 
HETATM    8  C   UNL     1     -43.278  56.784 -50.846  1.00  0.00     0.029 C 
BRANCH   7   9
HETATM    9  C   UNL     1     -41.290  55.378 -51.460  1.00  0.00     0.118 A 
HETATM   10  N   UNL     1     -41.474  55.148 -52.745  1.00  0.00    -0.232 NA
HETATM   11  C   UNL     1     -40.882  53.934 -52.995  1.00  0.00     0.085 A 
HETATM   12  C   UNL     1     -40.343  53.397 -51.832  1.00  0.00     0.062 A 
HETATM   13  C   UNL     1     -40.772  53.219 -54.196  1.00  0.00     0.034 A 
HETATM   14  N   UNL     1     -40.619  54.332 -50.869  1.00  0.00    -0.342 N 
HETATM   15  C   UNL     1     -39.689  52.164 -51.787  1.00  0.00     0.032 A 
HETATM   16  H   UNL     1     -40.387  54.261 -49.888  1.00  0.00     0.167 HD
HETATM   17  C   UNL     1     -39.587  51.464 -52.995  1.00  0.00     0.002 A 
HETATM   18  C   UNL     1     -40.118  51.980 -54.180  1.00  0.00     0.002 A 
ENDBRANCH   7   9
ENDBRANCH   6   7
ENDBRANCH   5   6
ENDBRANCH   1   5
BRANCH   2  19
HETATM   19  C   UNL     1     -43.060  57.191 -55.498  1.00  0.00     0.034 A 
HETATM   20  C   UNL     1     -42.459  56.014 -55.950  1.00  0.00     0.030 A 
HETATM   21  C   UNL     1     -42.602  55.599 -57.281  1.00  0.00     0.019 A 
HETATM   22  C   UNL     1     -43.367  56.353 -58.176  1.00  0.00     0.032 A 
HETATM   23  C   UNL     1     -43.953  57.544 -57.734  1.00  0.00     0.019 A 
HETATM   24  C   UNL     1     -43.799  57.959 -56.406  1.00  0.00     0.030 A 
BRANCH  22  25
HETATM   25  C   UNL     1     -43.563  55.950 -59.601  1.00  0.00     0.251 C 
HETATM   26  N   UNL     1     -44.798  55.434 -59.933  1.00  0.00    -0.361 N 
HETATM   27  C   UNL     1     -45.129  55.070 -61.289  1.00  0.00     0.149 C 
HETATM   28  H   UNL     1     -45.559  55.497 -59.271  1.00  0.00     0.162 HD
HETATM   29  O   UNL     1     -42.658  56.115 -60.410  1.00  0.00    -0.268 OA
ENDBRANCH  22  25
ENDBRANCH   2  19
TORSDOF 6
ENDMDL
MODEL 4
REMARK VINA RESULT:      -7.5      2.777      7.770
REMARK  6 active torsions:
REMARK  status: ('A' for Active; 'I' for Inactive)
REMARK    1  A    between atoms: C_2  and  S_3 
REMARK    2  A    between atoms: C_2  and  C_18 
REMARK    3  A    between atoms: S_3  and  C_4 
REMARK    4  A    between atoms: C_4  and  C_5 
REMARK       I    between atoms: C_5  and  N_6 
REMARK    5  A    between atoms: N_6  and  C_7 
REMARK    6  A    between atoms: C_10  and  C_11 
REMARK       I    between atoms: C_11  and  N_12 
ROOT
HETATM    1  C   UNL     1     -42.343  57.299 -54.655  1.00  0.00     0.231 C 
HETATM    2  N   UNL     1     -41.185  56.787 -54.087  1.00  0.00    -0.327 N 
HETATM    3  O   UNL     1     -43.292  56.645 -55.081  1.00  0.00    -0.272 OA
HETATM    4  H   UNL     1     -40.489  57.460 -53.789  1.00  0.00     0.169 HD
ENDROOT
BRANCH   1   5
HETATM    5  C   UNL     1     -42.351  58.819 -54.729  1.00  0.00     0.177 C 
BRANCH   5   6
HETATM    6  S   UNL     1     -44.000  59.395 -55.259  1.00  0.00    -0.147 SA
BRANCH   6   7
HETATM    7  C   UNL     1     -43.605  59.738 -57.015  1.00  0.00     0.113 C 
HETATM    8  C   UNL     1     -42.113  60.022 -57.160  1.00  0.00     0.029 C 
BRANCH   7   9
HETATM    9  C   UNL     1     -44.053  58.598 -57.876  1.00  0.00     0.118 A 
HETATM   10  N   UNL     1     -45.231  58.476 -58.457  1.00  0.00    -0.232 NA
HETATM   11  C   UNL     1     -45.199  57.273 -59.118  1.00  0.00     0.085 A 
HETATM   12  C   UNL     1     -43.982  56.631 -58.920  1.00  0.00     0.062 A 
HETATM   13  C   UNL     1     -46.180  56.655 -59.906  1.00  0.00     0.034 A 
HETATM   14  N   UNL     1     -43.272  57.492 -58.124  1.00  0.00    -0.342 N 
HETATM   15  C   UNL     1     -43.674  55.384 -59.467  1.00  0.00     0.032 A 
HETATM   16  H   UNL     1     -42.342  57.337 -57.763  1.00  0.00     0.167 HD
HETATM   17  C   UNL     1     -44.664  54.782 -60.252  1.00  0.00     0.002 A 
HETATM   18  C   UNL     1     -45.896  55.404 -60.470  1.00  0.00     0.002 A 
ENDBRANCH   7   9
ENDBRANCH   6   7
ENDBRANCH   5   6
ENDBRANCH   1   5
BRANCH   2  19
HETATM   19  C   UNL     1     -40.859  55.430 -53.883  1.00  0.00     0.034 A 
HETATM   20  C   UNL     1     -40.415  54.573 -54.893  1.00  0.00     0.030 A 
HETATM   21  C   UNL     1     -40.101  53.236 -54.613  1.00  0.00     0.019 A 
HETATM   22  C   UNL     1     -40.212  52.743 -53.310  1.00  0.00     0.032 A 
HETATM   23  C   UNL     1     -40.678  53.592 -52.300  1.00  0.00     0.019 A 
HETATM   24  C   UNL     1     -40.999  54.924 -52.585  1.00  0.00     0.030 A 
BRANCH  22  25
HETATM   25  C   UNL     1     -39.878  51.332 -52.955  1.00  0.00     0.251 C 
HETATM   26  N   UNL     1     -39.666  51.064 -51.618  1.00  0.00    -0.361 N 
HETATM   27  C   UNL     1     -39.401  49.727 -51.145  1.00  0.00     0.149 C 
HETATM   28  H   UNL     1     -39.898  51.763 -50.927  1.00  0.00     0.162 HD
HETATM   29  O   UNL     1     -39.835  50.477 -53.832  1.00  0.00    -0.268 OA
ENDBRANCH  22  25
ENDBRANCH   2  19
TORSDOF 6
ENDMDL
MODEL 5
REMARK VINA RESULT:      -7.5      2.760      7.203
REMARK  6 active torsions:
REMARK  status: ('A' for Active; 'I' for Inactive)
REMARK    1  A    between atoms: C_2  and  S_3 
REMARK    2  A    between atoms: C_2  and  C_18 
REMARK    3  A    between atoms: S_3  and  C_4 
REMARK    4  A    between atoms: C_4  and  C_5 
REMARK       I    between atoms: C_5  and  N_6 
REMARK    5  A    between atoms: N_6  and  C_7 
REMARK    6  A    between atoms: C_10  and  C_11 
REMARK       I    between atoms: C_11  and  N_12 
ROOT
HETATM    1  C   UNL     1     -41.097  58.621 -53.692  1.00  0.00     0.231 C 
HETATM    2  N   UNL     1     -41.820  57.467 -53.962  1.00  0.00    -0.327 N 
HETATM    3  O   UNL     1     -39.921  58.675 -53.342  1.00  0.00    -0.272 OA
HETATM    4  H   UNL     1     -42.787  57.589 -54.235  1.00  0.00     0.169 HD
ENDROOT
BRANCH   1   5
HETATM    5  C   UNL     1     -41.918  59.892 -53.861  1.00  0.00     0.177 C 
BRANCH   5   6
HETATM    6  S   UNL     1     -43.665  59.455 -54.152  1.00  0.00    -0.147 SA
BRANCH   6   7
HETATM    7  C   UNL     1     -43.822  60.123 -55.851  1.00  0.00     0.113 C 
HETATM    8  C   UNL     1     -42.697  61.118 -56.118  1.00  0.00     0.029 C 
BRANCH   7   9
HETATM    9  C   UNL     1     -43.837  59.003 -56.846  1.00  0.00     0.118 A 
HETATM   10  N   UNL     1     -43.316  57.804 -56.676  1.00  0.00    -0.232 NA
HETATM   11  C   UNL     1     -43.547  57.128 -57.849  1.00  0.00     0.085 A 
HETATM   12  C   UNL     1     -44.205  57.938 -58.767  1.00  0.00     0.062 A 
HETATM   13  C   UNL     1     -43.216  55.814 -58.208  1.00  0.00     0.034 A 
HETATM   14  N   UNL     1     -44.375  59.127 -58.107  1.00  0.00    -0.342 N 
HETATM   15  C   UNL     1     -44.559  57.515 -60.049  1.00  0.00     0.032 A 
HETATM   16  H   UNL     1     -44.803  59.960 -58.484  1.00  0.00     0.167 HD
HETATM   17  C   UNL     1     -44.221  56.200 -60.391  1.00  0.00     0.002 A 
HETATM   18  C   UNL     1     -43.562  55.361 -59.488  1.00  0.00     0.002 A 
ENDBRANCH   7   9
ENDBRANCH   6   7
ENDBRANCH   5   6
ENDBRANCH   1   5
BRANCH   2  19
HETATM   19  C   UNL     1     -41.362  56.135 -53.889  1.00  0.00     0.034 A 
HETATM   20  C   UNL     1     -40.801  55.442 -54.965  1.00  0.00     0.030 A 
HETATM   21  C   UNL     1     -40.359  54.120 -54.815  1.00  0.00     0.019 A 
HETATM   22  C   UNL     1     -40.458  53.479 -53.577  1.00  0.00     0.032 A 
HETATM   23  C   UNL     1     -41.040  54.161 -52.503  1.00  0.00     0.019 A 
HETATM   24  C   UNL     1     -41.489  55.478 -52.660  1.00  0.00     0.030 A 
BRANCH  22  25
HETATM   25  C   UNL     1     -39.991  52.077 -53.360  1.00  0.00     0.251 C 
HETATM   26  N   UNL     1     -40.221  51.183 -54.385  1.00  0.00    -0.361 N 
HETATM   27  C   UNL     1     -39.759  49.818 -54.319  1.00  0.00     0.149 C 
HETATM   28  H   UNL     1     -40.534  51.524 -55.283  1.00  0.00     0.162 HD
HETATM   29  O   UNL     1     -39.409  51.783 -52.323  1.00  0.00    -0.268 OA
ENDBRANCH  22  25
ENDBRANCH   2  19
TORSDOF 6
ENDMDL
MODEL 6
REMARK VINA RESULT:      -7.4     14.103     15.653
REMARK  6 active torsions:
REMARK  status: ('A' for Active; 'I' for Inactive)
REMARK    1  A    between atoms: C_2  and  S_3 
REMARK    2  A    between atoms: C_2  and  C_18 
REMARK    3  A    between atoms: S_3  and  C_4 
REMARK    4  A    between atoms: C_4  and  C_5 
REMARK       I    between atoms: C_5  and  N_6 
REMARK    5  A    between atoms: N_6  and  C_7 
REMARK    6  A    between atoms: C_10  and  C_11 
REMARK       I    between atoms: C_11  and  N_12 
ROOT
HETATM    1  C   UNL     1     -35.775  41.941 -52.692  1.00  0.00     0.231 C 
HETATM    2  N   UNL     1     -35.150  42.161 -53.913  1.00  0.00    -0.327 N 
HETATM    3  O   UNL     1     -36.921  41.532 -52.528  1.00  0.00    -0.272 OA
HETATM    4  H   UNL     1     -34.199  42.509 -53.881  1.00  0.00     0.169 HD
ENDROOT
BRANCH   1   5
HETATM    5  C   UNL     1     -34.889  42.274 -51.500  1.00  0.00     0.177 C 
BRANCH   5   6
HETATM    6  S   UNL     1     -34.387  40.731 -50.664  1.00  0.00    -0.147 SA
BRANCH   6   7
HETATM    7  C   UNL     1     -32.700  40.592 -51.364  1.00  0.00     0.113 C 
HETATM    8  C   UNL     1     -31.845  39.698 -50.470  1.00  0.00     0.029 C 
BRANCH   7   9
HETATM    9  C   UNL     1     -32.766  40.089 -52.773  1.00  0.00     0.118 A 
HETATM   10  N   UNL     1     -33.618  39.199 -53.244  1.00  0.00    -0.232 NA
HETATM   11  C   UNL     1     -33.291  39.033 -54.567  1.00  0.00     0.085 A 
HETATM   12  C   UNL     1     -32.199  39.821 -54.911  1.00  0.00     0.062 A 
HETATM   13  C   UNL     1     -33.881  38.215 -55.542  1.00  0.00     0.034 A 
HETATM   14  N   UNL     1     -31.880  40.480 -53.752  1.00  0.00    -0.342 N 
HETATM   15  C   UNL     1     -31.642  39.845 -56.191  1.00  0.00     0.032 A 
HETATM   16  H   UNL     1     -31.116  41.129 -53.628  1.00  0.00     0.167 HD
HETATM   17  C   UNL     1     -32.244  39.023 -57.152  1.00  0.00     0.002 A 
HETATM   18  C   UNL     1     -33.344  38.222 -56.836  1.00  0.00     0.002 A 
ENDBRANCH   7   9
ENDBRANCH   6   7
ENDBRANCH   5   6
ENDBRANCH   1   5
BRANCH   2  19
HETATM   19  C   UNL     1     -35.694  41.965 -55.199  1.00  0.00     0.034 A 
HETATM   20  C   UNL     1     -37.055  41.784 -55.453  1.00  0.00     0.030 A 
HETATM   21  C   UNL     1     -37.524  41.603 -56.762  1.00  0.00     0.019 A 
HETATM   22  C   UNL     1     -36.633  41.619 -57.839  1.00  0.00     0.032 A 
HETATM   23  C   UNL     1     -35.266  41.778 -57.587  1.00  0.00     0.019 A 
HETATM   24  C   UNL     1     -34.802  41.949 -56.278  1.00  0.00     0.030 A 
BRANCH  22  25
HETATM   25  C   UNL     1     -37.081  41.445 -59.252  1.00  0.00     0.251 C 
HETATM   26  N   UNL     1     -37.181  40.149 -59.714  1.00  0.00    -0.361 N 
HETATM   27  C   UNL     1     -37.664  39.851 -61.040  1.00  0.00     0.149 C 
HETATM   28  H   UNL     1     -37.116  39.381 -59.061  1.00  0.00     0.162 HD
HETATM   29  O   UNL     1     -37.365  42.428 -59.927  1.00  0.00    -0.268 OA
ENDBRANCH  22  25
ENDBRANCH   2  19
TORSDOF 6
ENDMDL
MODEL 7
REMARK VINA RESULT:      -7.4      2.756      6.159
REMARK  6 active torsions:
REMARK  status: ('A' for Active; 'I' for Inactive)
REMARK    1  A    between atoms: C_2  and  S_3 
REMARK    2  A    between atoms: C_2  and  C_18 
REMARK    3  A    between atoms: S_3  and  C_4 
REMARK    4  A    between atoms: C_4  and  C_5 
REMARK       I    between atoms: C_5  and  N_6 
REMARK    5  A    between atoms: N_6  and  C_7 
REMARK    6  A    between atoms: C_10  and  C_11 
REMARK       I    between atoms: C_11  and  N_12 
ROOT
HETATM    1  C   UNL     1     -43.273  56.856 -56.429  1.00  0.00     0.231 C 
HETATM    2  N   UNL     1     -42.661  56.582 -55.213  1.00  0.00    -0.327 N 
HETATM    3  O   UNL     1     -43.290  56.121 -57.414  1.00  0.00    -0.272 OA
HETATM    4  H   UNL     1     -42.730  57.295 -54.498  1.00  0.00     0.169 HD
ENDROOT
BRANCH   1   5
HETATM    5  C   UNL     1     -43.951  58.218 -56.462  1.00  0.00     0.177 C 
BRANCH   5   6
HETATM    6  S   UNL     1     -45.349  58.231 -55.290  1.00  0.00    -0.147 SA
BRANCH   6   7
HETATM    7  C   UNL     1     -44.556  59.196 -53.949  1.00  0.00     0.113 C 
HETATM    8  C   UNL     1     -45.590  60.104 -53.289  1.00  0.00     0.029 C 
BRANCH   7   9
HETATM    9  C   UNL     1     -43.902  58.274 -52.967  1.00  0.00     0.118 A 
HETATM   10  N   UNL     1     -42.654  58.344 -52.545  1.00  0.00    -0.232 NA
HETATM   11  C   UNL     1     -42.494  57.290 -51.679  1.00  0.00     0.085 A 
HETATM   12  C   UNL     1     -43.662  56.543 -51.586  1.00  0.00     0.062 A 
HETATM   13  C   UNL     1     -41.370  56.901 -50.937  1.00  0.00     0.034 A 
HETATM   14  N   UNL     1     -44.542  57.186 -52.417  1.00  0.00    -0.342 N 
HETATM   15  C   UNL     1     -43.784  55.406 -50.785  1.00  0.00     0.032 A 
HETATM   16  H   UNL     1     -45.492  56.904 -52.611  1.00  0.00     0.167 HD
HETATM   17  C   UNL     1     -42.653  55.032 -50.050  1.00  0.00     0.002 A 
HETATM   18  C   UNL     1     -41.465  55.765 -50.123  1.00  0.00     0.002 A 
ENDBRANCH   7   9
ENDBRANCH   6   7
ENDBRANCH   5   6
ENDBRANCH   1   5
BRANCH   2  19
HETATM   19  C   UNL     1     -41.942  55.421 -54.860  1.00  0.00     0.034 A 
HETATM   20  C   UNL     1     -40.599  55.205 -55.182  1.00  0.00     0.030 A 
HETATM   21  C   UNL     1     -39.947  54.028 -54.789  1.00  0.00     0.019 A 
HETATM   22  C   UNL     1     -40.629  53.057 -54.051  1.00  0.00     0.032 A 
HETATM   23  C   UNL     1     -41.979  53.259 -53.746  1.00  0.00     0.019 A 
HETATM   24  C   UNL     1     -42.629  54.431 -54.148  1.00  0.00     0.030 A 
BRANCH  22  25
HETATM   25  C   UNL     1     -39.978  51.792 -53.596  1.00  0.00     0.251 C 
HETATM   26  N   UNL     1     -40.061  50.712 -54.450  1.00  0.00    -0.361 N 
HETATM   27  C   UNL     1     -39.417  49.456 -54.150  1.00  0.00     0.149 C 
HETATM   28  H   UNL     1     -40.397  50.847 -55.392  1.00  0.00     0.162 HD
HETATM   29  O   UNL     1     -39.384  51.764 -52.524  1.00  0.00    -0.268 OA
ENDBRANCH  22  25
ENDBRANCH   2  19
TORSDOF 6
ENDMDL
MODEL 8
REMARK VINA RESULT:      -7.3      2.852      7.321
REMARK  6 active torsions:
REMARK  status: ('A' for Active; 'I' for Inactive)
REMARK    1  A    between atoms: C_2  and  S_3 
REMARK    2  A    between atoms: C_2  and  C_18 
REMARK    3  A    between atoms: S_3  and  C_4 
REMARK    4  A    between atoms: C_4  and  C_5 
REMARK       I    between atoms: C_5  and  N_6 
REMARK    5  A    between atoms: N_6  and  C_7 
REMARK    6  A    between atoms: C_10  and  C_11 
REMARK       I    between atoms: C_11  and  N_12 
ROOT
HETATM    1  C   UNL     1     -42.581  55.730 -56.665  1.00  0.00     0.231 C 
HETATM    2  N   UNL     1     -41.538  55.826 -55.755  1.00  0.00    -0.327 N 
HETATM    3  O   UNL     1     -43.351  54.780 -56.787  1.00  0.00    -0.272 OA
HETATM    4  H   UNL     1     -40.986  56.675 -55.784  1.00  0.00     0.169 HD
ENDROOT
BRANCH   1   5
HETATM    5  C   UNL     1     -42.705  56.952 -57.564  1.00  0.00     0.177 C 
BRANCH   5   6
HETATM    6  S   UNL     1     -44.313  57.763 -57.272  1.00  0.00    -0.147 SA
BRANCH   6   7
HETATM    7  C   UNL     1     -43.691  59.310 -56.510  1.00  0.00     0.113 C 
HETATM    8  C   UNL     1     -44.825  60.326 -56.413  1.00  0.00     0.029 C 
BRANCH   7   9
HETATM    9  C   UNL     1     -43.075  59.017 -55.178  1.00  0.00     0.118 A 
HETATM   10  N   UNL     1     -43.711  58.602 -54.099  1.00  0.00    -0.232 NA
HETATM   11  C   UNL     1     -42.754  58.491 -53.121  1.00  0.00     0.085 A 
HETATM   12  C   UNL     1     -41.506  58.868 -53.603  1.00  0.00     0.062 A 
HETATM   13  C   UNL     1     -42.877  58.080 -51.786  1.00  0.00     0.034 A 
HETATM   14  N   UNL     1     -41.737  59.201 -54.913  1.00  0.00    -0.342 N 
HETATM   15  C   UNL     1     -40.348  58.863 -52.824  1.00  0.00     0.032 A 
HETATM   16  H   UNL     1     -41.049  59.543 -55.569  1.00  0.00     0.167 HD
HETATM   17  C   UNL     1     -40.489  58.449 -51.494  1.00  0.00     0.002 A 
HETATM   18  C   UNL     1     -41.731  58.063 -50.981  1.00  0.00     0.002 A 
ENDBRANCH   7   9
ENDBRANCH   6   7
ENDBRANCH   5   6
ENDBRANCH   1   5
BRANCH   2  19
HETATM   19  C   UNL     1     -41.148  54.869 -54.795  1.00  0.00     0.034 A 
HETATM   20  C   UNL     1     -40.376  53.741 -55.085  1.00  0.00     0.030 A 
HETATM   21  C   UNL     1     -40.020  52.836 -54.076  1.00  0.00     0.019 A 
HETATM   22  C   UNL     1     -40.420  53.059 -52.755  1.00  0.00     0.032 A 
HETATM   23  C   UNL     1     -41.212  54.175 -52.464  1.00  0.00     0.019 A 
HETATM   24  C   UNL     1     -41.573  55.071 -53.477  1.00  0.00     0.030 A 
BRANCH  22  25
HETATM   25  C   UNL     1     -40.057  52.134 -51.640  1.00  0.00     0.251 C 
HETATM   26  N   UNL     1     -39.712  50.846 -51.992  1.00  0.00    -0.361 N 
HETATM   27  C   UNL     1     -39.281  49.880 -51.012  1.00  0.00     0.149 C 
HETATM   28  H   UNL     1     -39.557  50.620 -52.965  1.00  0.00     0.162 HD
HETATM   29  O   UNL     1     -40.048  52.546 -50.486  1.00  0.00    -0.268 OA
ENDBRANCH  22  25
ENDBRANCH   2  19
TORSDOF 6
ENDMDL
MODEL 9
REMARK VINA RESULT:      -7.3      2.936      5.881
REMARK  6 active torsions:
REMARK  status: ('A' for Active; 'I' for Inactive)
REMARK    1  A    between atoms: C_2  and  S_3 
REMARK    2  A    between atoms: C_2  and  C_18 
REMARK    3  A    between atoms: S_3  and  C_4 
REMARK    4  A    between atoms: C_4  and  C_5 
REMARK       I    between atoms: C_5  and  N_6 
REMARK    5  A    between atoms: N_6  and  C_7 
REMARK    6  A    between atoms: C_10  and  C_11 
REMARK       I    between atoms: C_11  and  N_12 
ROOT
HETATM    1  C   UNL     1     -41.711  57.905 -54.299  1.00  0.00     0.231 C 
HETATM    2  N   UNL     1     -42.224  56.683 -54.710  1.00  0.00    -0.327 N 
HETATM    3  O   UNL     1     -40.653  58.083 -53.701  1.00  0.00    -0.272 OA
HETATM    4  H   UNL     1     -43.117  56.702 -55.188  1.00  0.00     0.169 HD
ENDROOT
BRANCH   1   5
HETATM    5  C   UNL     1     -42.611  59.080 -54.652  1.00  0.00     0.177 C 
BRANCH   5   6
HETATM    6  S   UNL     1     -42.483  60.358 -53.356  1.00  0.00    -0.147 SA
BRANCH   6   7
HETATM    7  C   UNL     1     -43.826  59.758 -52.264  1.00  0.00     0.113 C 
HETATM    8  C   UNL     1     -45.134  59.691 -53.047  1.00  0.00     0.029 C 
BRANCH   7   9
HETATM    9  C   UNL     1     -43.454  58.437 -51.667  1.00  0.00     0.118 A 
HETATM   10  N   UNL     1     -44.230  57.373 -51.583  1.00  0.00    -0.232 NA
HETATM   11  C   UNL     1     -43.481  56.414 -50.947  1.00  0.00     0.085 A 
HETATM   12  C   UNL     1     -42.225  56.907 -50.612  1.00  0.00     0.062 A 
HETATM   13  C   UNL     1     -43.810  55.093 -50.611  1.00  0.00     0.034 A 
HETATM   14  N   UNL     1     -42.233  58.196 -51.077  1.00  0.00    -0.342 N 
HETATM   15  C   UNL     1     -41.256  56.153 -49.948  1.00  0.00     0.032 A 
HETATM   16  H   UNL     1     -41.482  58.865 -50.988  1.00  0.00     0.167 HD
HETATM   17  C   UNL     1     -41.602  54.836 -49.621  1.00  0.00     0.002 A 
HETATM   18  C   UNL     1     -42.856  54.313 -49.946  1.00  0.00     0.002 A 
ENDBRANCH   7   9
ENDBRANCH   6   7
ENDBRANCH   5   6
ENDBRANCH   1   5
BRANCH   2  19
HETATM   19  C   UNL     1     -41.647  55.409 -54.529  1.00  0.00     0.034 A 
HETATM   20  C   UNL     1     -40.554  54.935 -55.259  1.00  0.00     0.030 A 
HETATM   21  C   UNL     1     -40.028  53.658 -55.016  1.00  0.00     0.019 A 
HETATM   22  C   UNL     1     -40.582  52.843 -54.025  1.00  0.00     0.032 A 
HETATM   23  C   UNL     1     -41.691  53.305 -53.307  1.00  0.00     0.019 A 
HETATM   24  C   UNL     1     -42.219  54.577 -53.559  1.00  0.00     0.030 A 
BRANCH  22  25
HETATM   25  C   UNL     1     -40.053  51.482 -53.717  1.00  0.00     0.251 C 
HETATM   26  N   UNL     1     -39.805  51.199 -52.390  1.00  0.00    -0.361 N 
HETATM   27  C   UNL     1     -39.354  49.898 -51.962  1.00  0.00     0.149 C 
HETATM   28  H   UNL     1     -40.133  51.834 -51.676  1.00  0.00     0.162 HD
HETATM   29  O   UNL     1     -39.890  50.672 -54.624  1.00  0.00    -0.268 OA
ENDBRANCH  22  25
ENDBRANCH   2  19
TORSDOF 6
ENDMDL
MODEL 10
REMARK VINA RESULT:      -7.1      3.139      7.403
REMARK  6 active torsions:
REMARK  status: ('A' for Active; 'I' for Inactive)
REMARK    1  A    between atoms: C_2  and  S_3 
REMARK    2  A    between atoms: C_2  and  C_18 
REMARK    3  A    between atoms: S_3  and  C_4 
REMARK    4  A    between atoms: C_4  and  C_5 
REMARK       I    between atoms: C_5  and  N_6 
REMARK    5  A    between atoms: N_6  and  C_7 
REMARK    6  A    between atoms: C_10  and  C_11 
REMARK       I    between atoms: C_11  and  N_12 
ROOT
HETATM    1  C   UNL     1     -43.615  56.641 -54.771  1.00  0.00     0.231 C 
HETATM    2  N   UNL     1     -42.256  56.360 -54.806  1.00  0.00    -0.327 N 
HETATM    3  O   UNL     1     -44.503  55.881 -54.393  1.00  0.00    -0.272 OA
HETATM    4  H   UNL     1     -41.648  57.093 -55.152  1.00  0.00     0.169 HD
ENDROOT
BRANCH   1   5
HETATM    5  C   UNL     1     -43.949  58.038 -55.275  1.00  0.00     0.177 C 
BRANCH   5   6
HETATM    6  S   UNL     1     -42.833  58.472 -56.651  1.00  0.00    -0.147 SA
BRANCH   6   7
HETATM    7  C   UNL     1     -42.217  60.068 -55.995  1.00  0.00     0.113 C 
HETATM    8  C   UNL     1     -43.242  61.165 -56.266  1.00  0.00     0.029 C 
BRANCH   7   9
HETATM    9  C   UNL     1     -41.897  59.938 -54.538  1.00  0.00     0.118 A 
HETATM   10  N   UNL     1     -40.973  59.159 -54.010  1.00  0.00    -0.232 NA
HETATM   11  C   UNL     1     -41.056  59.350 -52.652  1.00  0.00     0.085 A 
HETATM   12  C   UNL     1     -42.069  60.247 -52.338  1.00  0.00     0.062 A 
HETATM   13  C   UNL     1     -40.299  58.781 -51.618  1.00  0.00     0.034 A 
HETATM   14  N   UNL     1     -42.592  60.604 -53.554  1.00  0.00    -0.342 N 
HETATM   15  C   UNL     1     -42.386  60.622 -51.031  1.00  0.00     0.032 A 
HETATM   16  H   UNL     1     -43.367  61.234 -53.706  1.00  0.00     0.167 HD
HETATM   17  C   UNL     1     -41.620  60.045 -50.011  1.00  0.00     0.002 A 
HETATM   18  C   UNL     1     -40.594  59.140 -50.296  1.00  0.00     0.002 A 
ENDBRANCH   7   9
ENDBRANCH   6   7
ENDBRANCH   5   6
ENDBRANCH   1   5
BRANCH   2  19
HETATM   19  C   UNL     1     -41.620  55.162 -54.421  1.00  0.00     0.034 A 
HETATM   20  C   UNL     1     -40.823  54.392 -55.272  1.00  0.00     0.030 A 
HETATM   21  C   UNL     1     -40.214  53.215 -54.816  1.00  0.00     0.019 A 
HETATM   22  C   UNL     1     -40.384  52.800 -53.492  1.00  0.00     0.032 A 
HETATM   23  C   UNL     1     -41.200  53.555 -52.643  1.00  0.00     0.019 A 
HETATM   24  C   UNL     1     -41.813  54.726 -53.105  1.00  0.00     0.030 A 
BRANCH  22  25
HETATM   25  C   UNL     1     -39.748  51.561 -52.952  1.00  0.00     0.251 C 
HETATM   26  N   UNL     1     -39.877  51.341 -51.597  1.00  0.00    -0.361 N 
HETATM   27  C   UNL     1     -39.362  50.148 -50.969  1.00  0.00     0.149 C 
HETATM   28  H   UNL     1     -40.514  51.910 -51.058  1.00  0.00     0.162 HD
HETATM   29  O   UNL     1     -39.177  50.788 -53.713  1.00  0.00    -0.268 OA
ENDBRANCH  22  25
ENDBRANCH   2  19
TORSDOF 6
ENDMDL
