MODEL 1
REMARK VINA RESULT:      -8.9      0.000      0.000
REMARK  8 active torsions:
REMARK  status: ('A' for Active; 'I' for Inactive)
REMARK    1  A    between atoms: C_4  and  O_5 
REMARK    2  A    between atoms: O_5  and  C_6 
REMARK    3  A    between atoms: C_9  and  N_10 
REMARK    4  A    between atoms: N_10  and  C_11 
REMARK    5  A    between atoms: C_13  and  N_14 
REMARK    6  A    between atoms: C_16  and  C_17 
REMARK    7  A    between atoms: C_17  and  N_18 
REMARK    8  A    between atoms: N_22  and  C_23 
ROOT
HETATM    1  C   UNL     1     -43.245  56.087 -57.398  1.00  0.00     0.731 A 
HETATM    2  N   UNL     1     -42.551  55.943 -58.520  1.00  0.00    -0.031 NA
HETATM    3  C   UNL     1     -42.486  56.993 -59.321  1.00  0.00     0.219 A 
HETATM    4  N   UNL     1     -43.045  58.167 -59.069  1.00  0.00    -0.200 NA
HETATM    5  C   UNL     1     -43.733  58.223 -57.934  1.00  0.00     0.174 A 
HETATM    6  N   UNL     1     -43.819  57.235 -57.047  1.00  0.00    -0.045 NA
ENDROOT
BRANCH   1   7
HETATM    7  N   UNL     1     -43.270  54.979 -56.558  1.00  0.00    -0.188 N 
HETATM    8  H   UNL     1     -44.146  54.481 -56.677  1.00  0.00     0.184 HD
BRANCH   7   9
HETATM    9  C   UNL     1     -42.516  54.593 -55.440  1.00  0.00     0.049 A 
HETATM   10  C   UNL     1     -43.076  54.167 -54.230  1.00  0.00     0.033 A 
HETATM   11  C   UNL     1     -42.266  53.833 -53.137  1.00  0.00     0.039 A 
HETATM   12  C   UNL     1     -40.882  53.918 -53.243  1.00  0.00     0.076 A 
HETATM   13  C   UNL     1     -40.302  54.383 -54.420  1.00  0.00     0.039 A 
HETATM   14  C   UNL     1     -41.117  54.714 -55.508  1.00  0.00     0.033 A 
BRANCH  12  15
HETATM   15  O   UNL     1     -40.142  53.606 -52.130  1.00  0.00    -0.311 OA
BRANCH  15  16
HETATM   16  C   UNL     1     -39.985  52.275 -51.814  1.00  0.00     0.076 A 
HETATM   17  C   UNL     1     -40.293  51.913 -50.501  1.00  0.00     0.037 A 
HETATM   18  C   UNL     1     -40.200  50.578 -50.103  1.00  0.00     0.003 A 
HETATM   19  C   UNL     1     -39.811  49.602 -51.020  1.00  0.00     0.000 A 
HETATM   20  C   UNL     1     -39.523  49.958 -52.337  1.00  0.00     0.003 A 
HETATM   21  C   UNL     1     -39.618  51.292 -52.739  1.00  0.00     0.037 A 
ENDBRANCH  15  16
ENDBRANCH  12  15
ENDBRANCH   7   9
ENDBRANCH   1   7
BRANCH   3  22
HETATM   22  N   UNL     1     -41.748  56.874 -60.477  1.00  0.00    -0.270 NA
HETATM   23  H   UNL     1     -40.931  57.474 -60.446  1.00  0.00     0.127 HD
HETATM   24  H   UNL     1     -41.559  55.909 -60.713  1.00  0.00     0.127 HD
ENDBRANCH   3  22
BRANCH   5  25
HETATM   25  C   UNL     1     -44.259  59.578 -57.508  1.00  0.00     0.316 C 
BRANCH  25  26
HETATM   26  N   UNL     1     -43.931  59.999 -56.062  1.00  0.00    -0.061 N 
HETATM   27  H   UNL     1     -44.055  61.020 -56.051  1.00  0.00     0.280 HD
HETATM   28  C   UNL     1     -44.906  59.406 -55.049  1.00  0.00     0.255 C 
HETATM   29  C   UNL     1     -44.585  59.939 -53.631  1.00  0.00     0.152 C 
HETATM   30  N   UNL     1     -43.158  59.760 -53.258  1.00  0.00    -0.364 N 
HETATM   31  C   UNL     1     -42.180  60.241 -54.265  1.00  0.00     0.152 C 
HETATM   32  C   UNL     1     -42.487  59.695 -55.683  1.00  0.00     0.255 C 
BRANCH  30  33
HETATM   33  C   UNL     1     -42.782  58.703 -52.450  1.00  0.00     0.102 A 
HETATM   34  N   UNL     1     -43.760  57.946 -51.917  1.00  0.00    -0.352 N 
HETATM   35  H   UNL     1     -44.717  58.171 -52.179  1.00  0.00     0.166 HD
HETATM   36  C   UNL     1     -43.543  56.878 -51.135  1.00  0.00     0.089 A 
HETATM   37  C   UNL     1     -42.247  56.493 -50.835  1.00  0.00     0.017 A 
HETATM   38  C   UNL     1     -41.195  57.220 -51.372  1.00  0.00     0.005 A 
HETATM   39  C   UNL     1     -41.460  58.322 -52.187  1.00  0.00     0.048 A 
ENDBRANCH  30  33
ENDBRANCH  25  26
ENDBRANCH   5  25
TORSDOF 8
ENDMDL
MODEL 2
REMARK VINA RESULT:      -8.6      1.492      2.541
REMARK  8 active torsions:
REMARK  status: ('A' for Active; 'I' for Inactive)
REMARK    1  A    between atoms: C_4  and  O_5 
REMARK    2  A    between atoms: O_5  and  C_6 
REMARK    3  A    between atoms: C_9  and  N_10 
REMARK    4  A    between atoms: N_10  and  C_11 
REMARK    5  A    between atoms: C_13  and  N_14 
REMARK    6  A    between atoms: C_16  and  C_17 
REMARK    7  A    between atoms: C_17  and  N_18 
REMARK    8  A    between atoms: N_22  and  C_23 
ROOT
HETATM    1  C   UNL     1     -42.906  57.372 -56.146  1.00  0.00     0.731 A 
HETATM    2  N   UNL     1     -42.781  57.588 -57.449  1.00  0.00    -0.031 NA
HETATM    3  C   UNL     1     -42.613  58.842 -57.833  1.00  0.00     0.219 A 
HETATM    4  N   UNL     1     -42.545  59.878 -57.011  1.00  0.00    -0.200 NA
HETATM    5  C   UNL     1     -42.695  59.578 -55.725  1.00  0.00     0.174 A 
HETATM    6  N   UNL     1     -42.825  58.346 -55.241  1.00  0.00    -0.045 NA
ENDROOT
BRANCH   1   7
HETATM    7  N   UNL     1     -43.048  56.042 -55.766  1.00  0.00    -0.188 N 
HETATM    8  H   UNL     1     -44.023  55.848 -55.563  1.00  0.00     0.184 HD
BRANCH   7   9
HETATM    9  C   UNL     1     -42.147  55.054 -55.344  1.00  0.00     0.049 A 
HETATM   10  C   UNL     1     -40.761  55.237 -55.280  1.00  0.00     0.033 A 
HETATM   11  C   UNL     1     -39.911  54.196 -54.888  1.00  0.00     0.039 A 
HETATM   12  C   UNL     1     -40.440  52.954 -54.550  1.00  0.00     0.076 A 
HETATM   13  C   UNL     1     -41.810  52.732 -54.649  1.00  0.00     0.039 A 
HETATM   14  C   UNL     1     -42.653  53.778 -55.041  1.00  0.00     0.033 A 
BRANCH  12  15
HETATM   15  O   UNL     1     -39.556  51.964 -54.201  1.00  0.00    -0.311 OA
BRANCH  15  16
HETATM   16  C   UNL     1     -39.710  51.369 -52.968  1.00  0.00     0.076 A 
HETATM   17  C   UNL     1     -39.636  49.974 -52.944  1.00  0.00     0.037 A 
HETATM   18  C   UNL     1     -39.741  49.289 -51.732  1.00  0.00     0.003 A 
HETATM   19  C   UNL     1     -39.908  49.997 -50.543  1.00  0.00     0.000 A 
HETATM   20  C   UNL     1     -39.961  51.391 -50.562  1.00  0.00     0.003 A 
HETATM   21  C   UNL     1     -39.853  52.079 -51.772  1.00  0.00     0.037 A 
ENDBRANCH  15  16
ENDBRANCH  12  15
ENDBRANCH   7   9
ENDBRANCH   1   7
BRANCH   3  22
HETATM   22  N   UNL     1     -42.453  59.085 -59.178  1.00  0.00    -0.270 NA
HETATM   23  H   UNL     1     -41.968  59.963 -59.331  1.00  0.00     0.127 HD
HETATM   24  H   UNL     1     -42.061  58.291 -59.668  1.00  0.00     0.127 HD
ENDBRANCH   3  22
BRANCH   5  25
HETATM   25  C   UNL     1     -42.466  60.691 -54.723  1.00  0.00     0.316 C 
BRANCH  25  26
HETATM   26  N   UNL     1     -42.056  60.241 -53.307  1.00  0.00    -0.061 N 
HETATM   27  H   UNL     1     -41.728  61.099 -52.843  1.00  0.00     0.280 HD
HETATM   28  C   UNL     1     -43.237  59.706 -52.502  1.00  0.00     0.255 C 
HETATM   29  C   UNL     1     -42.784  59.362 -51.062  1.00  0.00     0.152 C 
HETATM   30  N   UNL     1     -41.592  58.475 -51.030  1.00  0.00    -0.364 N 
HETATM   31  C   UNL     1     -40.457  58.917 -51.877  1.00  0.00     0.152 C 
HETATM   32  C   UNL     1     -40.903  59.245 -53.325  1.00  0.00     0.255 C 
BRANCH  30  33
HETATM   33  C   UNL     1     -41.746  57.117 -50.819  1.00  0.00     0.102 A 
HETATM   34  N   UNL     1     -41.328  56.618 -49.640  1.00  0.00    -0.352 N 
HETATM   35  H   UNL     1     -40.964  57.279 -48.958  1.00  0.00     0.166 HD
HETATM   36  C   UNL     1     -41.435  55.328 -49.290  1.00  0.00     0.089 A 
HETATM   37  C   UNL     1     -42.008  54.419 -50.163  1.00  0.00     0.017 A 
HETATM   38  C   UNL     1     -42.479  54.876 -51.385  1.00  0.00     0.005 A 
HETATM   39  C   UNL     1     -42.356  56.228 -51.713  1.00  0.00     0.048 A 
ENDBRANCH  30  33
ENDBRANCH  25  26
ENDBRANCH   5  25
TORSDOF 8
ENDMDL
MODEL 3
REMARK VINA RESULT:      -8.5      1.602      5.130
REMARK  8 active torsions:
REMARK  status: ('A' for Active; 'I' for Inactive)
REMARK    1  A    between atoms: C_4  and  O_5 
REMARK    2  A    between atoms: O_5  and  C_6 
REMARK    3  A    between atoms: C_9  and  N_10 
REMARK    4  A    between atoms: N_10  and  C_11 
REMARK    5  A    between atoms: C_13  and  N_14 
REMARK    6  A    between atoms: C_16  and  C_17 
REMARK    7  A    between atoms: C_17  and  N_18 
REMARK    8  A    between atoms: N_22  and  C_23 
ROOT
HETATM    1  C   UNL     1     -44.643  57.851 -52.190  1.00  0.00     0.731 A 
HETATM    2  N   UNL     1     -45.136  57.961 -50.963  1.00  0.00    -0.031 NA
HETATM    3  C   UNL     1     -45.321  59.185 -50.500  1.00  0.00     0.219 A 
HETATM    4  N   UNL     1     -45.065  60.293 -51.180  1.00  0.00    -0.200 NA
HETATM    5  C   UNL     1     -44.559  60.096 -52.393  1.00  0.00     0.174 A 
HETATM    6  N   UNL     1     -44.379  58.905 -52.959  1.00  0.00    -0.045 NA
ENDROOT
BRANCH   1   7
HETATM    7  N   UNL     1     -44.490  56.553 -52.665  1.00  0.00    -0.188 N 
HETATM    8  H   UNL     1     -45.360  56.045 -52.552  1.00  0.00     0.184 HD
BRANCH   7   9
HETATM    9  C   UNL     1     -43.375  55.761 -52.975  1.00  0.00     0.049 A 
HETATM   10  C   UNL     1     -42.064  56.075 -52.598  1.00  0.00     0.033 A 
HETATM   11  C   UNL     1     -40.989  55.261 -52.974  1.00  0.00     0.039 A 
HETATM   12  C   UNL     1     -41.213  54.115 -53.730  1.00  0.00     0.076 A 
HETATM   13  C   UNL     1     -42.501  53.805 -54.157  1.00  0.00     0.039 A 
HETATM   14  C   UNL     1     -43.570  54.623 -53.777  1.00  0.00     0.033 A 
BRANCH  12  15
HETATM   15  O   UNL     1     -40.118  53.372 -54.093  1.00  0.00    -0.311 OA
BRANCH  15  16
HETATM   16  C   UNL     1     -39.963  52.131 -53.517  1.00  0.00     0.076 A 
HETATM   17  C   UNL     1     -39.963  51.041 -54.391  1.00  0.00     0.037 A 
HETATM   18  C   UNL     1     -39.771  49.749 -53.899  1.00  0.00     0.003 A 
HETATM   19  C   UNL     1     -39.569  49.545 -52.535  1.00  0.00     0.000 A 
HETATM   20  C   UNL     1     -39.548  50.633 -51.662  1.00  0.00     0.003 A 
HETATM   21  C   UNL     1     -39.735  51.928 -52.152  1.00  0.00     0.037 A 
ENDBRANCH  15  16
ENDBRANCH  12  15
ENDBRANCH   7   9
ENDBRANCH   1   7
BRANCH   3  22
HETATM   22  N   UNL     1     -45.857  59.321 -49.240  1.00  0.00    -0.270 NA
HETATM   23  H   UNL     1     -45.131  59.510 -48.558  1.00  0.00     0.127 HD
HETATM   24  H   UNL     1     -46.637  59.965 -49.223  1.00  0.00     0.127 HD
ENDBRANCH   3  22
BRANCH   5  25
HETATM   25  C   UNL     1     -44.397  61.312 -53.282  1.00  0.00     0.316 C 
BRANCH  25  26
HETATM   26  N   UNL     1     -43.862  61.037 -54.701  1.00  0.00    -0.061 N 
HETATM   27  H   UNL     1     -43.574  61.958 -55.057  1.00  0.00     0.280 HD
HETATM   28  C   UNL     1     -42.625  60.141 -54.691  1.00  0.00     0.255 C 
HETATM   29  C   UNL     1     -42.079  59.980 -56.131  1.00  0.00     0.152 C 
HETATM   30  N   UNL     1     -43.121  59.546 -57.098  1.00  0.00    -0.364 N 
HETATM   31  C   UNL     1     -44.375  60.338 -57.068  1.00  0.00     0.152 C 
HETATM   32  C   UNL     1     -44.936  60.487 -55.630  1.00  0.00     0.255 C 
BRANCH  30  33
HETATM   33  C   UNL     1     -43.208  58.217 -57.470  1.00  0.00     0.102 A 
HETATM   34  N   UNL     1     -43.773  57.938 -58.659  1.00  0.00    -0.352 N 
HETATM   35  H   UNL     1     -44.062  58.727 -59.234  1.00  0.00     0.166 HD
HETATM   36  C   UNL     1     -43.904  56.700 -59.157  1.00  0.00     0.089 A 
HETATM   37  C   UNL     1     -43.438  55.612 -58.439  1.00  0.00     0.017 A 
HETATM   38  C   UNL     1     -42.825  55.836 -57.214  1.00  0.00     0.005 A 
HETATM   39  C   UNL     1     -42.701  57.140 -56.731  1.00  0.00     0.048 A 
ENDBRANCH  30  33
ENDBRANCH  25  26
ENDBRANCH   5  25
TORSDOF 8
ENDMDL
MODEL 4
REMARK VINA RESULT:      -8.5      1.973      5.792
REMARK  8 active torsions:
REMARK  status: ('A' for Active; 'I' for Inactive)
REMARK    1  A    between atoms: C_4  and  O_5 
REMARK    2  A    between atoms: O_5  and  C_6 
REMARK    3  A    between atoms: C_9  and  N_10 
REMARK    4  A    between atoms: N_10  and  C_11 
REMARK    5  A    between atoms: C_13  and  N_14 
REMARK    6  A    between atoms: C_16  and  C_17 
REMARK    7  A    between atoms: C_17  and  N_18 
REMARK    8  A    between atoms: N_22  and  C_23 
ROOT
HETATM    1  C   UNL     1     -44.258  57.887 -51.438  1.00  0.00     0.731 A 
HETATM    2  N   UNL     1     -45.282  58.625 -51.029  1.00  0.00    -0.031 NA
HETATM    3  C   UNL     1     -45.605  59.666 -51.777  1.00  0.00     0.219 A 
HETATM    4  N   UNL     1     -44.992  60.004 -52.901  1.00  0.00    -0.200 NA
HETATM    5  C   UNL     1     -43.968  59.224 -53.232  1.00  0.00     0.174 A 
HETATM    6  N   UNL     1     -43.597  58.132 -52.567  1.00  0.00    -0.045 NA
ENDROOT
BRANCH   1   7
HETATM    7  N   UNL     1     -43.960  56.780 -50.652  1.00  0.00    -0.188 N 
HETATM    8  H   UNL     1     -44.503  56.814 -49.796  1.00  0.00     0.184 HD
BRANCH   7   9
HETATM    9  C   UNL     1     -42.919  55.841 -50.657  1.00  0.00     0.049 A 
HETATM   10  C   UNL     1     -41.586  56.150 -50.361  1.00  0.00     0.033 A 
HETATM   11  C   UNL     1     -40.586  55.172 -50.422  1.00  0.00     0.039 A 
HETATM   12  C   UNL     1     -40.908  53.867 -50.777  1.00  0.00     0.076 A 
HETATM   13  C   UNL     1     -42.217  53.542 -51.120  1.00  0.00     0.039 A 
HETATM   14  C   UNL     1     -43.212  54.524 -51.056  1.00  0.00     0.033 A 
BRANCH  12  15
HETATM   15  O   UNL     1     -39.881  52.959 -50.848  1.00  0.00    -0.311 OA
BRANCH  15  16
HETATM   16  C   UNL     1     -39.856  52.100 -51.925  1.00  0.00     0.076 A 
HETATM   17  C   UNL     1     -39.618  50.754 -51.634  1.00  0.00     0.037 A 
HETATM   18  C   UNL     1     -39.614  49.807 -52.660  1.00  0.00     0.003 A 
HETATM   19  C   UNL     1     -39.858  50.202 -53.974  1.00  0.00     0.000 A 
HETATM   20  C   UNL     1     -40.116  51.541 -54.265  1.00  0.00     0.003 A 
HETATM   21  C   UNL     1     -40.124  52.491 -53.241  1.00  0.00     0.037 A 
ENDBRANCH  15  16
ENDBRANCH  12  15
ENDBRANCH   7   9
ENDBRANCH   1   7
BRANCH   3  22
HETATM   22  N   UNL     1     -46.682  60.428 -51.386  1.00  0.00    -0.270 NA
HETATM   23  H   UNL     1     -47.549  59.917 -51.509  1.00  0.00     0.127 HD
HETATM   24  H   UNL     1     -46.553  60.833 -50.468  1.00  0.00     0.127 HD
ENDBRANCH   3  22
BRANCH   5  25
HETATM   25  C   UNL     1     -43.328  59.456 -54.585  1.00  0.00     0.316 C 
BRANCH  25  26
HETATM   26  N   UNL     1     -44.275  59.364 -55.797  1.00  0.00    -0.061 N 
HETATM   27  H   UNL     1     -44.871  60.201 -55.730  1.00  0.00     0.280 HD
HETATM   28  C   UNL     1     -43.528  59.438 -57.126  1.00  0.00     0.255 C 
HETATM   29  C   UNL     1     -44.536  59.439 -58.301  1.00  0.00     0.152 C 
HETATM   30  N   UNL     1     -45.507  58.317 -58.226  1.00  0.00    -0.364 N 
HETATM   31  C   UNL     1     -46.184  58.157 -56.916  1.00  0.00     0.152 C 
HETATM   32  C   UNL     1     -45.177  58.138 -55.738  1.00  0.00     0.255 C 
BRANCH  30  33
HETATM   33  C   UNL     1     -45.313  57.182 -58.992  1.00  0.00     0.102 A 
HETATM   34  N   UNL     1     -44.310  56.356 -58.639  1.00  0.00    -0.352 N 
HETATM   35  H   UNL     1     -43.784  56.594 -57.802  1.00  0.00     0.166 HD
HETATM   36  C   UNL     1     -44.020  55.211 -59.275  1.00  0.00     0.089 A 
HETATM   37  C   UNL     1     -44.776  54.814 -60.365  1.00  0.00     0.017 A 
HETATM   38  C   UNL     1     -45.838  55.612 -60.764  1.00  0.00     0.005 A 
HETATM   39  C   UNL     1     -46.114  56.793 -60.074  1.00  0.00     0.048 A 
ENDBRANCH  30  33
ENDBRANCH  25  26
ENDBRANCH   5  25
TORSDOF 8
ENDMDL
MODEL 5
REMARK VINA RESULT:      -8.3      1.899      5.604
REMARK  8 active torsions:
REMARK  status: ('A' for Active; 'I' for Inactive)
REMARK    1  A    between atoms: C_4  and  O_5 
REMARK    2  A    between atoms: O_5  and  C_6 
REMARK    3  A    between atoms: C_9  and  N_10 
REMARK    4  A    between atoms: N_10  and  C_11 
REMARK    5  A    between atoms: C_13  and  N_14 
REMARK    6  A    between atoms: C_16  and  C_17 
REMARK    7  A    between atoms: C_17  and  N_18 
REMARK    8  A    between atoms: N_22  and  C_23 
ROOT
HETATM    1  C   UNL     1     -43.276  58.376 -51.746  1.00  0.00     0.731 A 
HETATM    2  N   UNL     1     -44.525  58.803 -51.609  1.00  0.00    -0.031 NA
HETATM    3  C   UNL     1     -45.006  59.561 -52.579  1.00  0.00     0.219 A 
HETATM    4  N   UNL     1     -44.338  59.902 -53.670  1.00  0.00    -0.200 NA
HETATM    5  C   UNL     1     -43.090  59.447 -53.723  1.00  0.00     0.174 A 
HETATM    6  N   UNL     1     -42.535  58.645 -52.818  1.00  0.00    -0.045 NA
ENDROOT
BRANCH   1   7
HETATM    7  N   UNL     1     -42.805  57.554 -50.728  1.00  0.00    -0.188 N 
HETATM    8  H   UNL     1     -42.712  58.090 -49.872  1.00  0.00     0.184 HD
BRANCH   7   9
HETATM    9  C   UNL     1     -42.190  56.294 -50.708  1.00  0.00     0.049 A 
HETATM   10  C   UNL     1     -42.818  55.111 -51.114  1.00  0.00     0.033 A 
HETATM   11  C   UNL     1     -42.161  53.878 -51.033  1.00  0.00     0.039 A 
HETATM   12  C   UNL     1     -40.860  53.812 -50.546  1.00  0.00     0.076 A 
HETATM   13  C   UNL     1     -40.228  54.967 -50.092  1.00  0.00     0.039 A 
HETATM   14  C   UNL     1     -40.891  56.196 -50.178  1.00  0.00     0.033 A 
BRANCH  12  15
HETATM   15  O   UNL     1     -40.277  52.573 -50.462  1.00  0.00    -0.311 OA
BRANCH  15  16
HETATM   16  C   UNL     1     -40.102  51.863 -51.629  1.00  0.00     0.076 A 
HETATM   17  C   UNL     1     -40.221  52.591 -52.816  1.00  0.00     0.037 A 
HETATM   18  C   UNL     1     -40.020  51.962 -54.045  1.00  0.00     0.003 A 
HETATM   19  C   UNL     1     -39.689  50.608 -54.091  1.00  0.00     0.000 A 
HETATM   20  C   UNL     1     -39.549  49.884 -52.907  1.00  0.00     0.003 A 
HETATM   21  C   UNL     1     -39.746  50.512 -51.675  1.00  0.00     0.037 A 
ENDBRANCH  15  16
ENDBRANCH  12  15
ENDBRANCH   7   9
ENDBRANCH   1   7
BRANCH   3  22
HETATM   22  N   UNL     1     -46.309  59.992 -52.470  1.00  0.00    -0.270 NA
HETATM   23  H   UNL     1     -46.725  59.665 -51.605  1.00  0.00     0.127 HD
HETATM   24  H   UNL     1     -46.401  60.984 -52.638  1.00  0.00     0.127 HD
ENDBRANCH   3  22
BRANCH   5  25
HETATM   25  C   UNL     1     -42.328  59.662 -55.014  1.00  0.00     0.316 C 
BRANCH  25  26
HETATM   26  N   UNL     1     -42.259  58.447 -55.960  1.00  0.00    -0.061 N 
HETATM   27  H   UNL     1     -41.335  58.030 -55.786  1.00  0.00     0.280 HD
HETATM   28  C   UNL     1     -43.310  57.392 -55.627  1.00  0.00     0.255 C 
HETATM   29  C   UNL     1     -43.130  56.159 -56.546  1.00  0.00     0.152 C 
HETATM   30  N   UNL     1     -43.082  56.516 -57.988  1.00  0.00    -0.364 N 
HETATM   31  C   UNL     1     -42.137  57.607 -58.333  1.00  0.00     0.152 C 
HETATM   32  C   UNL     1     -42.326  58.851 -57.428  1.00  0.00     0.255 C 
BRANCH  30  33
HETATM   33  C   UNL     1     -44.209  56.368 -58.775  1.00  0.00     0.102 A 
HETATM   34  N   UNL     1     -45.249  57.188 -58.534  1.00  0.00    -0.352 N 
HETATM   35  H   UNL     1     -45.126  57.898 -57.817  1.00  0.00     0.166 HD
HETATM   36  C   UNL     1     -46.395  57.173 -59.232  1.00  0.00     0.089 A 
HETATM   37  C   UNL     1     -46.558  56.277 -60.275  1.00  0.00     0.017 A 
HETATM   38  C   UNL     1     -45.512  55.420 -60.586  1.00  0.00     0.005 A 
HETATM   39  C   UNL     1     -44.332  55.470 -59.842  1.00  0.00     0.048 A 
ENDBRANCH  30  33
ENDBRANCH  25  26
ENDBRANCH   5  25
TORSDOF 8
ENDMDL
MODEL 6
REMARK VINA RESULT:      -8.3      2.079      2.565
REMARK  8 active torsions:
REMARK  status: ('A' for Active; 'I' for Inactive)
REMARK    1  A    between atoms: C_4  and  O_5 
REMARK    2  A    between atoms: O_5  and  C_6 
REMARK    3  A    between atoms: C_9  and  N_10 
REMARK    4  A    between atoms: N_10  and  C_11 
REMARK    5  A    between atoms: C_13  and  N_14 
REMARK    6  A    between atoms: C_16  and  C_17 
REMARK    7  A    between atoms: C_17  and  N_18 
REMARK    8  A    between atoms: N_22  and  C_23 
ROOT
HETATM    1  C   UNL     1     -43.600  56.494 -57.159  1.00  0.00     0.731 A 
HETATM    2  N   UNL     1     -43.782  56.666 -58.462  1.00  0.00    -0.031 NA
HETATM    3  C   UNL     1     -44.126  57.878 -58.862  1.00  0.00     0.219 A 
HETATM    4  N   UNL     1     -44.282  58.920 -58.060  1.00  0.00    -0.200 NA
HETATM    5  C   UNL     1     -44.097  58.660 -56.769  1.00  0.00     0.174 A 
HETATM    6  N   UNL     1     -43.708  57.487 -56.278  1.00  0.00    -0.045 NA
ENDROOT
BRANCH   1   7
HETATM    7  N   UNL     1     -43.206  55.220 -56.767  1.00  0.00    -0.188 N 
HETATM    8  H   UNL     1     -43.754  54.526 -57.265  1.00  0.00     0.184 HD
BRANCH   7   9
HETATM    9  C   UNL     1     -42.466  54.725 -55.684  1.00  0.00     0.049 A 
HETATM   10  C   UNL     1     -43.034  54.318 -54.470  1.00  0.00     0.033 A 
HETATM   11  C   UNL     1     -42.234  53.869 -53.413  1.00  0.00     0.039 A 
HETATM   12  C   UNL     1     -40.851  53.818 -53.556  1.00  0.00     0.076 A 
HETATM   13  C   UNL     1     -40.259  54.261 -54.735  1.00  0.00     0.039 A 
HETATM   14  C   UNL     1     -41.064  54.707 -55.789  1.00  0.00     0.033 A 
BRANCH  12  15
HETATM   15  O   UNL     1     -40.118  53.398 -52.476  1.00  0.00    -0.311 OA
BRANCH  15  16
HETATM   16  C   UNL     1     -39.916  52.044 -52.322  1.00  0.00     0.076 A 
HETATM   17  C   UNL     1     -39.918  51.567 -51.009  1.00  0.00     0.037 A 
HETATM   18  C   UNL     1     -39.761  50.202 -50.761  1.00  0.00     0.003 A 
HETATM   19  C   UNL     1     -39.613  49.312 -51.824  1.00  0.00     0.000 A 
HETATM   20  C   UNL     1     -39.632  49.784 -53.136  1.00  0.00     0.003 A 
HETATM   21  C   UNL     1     -39.793  51.148 -53.388  1.00  0.00     0.037 A 
ENDBRANCH  15  16
ENDBRANCH  12  15
ENDBRANCH   7   9
ENDBRANCH   1   7
BRANCH   3  22
HETATM   22  N   UNL     1     -44.293  58.084 -60.213  1.00  0.00    -0.270 NA
HETATM   23  H   UNL     1     -45.145  57.643 -60.542  1.00  0.00     0.127 HD
HETATM   24  H   UNL     1     -44.191  59.057 -60.468  1.00  0.00     0.127 HD
ENDBRANCH   3  22
BRANCH   5  25
HETATM   25  C   UNL     1     -44.098  59.839 -55.818  1.00  0.00     0.316 C 
BRANCH  25  26
HETATM   26  N   UNL     1     -43.605  59.545 -54.388  1.00  0.00    -0.061 N 
HETATM   27  H   UNL     1     -43.017  58.705 -54.480  1.00  0.00     0.280 HD
HETATM   28  C   UNL     1     -42.726  60.663 -53.835  1.00  0.00     0.255 C 
HETATM   29  C   UNL     1     -42.184  60.269 -52.439  1.00  0.00     0.152 C 
HETATM   30  N   UNL     1     -43.257  59.838 -51.505  1.00  0.00    -0.364 N 
HETATM   31  C   UNL     1     -44.189  58.818 -52.046  1.00  0.00     0.152 C 
HETATM   32  C   UNL     1     -44.748  59.218 -53.435  1.00  0.00     0.255 C 
BRANCH  30  33
HETATM   33  C   UNL     1     -43.747  60.722 -50.562  1.00  0.00     0.102 A 
HETATM   34  N   UNL     1     -44.711  60.279 -49.734  1.00  0.00    -0.352 N 
HETATM   35  H   UNL     1     -44.989  59.304 -49.822  1.00  0.00     0.166 HD
HETATM   36  C   UNL     1     -45.263  61.017 -48.759  1.00  0.00     0.089 A 
HETATM   37  C   UNL     1     -44.841  62.320 -48.554  1.00  0.00     0.017 A 
HETATM   38  C   UNL     1     -43.833  62.827 -49.361  1.00  0.00     0.005 A 
HETATM   39  C   UNL     1     -43.279  62.027 -50.362  1.00  0.00     0.048 A 
ENDBRANCH  30  33
ENDBRANCH  25  26
ENDBRANCH   5  25
TORSDOF 8
ENDMDL
MODEL 7
REMARK VINA RESULT:      -8.2      3.074      8.139
REMARK  8 active torsions:
REMARK  status: ('A' for Active; 'I' for Inactive)
REMARK    1  A    between atoms: C_4  and  O_5 
REMARK    2  A    between atoms: O_5  and  C_6 
REMARK    3  A    between atoms: C_9  and  N_10 
REMARK    4  A    between atoms: N_10  and  C_11 
REMARK    5  A    between atoms: C_13  and  N_14 
REMARK    6  A    between atoms: C_16  and  C_17 
REMARK    7  A    between atoms: C_17  and  N_18 
REMARK    8  A    between atoms: N_22  and  C_23 
ROOT
HETATM    1  C   UNL     1     -44.250  58.718 -52.562  1.00  0.00     0.731 A 
HETATM    2  N   UNL     1     -44.892  59.417 -51.634  1.00  0.00    -0.031 NA
HETATM    3  C   UNL     1     -45.256  58.769 -50.542  1.00  0.00     0.219 A 
HETATM    4  N   UNL     1     -45.009  57.489 -50.309  1.00  0.00    -0.200 NA
HETATM    5  C   UNL     1     -44.377  56.857 -51.293  1.00  0.00     0.174 A 
HETATM    6  N   UNL     1     -43.934  57.434 -52.407  1.00  0.00    -0.045 NA
ENDROOT
BRANCH   1   7
HETATM    7  N   UNL     1     -43.849  59.431 -53.686  1.00  0.00    -0.188 N 
HETATM    8  H   UNL     1     -43.867  60.424 -53.483  1.00  0.00     0.184 HD
BRANCH   7   9
HETATM    9  C   UNL     1     -43.718  59.105 -55.043  1.00  0.00     0.049 A 
HETATM   10  C   UNL     1     -42.542  59.290 -55.781  1.00  0.00     0.033 A 
HETATM   11  C   UNL     1     -42.488  58.979 -57.145  1.00  0.00     0.039 A 
HETATM   12  C   UNL     1     -43.612  58.474 -57.790  1.00  0.00     0.076 A 
HETATM   13  C   UNL     1     -44.806  58.324 -57.091  1.00  0.00     0.039 A 
HETATM   14  C   UNL     1     -44.852  58.635 -55.728  1.00  0.00     0.033 A 
BRANCH  12  15
HETATM   15  O   UNL     1     -43.508  58.216 -59.134  1.00  0.00    -0.311 OA
BRANCH  15  16
HETATM   16  C   UNL     1     -44.065  57.050 -59.611  1.00  0.00     0.076 A 
HETATM   17  C   UNL     1     -45.281  57.179 -60.285  1.00  0.00     0.037 A 
HETATM   18  C   UNL     1     -45.898  56.054 -60.836  1.00  0.00     0.003 A 
HETATM   19  C   UNL     1     -45.295  54.802 -60.724  1.00  0.00     0.000 A 
HETATM   20  C   UNL     1     -44.070  54.674 -60.068  1.00  0.00     0.003 A 
HETATM   21  C   UNL     1     -43.449  55.797 -59.519  1.00  0.00     0.037 A 
ENDBRANCH  15  16
ENDBRANCH  12  15
ENDBRANCH   7   9
ENDBRANCH   1   7
BRANCH   3  22
HETATM   22  N   UNL     1     -45.898  59.483 -49.556  1.00  0.00    -0.270 NA
HETATM   23  H   UNL     1     -46.738  59.003 -49.253  1.00  0.00     0.127 HD
HETATM   24  H   UNL     1     -45.272  59.756 -48.810  1.00  0.00     0.127 HD
ENDBRANCH   3  22
BRANCH   5  25
HETATM   25  C   UNL     1     -43.921  55.437 -51.025  1.00  0.00     0.316 C 
BRANCH  25  26
HETATM   26  N   UNL     1     -42.481  55.104 -51.462  1.00  0.00    -0.061 N 
HETATM   27  H   UNL     1     -42.002  56.013 -51.505  1.00  0.00     0.280 HD
HETATM   28  C   UNL     1     -41.747  54.245 -50.435  1.00  0.00     0.255 C 
HETATM   29  C   UNL     1     -40.281  54.025 -50.882  1.00  0.00     0.152 C 
HETATM   30  N   UNL     1     -40.174  53.512 -52.272  1.00  0.00    -0.364 N 
HETATM   31  C   UNL     1     -40.953  54.268 -53.283  1.00  0.00     0.152 C 
HETATM   32  C   UNL     1     -42.426  54.475 -52.849  1.00  0.00     0.255 C 
BRANCH  30  33
HETATM   33  C   UNL     1     -39.966  52.163 -52.497  1.00  0.00     0.102 A 
HETATM   34  N   UNL     1     -39.726  51.382 -51.427  1.00  0.00    -0.352 N 
HETATM   35  H   UNL     1     -39.757  51.824 -50.512  1.00  0.00     0.166 HD
HETATM   36  C   UNL     1     -39.529  50.057 -51.493  1.00  0.00     0.089 A 
HETATM   37  C   UNL     1     -39.571  49.411 -52.718  1.00  0.00     0.017 A 
HETATM   38  C   UNL     1     -39.836  50.159 -53.855  1.00  0.00     0.005 A 
HETATM   39  C   UNL     1     -40.042  51.535 -53.747  1.00  0.00     0.048 A 
ENDBRANCH  30  33
ENDBRANCH  25  26
ENDBRANCH   5  25
TORSDOF 8
ENDMDL
MODEL 8
REMARK VINA RESULT:      -8.1      1.984      5.856
REMARK  8 active torsions:
REMARK  status: ('A' for Active; 'I' for Inactive)
REMARK    1  A    between atoms: C_4  and  O_5 
REMARK    2  A    between atoms: O_5  and  C_6 
REMARK    3  A    between atoms: C_9  and  N_10 
REMARK    4  A    between atoms: N_10  and  C_11 
REMARK    5  A    between atoms: C_13  and  N_14 
REMARK    6  A    between atoms: C_16  and  C_17 
REMARK    7  A    between atoms: C_17  and  N_18 
REMARK    8  A    between atoms: N_22  and  C_23 
ROOT
HETATM    1  C   UNL     1     -44.934  57.806 -51.372  1.00  0.00     0.731 A 
HETATM    2  N   UNL     1     -45.353  58.551 -50.357  1.00  0.00    -0.031 NA
HETATM    3  C   UNL     1     -45.655  59.810 -50.624  1.00  0.00     0.219 A 
HETATM    4  N   UNL     1     -45.584  60.362 -51.825  1.00  0.00    -0.200 NA
HETATM    5  C   UNL     1     -45.141  59.554 -52.783  1.00  0.00     0.174 A 
HETATM    6  N   UNL     1     -44.855  58.265 -52.619  1.00  0.00    -0.045 NA
ENDROOT
BRANCH   1   7
HETATM    7  N   UNL     1     -44.655  56.478 -51.071  1.00  0.00    -0.188 N 
HETATM    8  H   UNL     1     -45.384  56.104 -50.474  1.00  0.00     0.184 HD
BRANCH   7   9
HETATM    9  C   UNL     1     -43.503  55.684 -51.169  1.00  0.00     0.049 A 
HETATM   10  C   UNL     1     -43.496  54.294 -51.004  1.00  0.00     0.033 A 
HETATM   11  C   UNL     1     -42.304  53.564 -51.077  1.00  0.00     0.039 A 
HETATM   12  C   UNL     1     -41.100  54.216 -51.320  1.00  0.00     0.076 A 
HETATM   13  C   UNL     1     -41.073  55.603 -51.442  1.00  0.00     0.039 A 
HETATM   14  C   UNL     1     -42.268  56.326 -51.369  1.00  0.00     0.033 A 
BRANCH  12  15
HETATM   15  O   UNL     1     -39.960  53.452 -51.351  1.00  0.00    -0.311 OA
BRANCH  15  16
HETATM   16  C   UNL     1     -39.921  52.390 -52.228  1.00  0.00     0.076 A 
HETATM   17  C   UNL     1     -39.591  51.149 -51.678  1.00  0.00     0.037 A 
HETATM   18  C   UNL     1     -39.566  50.011 -52.486  1.00  0.00     0.003 A 
HETATM   19  C   UNL     1     -39.882  50.109 -53.840  1.00  0.00     0.000 A 
HETATM   20  C   UNL     1     -40.232  51.344 -54.387  1.00  0.00     0.003 A 
HETATM   21  C   UNL     1     -40.261  52.484 -53.581  1.00  0.00     0.037 A 
ENDBRANCH  15  16
ENDBRANCH  12  15
ENDBRANCH   7   9
ENDBRANCH   1   7
BRANCH   3  22
HETATM   22  N   UNL     1     -46.117  60.592 -49.590  1.00  0.00    -0.270 NA
HETATM   23  H   UNL     1     -45.935  60.151 -48.695  1.00  0.00     0.127 HD
HETATM   24  H   UNL     1     -45.804  61.551 -49.664  1.00  0.00     0.127 HD
ENDBRANCH   3  22
BRANCH   5  25
HETATM   25  C   UNL     1     -45.191  60.072 -54.206  1.00  0.00     0.316 C 
BRANCH  25  26
HETATM   26  N   UNL     1     -44.639  59.120 -55.284  1.00  0.00    -0.061 N 
HETATM   27  H   UNL     1     -44.682  58.185 -54.857  1.00  0.00     0.280 HD
HETATM   28  C   UNL     1     -45.511  59.093 -56.537  1.00  0.00     0.255 C 
HETATM   29  C   UNL     1     -44.961  58.051 -57.541  1.00  0.00     0.152 C 
HETATM   30  N   UNL     1     -43.514  58.234 -57.827  1.00  0.00    -0.364 N 
HETATM   31  C   UNL     1     -42.647  58.359 -56.629  1.00  0.00     0.152 C 
HETATM   32  C   UNL     1     -43.184  59.415 -55.629  1.00  0.00     0.255 C 
BRANCH  30  33
HETATM   33  C   UNL     1     -43.114  58.883 -58.981  1.00  0.00     0.102 A 
HETATM   34  N   UNL     1     -43.629  60.103 -59.221  1.00  0.00    -0.352 N 
HETATM   35  H   UNL     1     -44.249  60.494 -58.515  1.00  0.00     0.166 HD
HETATM   36  C   UNL     1     -43.315  60.856 -60.286  1.00  0.00     0.089 A 
HETATM   37  C   UNL     1     -42.405  60.389 -61.219  1.00  0.00     0.017 A 
HETATM   38  C   UNL     1     -41.821  59.147 -61.016  1.00  0.00     0.005 A 
HETATM   39  C   UNL     1     -42.168  58.395 -59.892  1.00  0.00     0.048 A 
ENDBRANCH  30  33
ENDBRANCH  25  26
ENDBRANCH   5  25
TORSDOF 8
ENDMDL
MODEL 9
REMARK VINA RESULT:      -8.0      2.290      5.708
REMARK  8 active torsions:
REMARK  status: ('A' for Active; 'I' for Inactive)
REMARK    1  A    between atoms: C_4  and  O_5 
REMARK    2  A    between atoms: O_5  and  C_6 
REMARK    3  A    between atoms: C_9  and  N_10 
REMARK    4  A    between atoms: N_10  and  C_11 
REMARK    5  A    between atoms: C_13  and  N_14 
REMARK    6  A    between atoms: C_16  and  C_17 
REMARK    7  A    between atoms: C_17  and  N_18 
REMARK    8  A    between atoms: N_22  and  C_23 
ROOT
HETATM    1  C   UNL     1     -44.596  57.643 -52.815  1.00  0.00     0.731 A 
HETATM    2  N   UNL     1     -44.732  58.834 -52.246  1.00  0.00    -0.031 NA
HETATM    3  C   UNL     1     -45.101  59.832 -53.030  1.00  0.00     0.219 A 
HETATM    4  N   UNL     1     -45.359  59.718 -54.323  1.00  0.00    -0.200 NA
HETATM    5  C   UNL     1     -45.184  58.497 -54.819  1.00  0.00     0.174 A 
HETATM    6  N   UNL     1     -44.857  57.425 -54.102  1.00  0.00    -0.045 NA
ENDROOT
BRANCH   1   7
HETATM    7  N   UNL     1     -44.238  56.604 -51.963  1.00  0.00    -0.188 N 
HETATM    8  H   UNL     1     -44.856  56.595 -51.159  1.00  0.00     0.184 HD
BRANCH   7   9
HETATM    9  C   UNL     1     -43.095  55.802 -51.842  1.00  0.00     0.049 A 
HETATM   10  C   UNL     1     -41.864  56.100 -52.439  1.00  0.00     0.033 A 
HETATM   11  C   UNL     1     -40.770  55.236 -52.311  1.00  0.00     0.039 A 
HETATM   12  C   UNL     1     -40.892  54.060 -51.578  1.00  0.00     0.076 A 
HETATM   13  C   UNL     1     -42.117  53.717 -51.013  1.00  0.00     0.039 A 
HETATM   14  C   UNL     1     -43.206  54.586 -51.144  1.00  0.00     0.033 A 
BRANCH  12  15
HETATM   15  O   UNL     1     -39.795  53.238 -51.512  1.00  0.00    -0.311 OA
BRANCH  15  16
HETATM   16  C   UNL     1     -39.834  52.055 -52.216  1.00  0.00     0.076 A 
HETATM   17  C   UNL     1     -40.081  52.161 -53.587  1.00  0.00     0.037 A 
HETATM   18  C   UNL     1     -40.099  51.017 -54.386  1.00  0.00     0.003 A 
HETATM   19  C   UNL     1     -39.859  49.766 -53.818  1.00  0.00     0.000 A 
HETATM   20  C   UNL     1     -39.592  49.659 -52.453  1.00  0.00     0.003 A 
HETATM   21  C   UNL     1     -39.569  50.803 -51.652  1.00  0.00     0.037 A 
ENDBRANCH  15  16
ENDBRANCH  12  15
ENDBRANCH   7   9
ENDBRANCH   1   7
BRANCH   3  22
HETATM   22  N   UNL     1     -45.275  61.070 -52.453  1.00  0.00    -0.270 NA
HETATM   23  H   UNL     1     -44.770  61.133 -51.576  1.00  0.00     0.127 HD
HETATM   24  H   UNL     1     -45.096  61.824 -53.102  1.00  0.00     0.127 HD
ENDBRANCH   3  22
BRANCH   5  25
HETATM   25  C   UNL     1     -45.617  58.262 -56.251  1.00  0.00     0.316 C 
BRANCH  25  26
HETATM   26  N   UNL     1     -44.477  58.058 -57.269  1.00  0.00    -0.061 N 
HETATM   27  H   UNL     1     -44.270  57.051 -57.234  1.00  0.00     0.280 HD
HETATM   28  C   UNL     1     -44.907  58.391 -58.696  1.00  0.00     0.255 C 
HETATM   29  C   UNL     1     -43.755  58.076 -59.681  1.00  0.00     0.152 C 
HETATM   30  N   UNL     1     -42.469  58.707 -59.285  1.00  0.00    -0.364 N 
HETATM   31  C   UNL     1     -42.067  58.482 -57.874  1.00  0.00     0.152 C 
HETATM   32  C   UNL     1     -43.212  58.814 -56.882  1.00  0.00     0.255 C 
BRANCH  30  33
HETATM   33  C   UNL     1     -42.058  59.879 -59.891  1.00  0.00     0.102 A 
HETATM   34  N   UNL     1     -41.523  60.834 -59.107  1.00  0.00    -0.352 N 
HETATM   35  H   UNL     1     -41.412  60.616 -58.120  1.00  0.00     0.166 HD
HETATM   36  C   UNL     1     -41.062  62.009 -59.561  1.00  0.00     0.089 A 
HETATM   37  C   UNL     1     -41.117  62.298 -60.914  1.00  0.00     0.017 A 
HETATM   38  C   UNL     1     -41.638  61.345 -61.777  1.00  0.00     0.005 A 
HETATM   39  C   UNL     1     -42.102  60.131 -61.269  1.00  0.00     0.048 A 
ENDBRANCH  30  33
ENDBRANCH  25  26
ENDBRANCH   5  25
TORSDOF 8
ENDMDL
MODEL 10
REMARK VINA RESULT:      -8.0      2.990      5.182
REMARK  8 active torsions:
REMARK  status: ('A' for Active; 'I' for Inactive)
REMARK    1  A    between atoms: C_4  and  O_5 
REMARK    2  A    between atoms: O_5  and  C_6 
REMARK    3  A    between atoms: C_9  and  N_10 
REMARK    4  A    between atoms: N_10  and  C_11 
REMARK    5  A    between atoms: C_13  and  N_14 
REMARK    6  A    between atoms: C_16  and  C_17 
REMARK    7  A    between atoms: C_17  and  N_18 
REMARK    8  A    between atoms: N_22  and  C_23 
ROOT
HETATM    1  C   UNL     1     -43.792  56.892 -57.676  1.00  0.00     0.731 A 
HETATM    2  N   UNL     1     -42.712  56.450 -58.307  1.00  0.00    -0.031 NA
HETATM    3  C   UNL     1     -42.628  56.711 -59.600  1.00  0.00     0.219 A 
HETATM    4  N   UNL     1     -43.530  57.390 -60.291  1.00  0.00    -0.200 NA
HETATM    5  C   UNL     1     -44.588  57.783 -59.589  1.00  0.00     0.174 A 
HETATM    6  N   UNL     1     -44.740  57.606 -58.279  1.00  0.00    -0.045 NA
ENDROOT
BRANCH   1   7
HETATM    7  N   UNL     1     -43.841  56.634 -56.310  1.00  0.00    -0.188 N 
HETATM    8  H   UNL     1     -44.570  57.195 -55.883  1.00  0.00     0.184 HD
BRANCH   7   9
HETATM    9  C   UNL     1     -42.959  56.022 -55.409  1.00  0.00     0.049 A 
HETATM   10  C   UNL     1     -41.612  56.379 -55.269  1.00  0.00     0.033 A 
HETATM   11  C   UNL     1     -40.773  55.701 -54.376  1.00  0.00     0.039 A 
HETATM   12  C   UNL     1     -41.273  54.656 -53.606  1.00  0.00     0.076 A 
HETATM   13  C   UNL     1     -42.596  54.250 -53.760  1.00  0.00     0.039 A 
HETATM   14  C   UNL     1     -43.429  54.933 -54.653  1.00  0.00     0.033 A 
BRANCH  12  15
HETATM   15  O   UNL     1     -40.397  54.010 -52.771  1.00  0.00    -0.311 OA
BRANCH  15  16
HETATM   16  C   UNL     1     -40.153  52.674 -53.002  1.00  0.00     0.076 A 
HETATM   17  C   UNL     1     -39.758  51.919 -51.895  1.00  0.00     0.037 A 
HETATM   18  C   UNL     1     -39.529  50.549 -52.029  1.00  0.00     0.003 A 
HETATM   19  C   UNL     1     -39.704  49.929 -53.265  1.00  0.00     0.000 A 
HETATM   20  C   UNL     1     -40.119  50.677 -54.368  1.00  0.00     0.003 A 
HETATM   21  C   UNL     1     -40.353  52.047 -54.237  1.00  0.00     0.037 A 
ENDBRANCH  15  16
ENDBRANCH  12  15
ENDBRANCH   7   9
ENDBRANCH   1   7
BRANCH   3  22
HETATM   22  N   UNL     1     -41.502  56.286 -60.268  1.00  0.00    -0.270 NA
HETATM   23  H   UNL     1     -41.570  56.494 -61.258  1.00  0.00     0.127 HD
HETATM   24  H   UNL     1     -40.650  56.601 -59.824  1.00  0.00     0.127 HD
ENDBRANCH   3  22
BRANCH   5  25
HETATM   25  C   UNL     1     -45.576  58.702 -60.279  1.00  0.00     0.316 C 
BRANCH  25  26
HETATM   26  N   UNL     1     -45.098  60.150 -60.502  1.00  0.00    -0.061 N 
HETATM   27  H   UNL     1     -45.920  60.642 -60.879  1.00  0.00     0.280 HD
HETATM   28  C   UNL     1     -44.706  60.840 -59.199  1.00  0.00     0.255 C 
HETATM   29  C   UNL     1     -44.330  62.316 -59.474  1.00  0.00     0.152 C 
HETATM   30  N   UNL     1     -43.317  62.461 -60.552  1.00  0.00    -0.364 N 
HETATM   31  C   UNL     1     -43.621  61.724 -61.803  1.00  0.00     0.152 C 
HETATM   32  C   UNL     1     -43.981  60.241 -61.534  1.00  0.00     0.255 C 
BRANCH  30  33
HETATM   33  C   UNL     1     -41.987  62.658 -60.228  1.00  0.00     0.102 A 
HETATM   34  N   UNL     1     -41.595  62.342 -58.980  1.00  0.00    -0.352 N 
HETATM   35  H   UNL     1     -42.293  61.934 -58.362  1.00  0.00     0.166 HD
HETATM   36  C   UNL     1     -40.335  62.459 -58.536  1.00  0.00     0.089 A 
HETATM   37  C   UNL     1     -39.343  62.927 -59.381  1.00  0.00     0.017 A 
HETATM   38  C   UNL     1     -39.680  63.248 -60.688  1.00  0.00     0.005 A 
HETATM   39  C   UNL     1     -41.001  63.107 -61.117  1.00  0.00     0.048 A 
ENDBRANCH  30  33
ENDBRANCH  25  26
ENDBRANCH   5  25
TORSDOF 8
ENDMDL
