MODEL 1
REMARK VINA RESULT:      -8.8      0.000      0.000
REMARK  7 active torsions:
REMARK  status: ('A' for Active; 'I' for Inactive)
REMARK    1  A    between atoms: O_2  and  C_3 
REMARK    2  A    between atoms: C_6  and  C_7 
REMARK    3  A    between atoms: C_11  and  C_12 
REMARK       I    between atoms: C_12  and  N_13 
REMARK    4  A    between atoms: N_13  and  N_14 
REMARK       I    between atoms: N_14  and  C_15 
REMARK    5  A    between atoms: C_15  and  C_16 
REMARK    6  A    between atoms: C_16  and  C_17 
REMARK    7  A    between atoms: C_17  and  C_18 
ROOT
HETATM    1  C   UNL     1     -43.256  57.113 -57.773  1.00  0.00     0.288 C 
HETATM    2  N   UNL     1     -43.158  56.076 -56.872  1.00  0.00    -0.262 N 
HETATM    3  O   UNL     1     -42.299  57.840 -58.034  1.00  0.00    -0.264 OA
HETATM    4  H   UNL     1     -43.932  55.468 -56.615  1.00  0.00     0.190 HD
ENDROOT
BRANCH   1   5
HETATM    5  C   UNL     1     -44.542  57.272 -58.392  1.00  0.00     0.121 A 
HETATM    6  N   UNL     1     -45.665  57.550 -57.664  1.00  0.00    -0.272 N 
HETATM    7  N   UNL     1     -46.771  57.724 -58.400  1.00  0.00    -0.174 NA
HETATM    8  H   UNL     1     -45.726  57.650 -56.655  1.00  0.00     0.189 HD
HETATM    9  C   UNL     1     -46.369  57.535 -59.668  1.00  0.00     0.089 A 
HETATM   10  C   UNL     1     -44.977  57.235 -59.702  1.00  0.00     0.071 A 
BRANCH   9  11
HETATM   11  C   UNL     1     -47.289  57.676 -60.800  1.00  0.00    -0.005 A 
HETATM   12  C   UNL     1     -47.763  56.541 -61.473  1.00  0.00     0.016 A 
HETATM   13  C   UNL     1     -48.682  56.656 -62.523  1.00  0.00     0.037 A 
HETATM   14  C   UNL     1     -49.138  57.912 -62.920  1.00  0.00     0.068 A 
HETATM   15  C   UNL     1     -48.649  59.049 -62.273  1.00  0.00     0.037 A 
HETATM   16  C   UNL     1     -47.735  58.935 -61.220  1.00  0.00     0.016 A 
BRANCH  14  17
HETATM   17  O   UNL     1     -50.041  58.162 -63.916  1.00  0.00    -0.356 OA
HETATM   18  C   UNL     1     -51.091  59.071 -63.611  1.00  0.00     0.210 C 
ENDBRANCH  14  17
ENDBRANCH   9  11
ENDBRANCH   1   5
BRANCH   2  19
HETATM   19  N   UNL     1     -41.932  55.823 -56.252  1.00  0.00    -0.267 N 
HETATM   20  C   UNL     1     -41.831  54.701 -55.459  1.00  0.00     0.236 C 
HETATM   21  O   UNL     1     -42.787  53.960 -55.239  1.00  0.00    -0.272 OA
HETATM   22  H   UNL     1     -41.145  56.406 -56.528  1.00  0.00     0.190 HD
BRANCH  20  23
HETATM   23  C   UNL     1     -40.451  54.441 -54.902  1.00  0.00     0.109 C 
BRANCH  23  24
HETATM   24  C   UNL     1     -40.516  53.814 -53.510  1.00  0.00     0.048 C 
BRANCH  24  25
HETATM   25  C   UNL     1     -40.190  52.337 -53.439  1.00  0.00    -0.056 A 
HETATM   26  C   UNL     1     -39.899  51.771 -52.185  1.00  0.00     0.031 A 
HETATM   27  C   UNL     1     -39.634  50.406 -52.064  1.00  0.00     0.034 A 
HETATM   28 CL   UNL     1     -39.279  49.738 -50.518  1.00  0.00    -0.084 Cl
HETATM   29  C   UNL     1     -39.660  49.580 -53.184  1.00  0.00     0.024 A 
HETATM   30  C   UNL     1     -39.960  50.124 -54.430  1.00  0.00     0.002 A 
HETATM   31  C   UNL     1     -40.231  51.491 -54.556  1.00  0.00     0.007 A 
ENDBRANCH  24  25
ENDBRANCH  23  24
ENDBRANCH  20  23
ENDBRANCH   2  19
TORSDOF 7
ENDMDL
MODEL 2
REMARK VINA RESULT:      -8.4      5.516     11.401
REMARK  7 active torsions:
REMARK  status: ('A' for Active; 'I' for Inactive)
REMARK    1  A    between atoms: O_2  and  C_3 
REMARK    2  A    between atoms: C_6  and  C_7 
REMARK    3  A    between atoms: C_11  and  C_12 
REMARK       I    between atoms: C_12  and  N_13 
REMARK    4  A    between atoms: N_13  and  N_14 
REMARK       I    between atoms: N_14  and  C_15 
REMARK    5  A    between atoms: C_15  and  C_16 
REMARK    6  A    between atoms: C_16  and  C_17 
REMARK    7  A    between atoms: C_17  and  C_18 
ROOT
HETATM    1  C   UNL     1     -42.869  57.087 -57.035  1.00  0.00     0.288 C 
HETATM    2  N   UNL     1     -41.821  57.425 -57.862  1.00  0.00    -0.262 N 
HETATM    3  O   UNL     1     -43.928  57.714 -57.038  1.00  0.00    -0.264 OA
HETATM    4  H   UNL     1     -40.925  56.945 -57.872  1.00  0.00     0.190 HD
ENDROOT
BRANCH   1   5
HETATM    5  C   UNL     1     -42.644  55.952 -56.185  1.00  0.00     0.121 A 
HETATM    6  N   UNL     1     -43.547  54.930 -56.091  1.00  0.00    -0.272 N 
HETATM    7  N   UNL     1     -43.158  53.922 -55.298  1.00  0.00    -0.174 NA
HETATM    8  H   UNL     1     -44.443  54.863 -56.566  1.00  0.00     0.189 HD
HETATM    9  C   UNL     1     -41.956  54.300 -54.832  1.00  0.00     0.089 A 
HETATM   10  C   UNL     1     -41.606  55.577 -55.356  1.00  0.00     0.071 A 
BRANCH   9  11
HETATM   11  C   UNL     1     -41.166  53.441 -53.946  1.00  0.00    -0.005 A 
HETATM   12  C   UNL     1     -41.124  53.694 -52.567  1.00  0.00     0.016 A 
HETATM   13  C   UNL     1     -40.416  52.854 -51.700  1.00  0.00     0.037 A 
HETATM   14  C   UNL     1     -39.733  51.747 -52.201  1.00  0.00     0.068 A 
HETATM   15  C   UNL     1     -39.745  51.505 -53.576  1.00  0.00     0.037 A 
HETATM   16  C   UNL     1     -40.458  52.341 -54.443  1.00  0.00     0.016 A 
BRANCH  14  17
HETATM   17  O   UNL     1     -39.017  50.843 -51.466  1.00  0.00    -0.356 OA
HETATM   18  C   UNL     1     -39.766  49.877 -50.739  1.00  0.00     0.210 C 
ENDBRANCH  14  17
ENDBRANCH   9  11
ENDBRANCH   1   5
BRANCH   2  19
HETATM   19  N   UNL     1     -41.968  58.492 -58.751  1.00  0.00    -0.267 N 
HETATM   20  C   UNL     1     -42.168  58.199 -60.082  1.00  0.00     0.236 C 
HETATM   21  O   UNL     1     -42.164  57.047 -60.512  1.00  0.00    -0.272 OA
HETATM   22  H   UNL     1     -42.054  59.423 -58.347  1.00  0.00     0.190 HD
BRANCH  20  23
HETATM   23  C   UNL     1     -42.414  59.399 -60.966  1.00  0.00     0.109 C 
BRANCH  23  24
HETATM   24  C   UNL     1     -42.527  60.685 -60.149  1.00  0.00     0.048 C 
BRANCH  24  25
HETATM   25  C   UNL     1     -41.347  61.630 -60.242  1.00  0.00    -0.056 A 
HETATM   26  C   UNL     1     -40.941  62.078 -61.511  1.00  0.00     0.031 A 
HETATM   27  C   UNL     1     -39.885  62.980 -61.643  1.00  0.00     0.034 A 
HETATM   28 CL   UNL     1     -39.406  63.511 -63.209  1.00  0.00    -0.084 Cl
HETATM   29  C   UNL     1     -39.221  63.460 -60.518  1.00  0.00     0.024 A 
HETATM   30  C   UNL     1     -39.622  63.035 -59.254  1.00  0.00     0.002 A 
HETATM   31  C   UNL     1     -40.681  62.133 -59.116  1.00  0.00     0.007 A 
ENDBRANCH  24  25
ENDBRANCH  23  24
ENDBRANCH  20  23
ENDBRANCH   2  19
TORSDOF 7
ENDMDL
MODEL 3
REMARK VINA RESULT:      -8.1      8.353     12.056
REMARK  7 active torsions:
REMARK  status: ('A' for Active; 'I' for Inactive)
REMARK    1  A    between atoms: O_2  and  C_3 
REMARK    2  A    between atoms: C_6  and  C_7 
REMARK    3  A    between atoms: C_11  and  C_12 
REMARK       I    between atoms: C_12  and  N_13 
REMARK    4  A    between atoms: N_13  and  N_14 
REMARK       I    between atoms: N_14  and  C_15 
REMARK    5  A    between atoms: C_15  and  C_16 
REMARK    6  A    between atoms: C_16  and  C_17 
REMARK    7  A    between atoms: C_17  and  C_18 
ROOT
HETATM    1  C   UNL     1     -44.701  57.833 -51.093  1.00  0.00     0.288 C 
HETATM    2  N   UNL     1     -43.894  58.892 -50.743  1.00  0.00    -0.262 N 
HETATM    3  O   UNL     1     -45.893  57.797 -50.793  1.00  0.00    -0.264 OA
HETATM    4  H   UNL     1     -42.901  58.948 -50.954  1.00  0.00     0.190 HD
ENDROOT
BRANCH   1   5
HETATM    5  C   UNL     1     -44.058  56.788 -51.840  1.00  0.00     0.121 A 
HETATM    6  N   UNL     1     -44.370  56.539 -53.148  1.00  0.00    -0.272 N 
HETATM    7  N   UNL     1     -43.638  55.568 -53.713  1.00  0.00    -0.174 NA
HETATM    8  H   UNL     1     -45.067  57.018 -53.710  1.00  0.00     0.189 HD
HETATM    9  C   UNL     1     -42.821  55.144 -52.735  1.00  0.00     0.089 A 
HETATM   10  C   UNL     1     -43.065  55.877 -51.539  1.00  0.00     0.071 A 
BRANCH   9  11
HETATM   11  C   UNL     1     -41.821  54.098 -52.963  1.00  0.00    -0.005 A 
HETATM   12  C   UNL     1     -41.054  53.606 -51.897  1.00  0.00     0.016 A 
HETATM   13  C   UNL     1     -40.131  52.571 -52.087  1.00  0.00     0.037 A 
HETATM   14  C   UNL     1     -39.958  52.013 -53.352  1.00  0.00     0.068 A 
HETATM   15  C   UNL     1     -40.697  52.516 -54.425  1.00  0.00     0.037 A 
HETATM   16  C   UNL     1     -41.624  53.547 -54.235  1.00  0.00     0.016 A 
BRANCH  14  17
HETATM   17  O   UNL     1     -39.104  50.993 -53.672  1.00  0.00    -0.356 OA
HETATM   18  C   UNL     1     -39.659  49.899 -54.391  1.00  0.00     0.210 C 
ENDBRANCH  14  17
ENDBRANCH   9  11
ENDBRANCH   1   5
BRANCH   2  19
HETATM   19  N   UNL     1     -44.446  59.972 -50.049  1.00  0.00    -0.267 N 
HETATM   20  C   UNL     1     -43.675  61.103 -49.899  1.00  0.00     0.236 C 
HETATM   21  O   UNL     1     -42.515  61.169 -50.301  1.00  0.00    -0.272 OA
HETATM   22  H   UNL     1     -45.434  59.913 -49.812  1.00  0.00     0.190 HD
BRANCH  20  23
HETATM   23  C   UNL     1     -44.373  62.261 -49.225  1.00  0.00     0.109 C 
BRANCH  23  24
HETATM   24  C   UNL     1     -45.530  61.786 -48.348  1.00  0.00     0.048 C 
BRANCH  24  25
HETATM   25  C   UNL     1     -45.731  62.549 -47.055  1.00  0.00    -0.056 A 
HETATM   26  C   UNL     1     -44.922  62.228 -45.950  1.00  0.00     0.031 A 
HETATM   27  C   UNL     1     -45.044  62.931 -44.751  1.00  0.00     0.034 A 
HETATM   28 CL   UNL     1     -44.043  62.517 -43.413  1.00  0.00    -0.084 Cl
HETATM   29  C   UNL     1     -45.962  63.969 -44.631  1.00  0.00     0.024 A 
HETATM   30  C   UNL     1     -46.760  64.307 -45.721  1.00  0.00     0.002 A 
HETATM   31  C   UNL     1     -46.640  63.608 -46.926  1.00  0.00     0.007 A 
ENDBRANCH  24  25
ENDBRANCH  23  24
ENDBRANCH  20  23
ENDBRANCH   2  19
TORSDOF 7
ENDMDL
MODEL 4
REMARK VINA RESULT:      -8.0      4.063     11.594
REMARK  7 active torsions:
REMARK  status: ('A' for Active; 'I' for Inactive)
REMARK    1  A    between atoms: O_2  and  C_3 
REMARK    2  A    between atoms: C_6  and  C_7 
REMARK    3  A    between atoms: C_11  and  C_12 
REMARK       I    between atoms: C_12  and  N_13 
REMARK    4  A    between atoms: N_13  and  N_14 
REMARK       I    between atoms: N_14  and  C_15 
REMARK    5  A    between atoms: C_15  and  C_16 
REMARK    6  A    between atoms: C_16  and  C_17 
REMARK    7  A    between atoms: C_17  and  C_18 
ROOT
HETATM    1  C   UNL     1     -42.996  56.520 -56.994  1.00  0.00     0.288 C 
HETATM    2  N   UNL     1     -43.610  55.593 -57.807  1.00  0.00    -0.262 N 
HETATM    3  O   UNL     1     -43.077  57.728 -57.210  1.00  0.00    -0.264 OA
HETATM    4  H   UNL     1     -43.549  54.586 -57.673  1.00  0.00     0.190 HD
ENDROOT
BRANCH   1   5
HETATM    5  C   UNL     1     -42.272  55.979 -55.879  1.00  0.00     0.121 A 
HETATM    6  N   UNL     1     -41.896  56.755 -54.818  1.00  0.00    -0.272 N 
HETATM    7  N   UNL     1     -41.278  56.083 -53.836  1.00  0.00    -0.174 NA
HETATM    8  H   UNL     1     -42.055  57.752 -54.706  1.00  0.00     0.189 HD
HETATM    9  C   UNL     1     -41.226  54.814 -54.272  1.00  0.00     0.089 A 
HETATM   10  C   UNL     1     -41.827  54.712 -55.559  1.00  0.00     0.071 A 
BRANCH   9  11
HETATM   11  C   UNL     1     -40.649  53.740 -53.459  1.00  0.00    -0.005 A 
HETATM   12  C   UNL     1     -40.559  53.877 -52.066  1.00  0.00     0.016 A 
HETATM   13  C   UNL     1     -40.058  52.840 -51.269  1.00  0.00     0.037 A 
HETATM   14  C   UNL     1     -39.635  51.649 -51.856  1.00  0.00     0.068 A 
HETATM   15  C   UNL     1     -39.695  51.516 -53.245  1.00  0.00     0.037 A 
HETATM   16  C   UNL     1     -40.200  52.549 -54.042  1.00  0.00     0.016 A 
BRANCH  14  17
HETATM   17  O   UNL     1     -39.140  50.558 -51.196  1.00  0.00    -0.356 OA
HETATM   18  C   UNL     1     -39.772  49.312 -51.463  1.00  0.00     0.210 C 
ENDBRANCH  14  17
ENDBRANCH   9  11
ENDBRANCH   1   5
BRANCH   2  19
HETATM   19  N   UNL     1     -44.370  56.032 -58.894  1.00  0.00    -0.267 N 
HETATM   20  C   UNL     1     -44.805  55.090 -59.799  1.00  0.00     0.236 C 
HETATM   21  O   UNL     1     -44.501  53.902 -59.712  1.00  0.00    -0.272 OA
HETATM   22  H   UNL     1     -44.674  57.004 -58.883  1.00  0.00     0.190 HD
BRANCH  20  23
HETATM   23  C   UNL     1     -45.700  55.627 -60.892  1.00  0.00     0.109 C 
BRANCH  23  24
HETATM   24  C   UNL     1     -46.990  56.214 -60.324  1.00  0.00     0.048 C 
BRANCH  24  25
HETATM   25  C   UNL     1     -47.710  57.205 -61.214  1.00  0.00    -0.056 A 
HETATM   26  C   UNL     1     -47.426  58.574 -61.065  1.00  0.00     0.031 A 
HETATM   27  C   UNL     1     -48.034  59.521 -61.891  1.00  0.00     0.034 A 
HETATM   28 CL   UNL     1     -47.671  61.191 -61.687  1.00  0.00    -0.084 Cl
HETATM   29  C   UNL     1     -48.926  59.125 -62.883  1.00  0.00     0.024 A 
HETATM   30  C   UNL     1     -49.206  57.771 -63.051  1.00  0.00     0.002 A 
HETATM   31  C   UNL     1     -48.597  56.818 -62.228  1.00  0.00     0.007 A 
ENDBRANCH  24  25
ENDBRANCH  23  24
ENDBRANCH  20  23
ENDBRANCH   2  19
TORSDOF 7
ENDMDL
MODEL 5
REMARK VINA RESULT:      -8.0      1.750      2.146
REMARK  7 active torsions:
REMARK  status: ('A' for Active; 'I' for Inactive)
REMARK    1  A    between atoms: O_2  and  C_3 
REMARK    2  A    between atoms: C_6  and  C_7 
REMARK    3  A    between atoms: C_11  and  C_12 
REMARK       I    between atoms: C_12  and  N_13 
REMARK    4  A    between atoms: N_13  and  N_14 
REMARK       I    between atoms: N_14  and  C_15 
REMARK    5  A    between atoms: C_15  and  C_16 
REMARK    6  A    between atoms: C_16  and  C_17 
REMARK    7  A    between atoms: C_17  and  C_18 
ROOT
HETATM    1  C   UNL     1     -43.579  56.141 -59.060  1.00  0.00     0.288 C 
HETATM    2  N   UNL     1     -43.478  56.206 -57.688  1.00  0.00    -0.262 N 
HETATM    3  O   UNL     1     -42.639  55.778 -59.765  1.00  0.00    -0.264 OA
HETATM    4  H   UNL     1     -44.225  56.521 -57.075  1.00  0.00     0.190 HD
ENDROOT
BRANCH   1   5
HETATM    5  C   UNL     1     -44.856  56.510 -59.603  1.00  0.00     0.121 A 
HETATM    6  N   UNL     1     -45.886  55.615 -59.698  1.00  0.00    -0.272 N 
HETATM    7  N   UNL     1     -47.026  56.136 -60.175  1.00  0.00    -0.174 NA
HETATM    8  H   UNL     1     -45.868  54.635 -59.434  1.00  0.00     0.189 HD
HETATM    9  C   UNL     1     -46.734  57.424 -60.422  1.00  0.00     0.089 A 
HETATM   10  C   UNL     1     -45.376  57.693 -60.089  1.00  0.00     0.071 A 
BRANCH   9  11
HETATM   11  C   UNL     1     -47.742  58.361 -60.925  1.00  0.00    -0.005 A 
HETATM   12  C   UNL     1     -48.446  58.078 -62.104  1.00  0.00     0.016 A 
HETATM   13  C   UNL     1     -49.447  58.938 -62.571  1.00  0.00     0.037 A 
HETATM   14  C   UNL     1     -49.757  60.100 -61.866  1.00  0.00     0.068 A 
HETATM   15  C   UNL     1     -49.041  60.403 -60.707  1.00  0.00     0.037 A 
HETATM   16  C   UNL     1     -48.043  59.542 -60.236  1.00  0.00     0.016 A 
BRANCH  14  17
HETATM   17  O   UNL     1     -50.717  61.014 -62.203  1.00  0.00    -0.356 OA
HETATM   18  C   UNL     1     -50.277  62.170 -62.907  1.00  0.00     0.210 C 
ENDBRANCH  14  17
ENDBRANCH   9  11
ENDBRANCH   1   5
BRANCH   2  19
HETATM   19  N   UNL     1     -42.283  55.826 -57.072  1.00  0.00    -0.267 N 
HETATM   20  C   UNL     1     -42.352  55.307 -55.798  1.00  0.00     0.236 C 
HETATM   21  O   UNL     1     -43.409  55.222 -55.176  1.00  0.00    -0.272 OA
HETATM   22  H   UNL     1     -41.444  55.828 -57.649  1.00  0.00     0.190 HD
BRANCH  20  23
HETATM   23  C   UNL     1     -41.033  54.829 -55.236  1.00  0.00     0.109 C 
BRANCH  23  24
HETATM   24  C   UNL     1     -41.093  54.675 -53.718  1.00  0.00     0.048 C 
BRANCH  24  25
HETATM   25  C   UNL     1     -40.584  53.358 -53.170  1.00  0.00    -0.056 A 
HETATM   26  C   UNL     1     -40.361  52.297 -54.065  1.00  0.00     0.031 A 
HETATM   27  C   UNL     1     -39.855  51.077 -53.612  1.00  0.00     0.034 A 
HETATM   28 CL   UNL     1     -39.593  49.794 -54.729  1.00  0.00    -0.084 Cl
HETATM   29  C   UNL     1     -39.553  50.895 -52.267  1.00  0.00     0.024 A 
HETATM   30  C   UNL     1     -39.755  51.941 -51.371  1.00  0.00     0.002 A 
HETATM   31  C   UNL     1     -40.260  53.166 -51.820  1.00  0.00     0.007 A 
ENDBRANCH  24  25
ENDBRANCH  23  24
ENDBRANCH  20  23
ENDBRANCH   2  19
TORSDOF 7
ENDMDL
MODEL 6
REMARK VINA RESULT:      -8.0      8.411     12.103
REMARK  7 active torsions:
REMARK  status: ('A' for Active; 'I' for Inactive)
REMARK    1  A    between atoms: O_2  and  C_3 
REMARK    2  A    between atoms: C_6  and  C_7 
REMARK    3  A    between atoms: C_11  and  C_12 
REMARK       I    between atoms: C_12  and  N_13 
REMARK    4  A    between atoms: N_13  and  N_14 
REMARK       I    between atoms: N_14  and  C_15 
REMARK    5  A    between atoms: C_15  and  C_16 
REMARK    6  A    between atoms: C_16  and  C_17 
REMARK    7  A    between atoms: C_17  and  C_18 
ROOT
HETATM    1  C   UNL     1     -42.862  58.868 -51.508  1.00  0.00     0.288 C 
HETATM    2  N   UNL     1     -44.013  59.178 -50.817  1.00  0.00    -0.262 N 
HETATM    3  O   UNL     1     -41.998  59.711 -51.744  1.00  0.00    -0.264 OA
HETATM    4  H   UNL     1     -44.758  58.515 -50.622  1.00  0.00     0.190 HD
ENDROOT
BRANCH   1   5
HETATM    5  C   UNL     1     -42.739  57.497 -51.917  1.00  0.00     0.121 A 
HETATM    6  N   UNL     1     -43.777  56.821 -52.496  1.00  0.00    -0.272 N 
HETATM    7  N   UNL     1     -43.478  55.568 -52.869  1.00  0.00    -0.174 NA
HETATM    8  H   UNL     1     -44.711  57.176 -52.676  1.00  0.00     0.189 HD
HETATM    9  C   UNL     1     -42.196  55.402 -52.507  1.00  0.00     0.089 A 
HETATM   10  C   UNL     1     -41.701  56.587 -51.892  1.00  0.00     0.071 A 
BRANCH   9  11
HETATM   11  C   UNL     1     -41.471  54.158 -52.779  1.00  0.00    -0.005 A 
HETATM   12  C   UNL     1     -41.532  53.565 -54.049  1.00  0.00     0.016 A 
HETATM   13  C   UNL     1     -40.804  52.405 -54.340  1.00  0.00     0.037 A 
HETATM   14  C   UNL     1     -40.006  51.816 -53.361  1.00  0.00     0.068 A 
HETATM   15  C   UNL     1     -39.962  52.383 -52.086  1.00  0.00     0.037 A 
HETATM   16  C   UNL     1     -40.685  53.546 -51.795  1.00  0.00     0.016 A 
BRANCH  14  17
HETATM   17  O   UNL     1     -39.238  50.695 -53.517  1.00  0.00    -0.356 OA
HETATM   18  C   UNL     1     -39.644  49.539 -52.795  1.00  0.00     0.210 C 
ENDBRANCH  14  17
ENDBRANCH   9  11
ENDBRANCH   1   5
BRANCH   2  19
HETATM   19  N   UNL     1     -44.197  60.481 -50.346  1.00  0.00    -0.267 N 
HETATM   20  C   UNL     1     -45.147  60.684 -49.370  1.00  0.00     0.236 C 
HETATM   21  O   UNL     1     -45.866  59.779 -48.949  1.00  0.00    -0.272 OA
HETATM   22  H   UNL     1     -43.526  61.183 -50.652  1.00  0.00     0.190 HD
BRANCH  20  23
HETATM   23  C   UNL     1     -45.221  62.098 -48.842  1.00  0.00     0.109 C 
BRANCH  23  24
HETATM   24  C   UNL     1     -46.098  62.186 -47.594  1.00  0.00     0.048 C 
BRANCH  24  25
HETATM   25  C   UNL     1     -45.362  62.161 -46.271  1.00  0.00    -0.056 A 
HETATM   26  C   UNL     1     -45.344  63.328 -45.487  1.00  0.00     0.031 A 
HETATM   27  C   UNL     1     -44.713  63.340 -44.242  1.00  0.00     0.034 A 
HETATM   28 CL   UNL     1     -44.705  64.782 -43.302  1.00  0.00    -0.084 Cl
HETATM   29  C   UNL     1     -44.098  62.193 -43.751  1.00  0.00     0.024 A 
HETATM   30  C   UNL     1     -44.119  61.026 -44.510  1.00  0.00     0.002 A 
HETATM   31  C   UNL     1     -44.753  61.007 -45.757  1.00  0.00     0.007 A 
ENDBRANCH  24  25
ENDBRANCH  23  24
ENDBRANCH  20  23
ENDBRANCH   2  19
TORSDOF 7
ENDMDL
MODEL 7
REMARK VINA RESULT:      -7.9     16.409     22.075
REMARK  7 active torsions:
REMARK  status: ('A' for Active; 'I' for Inactive)
REMARK    1  A    between atoms: O_2  and  C_3 
REMARK    2  A    between atoms: C_6  and  C_7 
REMARK    3  A    between atoms: C_11  and  C_12 
REMARK       I    between atoms: C_12  and  N_13 
REMARK    4  A    between atoms: N_13  and  N_14 
REMARK       I    between atoms: N_14  and  C_15 
REMARK    5  A    between atoms: C_15  and  C_16 
REMARK    6  A    between atoms: C_16  and  C_17 
REMARK    7  A    between atoms: C_17  and  C_18 
ROOT
HETATM    1  C   UNL     1     -34.135  40.029 -52.309  1.00  0.00     0.288 C 
HETATM    2  N   UNL     1     -33.799  41.065 -53.152  1.00  0.00    -0.262 N 
HETATM    3  O   UNL     1     -35.112  39.311 -52.518  1.00  0.00    -0.264 OA
HETATM    4  H   UNL     1     -33.013  41.692 -53.001  1.00  0.00     0.190 HD
ENDROOT
BRANCH   1   5
HETATM    5  C   UNL     1     -33.261  39.840 -51.185  1.00  0.00     0.121 A 
HETATM    6  N   UNL     1     -31.920  40.092 -51.263  1.00  0.00    -0.272 N 
HETATM    7  N   UNL     1     -31.259  39.919 -50.110  1.00  0.00    -0.174 NA
HETATM    8  H   UNL     1     -31.405  40.404 -52.082  1.00  0.00     0.189 HD
HETATM    9  C   UNL     1     -32.197  39.518 -49.237  1.00  0.00     0.089 A 
HETATM   10  C   UNL     1     -33.466  39.442 -49.879  1.00  0.00     0.071 A 
BRANCH   9  11
HETATM   11  C   UNL     1     -31.881  39.255 -47.830  1.00  0.00    -0.005 A 
HETATM   12  C   UNL     1     -32.614  38.304 -47.105  1.00  0.00     0.016 A 
HETATM   13  C   UNL     1     -32.293  38.004 -45.776  1.00  0.00     0.037 A 
HETATM   14  C   UNL     1     -31.233  38.656 -45.148  1.00  0.00     0.068 A 
HETATM   15  C   UNL     1     -30.516  39.624 -45.854  1.00  0.00     0.037 A 
HETATM   16  C   UNL     1     -30.833  39.921 -47.184  1.00  0.00     0.016 A 
BRANCH  14  17
HETATM   17  O   UNL     1     -30.808  38.448 -43.865  1.00  0.00    -0.356 OA
HETATM   18  C   UNL     1     -29.446  38.754 -43.588  1.00  0.00     0.210 C 
ENDBRANCH  14  17
ENDBRANCH   9  11
ENDBRANCH   1   5
BRANCH   2  19
HETATM   19  N   UNL     1     -34.571  41.295 -54.294  1.00  0.00    -0.267 N 
HETATM   20  C   UNL     1     -35.629  42.170 -54.189  1.00  0.00     0.236 C 
HETATM   21  O   UNL     1     -35.944  42.702 -53.126  1.00  0.00    -0.272 OA
HETATM   22  H   UNL     1     -34.228  40.908 -55.170  1.00  0.00     0.190 HD
BRANCH  20  23
HETATM   23  C   UNL     1     -36.357  42.443 -55.485  1.00  0.00     0.109 C 
BRANCH  23  24
HETATM   24  C   UNL     1     -37.273  41.282 -55.870  1.00  0.00     0.048 C 
BRANCH  24  25
HETATM   25  C   UNL     1     -37.403  41.010 -57.354  1.00  0.00    -0.056 A 
HETATM   26  C   UNL     1     -37.316  42.093 -58.247  1.00  0.00     0.031 A 
HETATM   27  C   UNL     1     -37.389  41.885 -59.626  1.00  0.00     0.034 A 
HETATM   28 CL   UNL     1     -37.281  43.228 -60.698  1.00  0.00    -0.084 Cl
HETATM   29  C   UNL     1     -37.540  40.601 -60.140  1.00  0.00     0.024 A 
HETATM   30  C   UNL     1     -37.614  39.519 -59.267  1.00  0.00     0.002 A 
HETATM   31  C   UNL     1     -37.538  39.720 -57.885  1.00  0.00     0.007 A 
ENDBRANCH  24  25
ENDBRANCH  23  24
ENDBRANCH  20  23
ENDBRANCH   2  19
TORSDOF 7
ENDMDL
MODEL 8
REMARK VINA RESULT:      -7.9      7.614     10.018
REMARK  7 active torsions:
REMARK  status: ('A' for Active; 'I' for Inactive)
REMARK    1  A    between atoms: O_2  and  C_3 
REMARK    2  A    between atoms: C_6  and  C_7 
REMARK    3  A    between atoms: C_11  and  C_12 
REMARK       I    between atoms: C_12  and  N_13 
REMARK    4  A    between atoms: N_13  and  N_14 
REMARK       I    between atoms: N_14  and  C_15 
REMARK    5  A    between atoms: C_15  and  C_16 
REMARK    6  A    between atoms: C_16  and  C_17 
REMARK    7  A    between atoms: C_17  and  C_18 
ROOT
HETATM    1  C   UNL     1     -44.042  58.196 -52.372  1.00  0.00     0.288 C 
HETATM    2  N   UNL     1     -42.882  57.555 -51.997  1.00  0.00    -0.262 N 
HETATM    3  O   UNL     1     -44.585  57.977 -53.454  1.00  0.00    -0.264 OA
HETATM    4  H   UNL     1     -42.393  57.724 -51.121  1.00  0.00     0.190 HD
ENDROOT
BRANCH   1   5
HETATM    5  C   UNL     1     -44.575  59.119 -51.410  1.00  0.00     0.121 A 
HETATM    6  N   UNL     1     -45.914  59.192 -51.144  1.00  0.00    -0.272 N 
HETATM    7  N   UNL     1     -46.238  60.066 -50.181  1.00  0.00    -0.174 NA
HETATM    8  H   UNL     1     -46.652  58.650 -51.583  1.00  0.00     0.189 HD
HETATM    9  C   UNL     1     -45.068  60.608 -49.806  1.00  0.00     0.089 A 
HETATM   10  C   UNL     1     -44.001  60.049 -50.567  1.00  0.00     0.071 A 
BRANCH   9  11
HETATM   11  C   UNL     1     -44.984  61.600 -48.731  1.00  0.00    -0.005 A 
HETATM   12  C   UNL     1     -44.656  62.932 -49.020  1.00  0.00     0.016 A 
HETATM   13  C   UNL     1     -44.622  63.903 -48.011  1.00  0.00     0.037 A 
HETATM   14  C   UNL     1     -44.914  63.553 -46.694  1.00  0.00     0.068 A 
HETATM   15  C   UNL     1     -45.214  62.223 -46.393  1.00  0.00     0.037 A 
HETATM   16  C   UNL     1     -45.253  61.253 -47.401  1.00  0.00     0.016 A 
BRANCH  14  17
HETATM   17  O   UNL     1     -44.930  64.402 -45.621  1.00  0.00    -0.356 OA
HETATM   18  C   UNL     1     -45.940  64.176 -44.646  1.00  0.00     0.210 C 
ENDBRANCH  14  17
ENDBRANCH   9  11
ENDBRANCH   1   5
BRANCH   2  19
HETATM   19  N   UNL     1     -42.315  56.609 -52.855  1.00  0.00    -0.267 N 
HETATM   20  C   UNL     1     -41.166  56.957 -53.529  1.00  0.00     0.236 C 
HETATM   21  O   UNL     1     -40.664  58.076 -53.443  1.00  0.00    -0.272 OA
HETATM   22  H   UNL     1     -42.707  55.669 -52.831  1.00  0.00     0.190 HD
BRANCH  20  23
HETATM   23  C   UNL     1     -40.559  55.852 -54.362  1.00  0.00     0.109 C 
BRANCH  23  24
HETATM   24  C   UNL     1     -41.384  54.569 -54.279  1.00  0.00     0.048 C 
BRANCH  24  25
HETATM   25  C   UNL     1     -40.749  53.428 -53.511  1.00  0.00    -0.056 A 
HETATM   26  C   UNL     1     -40.399  52.258 -54.209  1.00  0.00     0.031 A 
HETATM   27  C   UNL     1     -39.775  51.197 -53.552  1.00  0.00     0.034 A 
HETATM   28 CL   UNL     1     -39.359  49.776 -54.429  1.00  0.00    -0.084 Cl
HETATM   29  C   UNL     1     -39.480  51.282 -52.194  1.00  0.00     0.024 A 
HETATM   30  C   UNL     1     -39.809  52.440 -51.494  1.00  0.00     0.002 A 
HETATM   31  C   UNL     1     -40.432  53.508 -52.148  1.00  0.00     0.007 A 
ENDBRANCH  24  25
ENDBRANCH  23  24
ENDBRANCH  20  23
ENDBRANCH   2  19
TORSDOF 7
ENDMDL
MODEL 9
REMARK VINA RESULT:      -7.7      3.836     10.927
REMARK  7 active torsions:
REMARK  status: ('A' for Active; 'I' for Inactive)
REMARK    1  A    between atoms: O_2  and  C_3 
REMARK    2  A    between atoms: C_6  and  C_7 
REMARK    3  A    between atoms: C_11  and  C_12 
REMARK       I    between atoms: C_12  and  N_13 
REMARK    4  A    between atoms: N_13  and  N_14 
REMARK       I    between atoms: N_14  and  C_15 
REMARK    5  A    between atoms: C_15  and  C_16 
REMARK    6  A    between atoms: C_16  and  C_17 
REMARK    7  A    between atoms: C_17  and  C_18 
ROOT
HETATM    1  C   UNL     1     -42.811  57.135 -56.740  1.00  0.00     0.288 C 
HETATM    2  N   UNL     1     -41.813  57.265 -57.680  1.00  0.00    -0.262 N 
HETATM    3  O   UNL     1     -43.794  57.875 -56.728  1.00  0.00    -0.264 OA
HETATM    4  H   UNL     1     -40.977  56.687 -57.709  1.00  0.00     0.190 HD
ENDROOT
BRANCH   1   5
HETATM    5  C   UNL     1     -42.631  56.073 -55.791  1.00  0.00     0.121 A 
HETATM    6  N   UNL     1     -43.689  55.481 -55.159  1.00  0.00    -0.272 N 
HETATM    7  N   UNL     1     -43.351  54.469 -54.348  1.00  0.00    -0.174 NA
HETATM    8  H   UNL     1     -44.671  55.720 -55.262  1.00  0.00     0.189 HD
HETATM    9  C   UNL     1     -42.012  54.400 -54.431  1.00  0.00     0.089 A 
HETATM   10  C   UNL     1     -41.521  55.401 -55.316  1.00  0.00     0.071 A 
BRANCH   9  11
HETATM   11  C   UNL     1     -41.245  53.381 -53.709  1.00  0.00    -0.005 A 
HETATM   12  C   UNL     1     -40.666  52.307 -54.401  1.00  0.00     0.016 A 
HETATM   13  C   UNL     1     -39.888  51.354 -53.734  1.00  0.00     0.037 A 
HETATM   14  C   UNL     1     -39.679  51.458 -52.360  1.00  0.00     0.068 A 
HETATM   15  C   UNL     1     -40.275  52.508 -51.659  1.00  0.00     0.037 A 
HETATM   16  C   UNL     1     -41.049  53.465 -52.325  1.00  0.00     0.016 A 
BRANCH  14  17
HETATM   17  O   UNL     1     -38.932  50.606 -51.593  1.00  0.00    -0.356 OA
HETATM   18  C   UNL     1     -39.644  49.784 -50.677  1.00  0.00     0.210 C 
ENDBRANCH  14  17
ENDBRANCH   9  11
ENDBRANCH   1   5
BRANCH   2  19
HETATM   19  N   UNL     1     -41.927  58.248 -58.667  1.00  0.00    -0.267 N 
HETATM   20  C   UNL     1     -41.993  57.837 -59.979  1.00  0.00     0.236 C 
HETATM   21  O   UNL     1     -41.898  56.656 -60.307  1.00  0.00    -0.272 OA
HETATM   22  H   UNL     1     -42.091  59.202 -58.353  1.00  0.00     0.190 HD
BRANCH  20  23
HETATM   23  C   UNL     1     -42.212  58.947 -60.981  1.00  0.00     0.109 C 
BRANCH  23  24
HETATM   24  C   UNL     1     -43.234  59.965 -60.477  1.00  0.00     0.048 C 
BRANCH  24  25
HETATM   25  C   UNL     1     -44.686  59.627 -60.744  1.00  0.00    -0.056 A 
HETATM   26  C   UNL     1     -45.194  58.409 -60.260  1.00  0.00     0.031 A 
HETATM   27  C   UNL     1     -46.536  58.074 -60.446  1.00  0.00     0.034 A 
HETATM   28 CL   UNL     1     -47.134  56.576 -59.845  1.00  0.00    -0.084 Cl
HETATM   29  C   UNL     1     -47.396  58.944 -61.109  1.00  0.00     0.024 A 
HETATM   30  C   UNL     1     -46.909  60.160 -61.582  1.00  0.00     0.002 A 
HETATM   31  C   UNL     1     -45.566  60.503 -61.395  1.00  0.00     0.007 A 
ENDBRANCH  24  25
ENDBRANCH  23  24
ENDBRANCH  20  23
ENDBRANCH   2  19
TORSDOF 7
ENDMDL
MODEL 10
REMARK VINA RESULT:      -7.5      4.227     11.061
REMARK  7 active torsions:
REMARK  status: ('A' for Active; 'I' for Inactive)
REMARK    1  A    between atoms: O_2  and  C_3 
REMARK    2  A    between atoms: C_6  and  C_7 
REMARK    3  A    between atoms: C_11  and  C_12 
REMARK       I    between atoms: C_12  and  N_13 
REMARK    4  A    between atoms: N_13  and  N_14 
REMARK       I    between atoms: N_14  and  C_15 
REMARK    5  A    between atoms: C_15  and  C_16 
REMARK    6  A    between atoms: C_16  and  C_17 
REMARK    7  A    between atoms: C_17  and  C_18 
ROOT
HETATM    1  C   UNL     1     -42.988  56.738 -57.163  1.00  0.00     0.288 C 
HETATM    2  N   UNL     1     -44.275  56.729 -57.655  1.00  0.00    -0.262 N 
HETATM    3  O   UNL     1     -42.120  57.476 -57.625  1.00  0.00    -0.264 OA
HETATM    4  H   UNL     1     -45.013  56.119 -57.313  1.00  0.00     0.190 HD
ENDROOT
BRANCH   1   5
HETATM    5  C   UNL     1     -42.739  55.839 -56.071  1.00  0.00     0.121 A 
HETATM    6  N   UNL     1     -43.744  55.400 -55.254  1.00  0.00    -0.272 N 
HETATM    7  N   UNL     1     -43.350  54.522 -54.321  1.00  0.00    -0.174 NA
HETATM    8  H   UNL     1     -44.725  55.657 -55.303  1.00  0.00     0.189 HD
HETATM    9  C   UNL     1     -42.029  54.388 -54.515  1.00  0.00     0.089 A 
HETATM   10  C   UNL     1     -41.605  55.211 -55.597  1.00  0.00     0.071 A 
BRANCH   9  11
HETATM   11  C   UNL     1     -41.218  53.472 -53.708  1.00  0.00    -0.005 A 
HETATM   12  C   UNL     1     -41.156  53.620 -52.315  1.00  0.00     0.016 A 
HETATM   13  C   UNL     1     -40.427  52.724 -51.525  1.00  0.00     0.037 A 
HETATM   14  C   UNL     1     -39.743  51.664 -52.118  1.00  0.00     0.068 A 
HETATM   15  C   UNL     1     -39.777  51.525 -53.507  1.00  0.00     0.037 A 
HETATM   16  C   UNL     1     -40.509  52.418 -54.298  1.00  0.00     0.016 A 
BRANCH  14  17
HETATM   17  O   UNL     1     -39.009  50.713 -51.464  1.00  0.00    -0.356 OA
HETATM   18  C   UNL     1     -39.739  49.736 -50.732  1.00  0.00     0.210 C 
ENDBRANCH  14  17
ENDBRANCH   9  11
ENDBRANCH   1   5
BRANCH   2  19
HETATM   19  N   UNL     1     -44.616  57.602 -58.691  1.00  0.00    -0.267 N 
HETATM   20  C   UNL     1     -45.201  58.803 -58.355  1.00  0.00     0.236 C 
HETATM   21  O   UNL     1     -45.478  59.101 -57.195  1.00  0.00    -0.272 OA
HETATM   22  H   UNL     1     -44.291  57.361 -59.625  1.00  0.00     0.190 HD
BRANCH  20  23
HETATM   23  C   UNL     1     -45.453  59.733 -59.519  1.00  0.00     0.109 C 
BRANCH  23  24
HETATM   24  C   UNL     1     -44.534  59.419 -60.699  1.00  0.00     0.048 C 
BRANCH  24  25
HETATM   25  C   UNL     1     -43.363  60.360 -60.889  1.00  0.00    -0.056 A 
HETATM   26  C   UNL     1     -42.577  60.693 -59.772  1.00  0.00     0.031 A 
HETATM   27  C   UNL     1     -41.464  61.524 -59.907  1.00  0.00     0.034 A 
HETATM   28 CL   UNL     1     -40.519  61.917 -58.522  1.00  0.00    -0.084 Cl
HETATM   29  C   UNL     1     -41.108  62.030 -61.152  1.00  0.00     0.024 A 
HETATM   30  C   UNL     1     -41.869  61.698 -62.270  1.00  0.00     0.002 A 
HETATM   31  C   UNL     1     -42.984  60.863 -62.141  1.00  0.00     0.007 A 
ENDBRANCH  24  25
ENDBRANCH  23  24
ENDBRANCH  20  23
ENDBRANCH   2  19
TORSDOF 7
ENDMDL
