MODEL 1
REMARK VINA RESULT:      -8.4      0.000      0.000
REMARK  7 active torsions:
REMARK  status: ('A' for Active; 'I' for Inactive)
REMARK    1  A    between atoms: C_5  and  O_6 
REMARK    2  A    between atoms: O_6  and  C_7 
REMARK    3  A    between atoms: C_7  and  C_8 
REMARK       I    between atoms: C_8  and  N_9 
REMARK    4  A    between atoms: N_9  and  C_10 
REMARK    5  A    between atoms: C_13  and  N_14 
REMARK    6  A    between atoms: N_17  and  C_19 
REMARK    7  A    between atoms: C_19  and  C_20 
ROOT
HETATM    1  C   UNL     1     -45.939  59.892 -52.402  1.00  0.00     0.034 A 
HETATM    2  C   UNL     1     -45.874  59.109 -51.253  1.00  0.00     0.032 A 
HETATM    3  C   UNL     1     -45.024  58.000 -51.184  1.00  0.00     0.031 A 
HETATM    4  C   UNL     1     -44.194  57.625 -52.249  1.00  0.00     0.030 A 
HETATM    5  C   UNL     1     -44.269  58.417 -53.402  1.00  0.00     0.031 A 
HETATM    6  C   UNL     1     -45.128  59.534 -53.481  1.00  0.00     0.032 A 
ENDROOT
BRANCH   1   7
HETATM    7  N   UNL     1     -46.811  60.994 -52.540  1.00  0.00    -0.325 N 
HETATM    8  C   UNL     1     -46.914  62.071 -51.676  1.00  0.00     0.246 C 
HETATM    9  O   UNL     1     -46.185  62.295 -50.711  1.00  0.00    -0.271 OA
HETATM   10  H   UNL     1     -47.412  61.030 -53.358  1.00  0.00     0.169 HD
BRANCH   8  11
HETATM   11  C   UNL     1     -48.103  62.995 -51.947  1.00  0.00     0.278 C 
BRANCH  11  12
HETATM   12  O   UNL     1     -48.938  62.611 -53.031  1.00  0.00    -0.342 OA
BRANCH  12  13
HETATM   13  C   UNL     1     -50.293  62.696 -52.779  1.00  0.00     0.075 A 
HETATM   14  C   UNL     1     -51.163  62.374 -53.842  1.00  0.00    -0.023 A 
HETATM   15  C   UNL     1     -52.561  62.525 -53.665  1.00  0.00    -0.053 A 
HETATM   16  C   UNL     1     -50.615  61.937 -55.177  1.00  0.00     0.052 C 
HETATM   17  C   UNL     1     -53.550  62.240 -54.765  1.00  0.00     0.049 C 
HETATM   18  C   UNL     1     -53.064  62.907 -52.412  1.00  0.00     0.007 A 
HETATM   19  C   UNL     1     -52.205  63.172 -51.354  1.00  0.00     0.003 A 
HETATM   20  C   UNL     1     -50.827  63.071 -51.537  1.00  0.00     0.037 A 
ENDBRANCH  12  13
ENDBRANCH  11  12
ENDBRANCH   8  11
ENDBRANCH   1   7
BRANCH   4  21
HETATM   21  N   UNL     1     -43.407  56.484 -52.140  1.00  0.00    -0.378 N 
HETATM   22  C   UNL     1     -43.574  55.542 -51.027  1.00  0.00     0.150 C 
HETATM   23  C   UNL     1     -42.218  54.861 -50.717  1.00  0.00     0.255 C 
HETATM   24  N   UNL     1     -41.591  54.240 -51.971  1.00  0.00    -0.064 N 
HETATM   25  H   UNL     1     -42.204  53.468 -52.260  1.00  0.00     0.280 HD
HETATM   26  C   UNL     1     -41.528  55.243 -53.123  1.00  0.00     0.255 C 
HETATM   27  C   UNL     1     -42.908  55.874 -53.386  1.00  0.00     0.150 C 
BRANCH  24  28
HETATM   28  C   UNL     1     -40.222  53.657 -51.707  1.00  0.00     0.273 C 
BRANCH  28  29
HETATM   29  C   UNL     1     -40.029  52.287 -52.290  1.00  0.00    -0.033 A 
HETATM   30  C   UNL     1     -40.190  52.070 -53.667  1.00  0.00     0.009 A 
HETATM   31  C   UNL     1     -40.015  50.794 -54.205  1.00  0.00     0.001 A 
HETATM   32  C   UNL     1     -39.682  49.726 -53.376  1.00  0.00     0.000 A 
HETATM   33  C   UNL     1     -39.518  49.929 -52.008  1.00  0.00     0.001 A 
HETATM   34  C   UNL     1     -39.690  51.203 -51.466  1.00  0.00     0.009 A 
ENDBRANCH  28  29
ENDBRANCH  24  28
ENDBRANCH   4  21
TORSDOF 7
ENDMDL
MODEL 2
REMARK VINA RESULT:      -8.4      3.907      5.581
REMARK  7 active torsions:
REMARK  status: ('A' for Active; 'I' for Inactive)
REMARK    1  A    between atoms: C_5  and  O_6 
REMARK    2  A    between atoms: O_6  and  C_7 
REMARK    3  A    between atoms: C_7  and  C_8 
REMARK       I    between atoms: C_8  and  N_9 
REMARK    4  A    between atoms: N_9  and  C_10 
REMARK    5  A    between atoms: C_13  and  N_14 
REMARK    6  A    between atoms: N_17  and  C_19 
REMARK    7  A    between atoms: C_19  and  C_20 
ROOT
HETATM    1  C   UNL     1     -44.994  59.901 -50.704  1.00  0.00     0.034 A 
HETATM    2  C   UNL     1     -43.681  60.119 -51.111  1.00  0.00     0.032 A 
HETATM    3  C   UNL     1     -42.899  59.072 -51.612  1.00  0.00     0.031 A 
HETATM    4  C   UNL     1     -43.389  57.766 -51.737  1.00  0.00     0.030 A 
HETATM    5  C   UNL     1     -44.711  57.556 -51.321  1.00  0.00     0.031 A 
HETATM    6  C   UNL     1     -45.503  58.605 -50.810  1.00  0.00     0.032 A 
ENDROOT
BRANCH   1   7
HETATM    7  N   UNL     1     -45.811  60.912 -50.150  1.00  0.00    -0.325 N 
HETATM    8  C   UNL     1     -45.396  62.168 -49.739  1.00  0.00     0.246 C 
HETATM    9  O   UNL     1     -44.271  62.643 -49.893  1.00  0.00    -0.271 OA
HETATM   10  H   UNL     1     -46.805  60.728 -50.060  1.00  0.00     0.169 HD
BRANCH   8  11
HETATM   11  C   UNL     1     -46.446  62.965 -48.965  1.00  0.00     0.278 C 
BRANCH  11  12
HETATM   12  O   UNL     1     -46.897  62.366 -47.757  1.00  0.00    -0.342 OA
BRANCH  12  13
HETATM   13  C   UNL     1     -46.455  62.981 -46.603  1.00  0.00     0.075 A 
HETATM   14  C   UNL     1     -45.454  62.314 -45.865  1.00  0.00    -0.023 A 
HETATM   15  C   UNL     1     -45.023  62.859 -44.630  1.00  0.00    -0.053 A 
HETATM   16  C   UNL     1     -44.890  61.001 -46.348  1.00  0.00     0.052 C 
HETATM   17  C   UNL     1     -43.988  62.184 -43.767  1.00  0.00     0.049 C 
HETATM   18  C   UNL     1     -45.532  64.093 -44.200  1.00  0.00     0.007 A 
HETATM   19  C   UNL     1     -46.480  64.770 -44.956  1.00  0.00     0.003 A 
HETATM   20  C   UNL     1     -46.941  64.216 -46.148  1.00  0.00     0.037 A 
ENDBRANCH  12  13
ENDBRANCH  11  12
ENDBRANCH   8  11
ENDBRANCH   1   7
BRANCH   4  21
HETATM   21  N   UNL     1     -42.549  56.756 -52.196  1.00  0.00    -0.378 N 
HETATM   22  C   UNL     1     -41.230  57.058 -52.764  1.00  0.00     0.150 C 
HETATM   23  C   UNL     1     -40.861  55.980 -53.813  1.00  0.00     0.255 C 
HETATM   24  N   UNL     1     -40.986  54.561 -53.244  1.00  0.00    -0.064 N 
HETATM   25  H   UNL     1     -40.266  54.468 -52.517  1.00  0.00     0.280 HD
HETATM   26  C   UNL     1     -42.347  54.339 -52.585  1.00  0.00     0.255 C 
HETATM   27  C   UNL     1     -42.648  55.436 -51.547  1.00  0.00     0.150 C 
BRANCH  24  28
HETATM   28  C   UNL     1     -40.724  53.495 -54.282  1.00  0.00     0.273 C 
BRANCH  28  29
HETATM   29  C   UNL     1     -40.294  52.179 -53.697  1.00  0.00    -0.033 A 
HETATM   30  C   UNL     1     -40.316  51.013 -54.478  1.00  0.00     0.009 A 
HETATM   31  C   UNL     1     -39.921  49.792 -53.930  1.00  0.00     0.001 A 
HETATM   32  C   UNL     1     -39.504  49.723 -52.602  1.00  0.00     0.000 A 
HETATM   33  C   UNL     1     -39.478  50.874 -51.819  1.00  0.00     0.001 A 
HETATM   34  C   UNL     1     -39.869  52.098 -52.363  1.00  0.00     0.009 A 
ENDBRANCH  28  29
ENDBRANCH  24  28
ENDBRANCH   4  21
TORSDOF 7
ENDMDL
MODEL 3
REMARK VINA RESULT:      -8.4      0.971      1.818
REMARK  7 active torsions:
REMARK  status: ('A' for Active; 'I' for Inactive)
REMARK    1  A    between atoms: C_5  and  O_6 
REMARK    2  A    between atoms: O_6  and  C_7 
REMARK    3  A    between atoms: C_7  and  C_8 
REMARK       I    between atoms: C_8  and  N_9 
REMARK    4  A    between atoms: N_9  and  C_10 
REMARK    5  A    between atoms: C_13  and  N_14 
REMARK    6  A    between atoms: N_17  and  C_19 
REMARK    7  A    between atoms: C_19  and  C_20 
ROOT
HETATM    1  C   UNL     1     -45.843  59.814 -52.167  1.00  0.00     0.034 A 
HETATM    2  C   UNL     1     -45.220  59.613 -53.396  1.00  0.00     0.032 A 
HETATM    3  C   UNL     1     -44.299  58.575 -53.575  1.00  0.00     0.031 A 
HETATM    4  C   UNL     1     -43.962  57.686 -52.545  1.00  0.00     0.030 A 
HETATM    5  C   UNL     1     -44.591  57.900 -51.311  1.00  0.00     0.031 A 
HETATM    6  C   UNL     1     -45.517  58.947 -51.122  1.00  0.00     0.032 A 
ENDROOT
BRANCH   1   7
HETATM    7  N   UNL     1     -46.745  60.872 -51.921  1.00  0.00    -0.325 N 
HETATM    8  C   UNL     1     -46.412  62.163 -51.546  1.00  0.00     0.246 C 
HETATM    9  O   UNL     1     -45.273  62.624 -51.477  1.00  0.00    -0.271 OA
HETATM   10  H   UNL     1     -47.737  60.696 -52.049  1.00  0.00     0.169 HD
BRANCH   8  11
HETATM   11  C   UNL     1     -47.597  63.029 -51.120  1.00  0.00     0.278 C 
BRANCH  11  12
HETATM   12  O   UNL     1     -48.291  63.676 -52.179  1.00  0.00    -0.342 OA
BRANCH  12  13
HETATM   13  C   UNL     1     -49.562  63.192 -52.421  1.00  0.00     0.075 A 
HETATM   14  C   UNL     1     -49.781  62.566 -53.666  1.00  0.00    -0.023 A 
HETATM   15  C   UNL     1     -51.086  62.126 -54.002  1.00  0.00    -0.053 A 
HETATM   16  C   UNL     1     -48.658  62.419 -54.661  1.00  0.00     0.052 C 
HETATM   17  C   UNL     1     -51.407  61.485 -55.326  1.00  0.00     0.049 C 
HETATM   18  C   UNL     1     -52.121  62.242 -53.061  1.00  0.00     0.007 A 
HETATM   19  C   UNL     1     -51.886  62.813 -51.817  1.00  0.00     0.003 A 
HETATM   20  C   UNL     1     -50.616  63.289 -51.501  1.00  0.00     0.037 A 
ENDBRANCH  12  13
ENDBRANCH  11  12
ENDBRANCH   8  11
ENDBRANCH   1   7
BRANCH   4  21
HETATM   21  N   UNL     1     -43.003  56.705 -52.769  1.00  0.00    -0.378 N 
HETATM   22  C   UNL     1     -41.585  57.045 -52.940  1.00  0.00     0.150 C 
HETATM   23  C   UNL     1     -40.911  56.000 -53.864  1.00  0.00     0.255 C 
HETATM   24  N   UNL     1     -41.155  54.566 -53.379  1.00  0.00    -0.064 N 
HETATM   25  H   UNL     1     -40.664  54.468 -52.482  1.00  0.00     0.280 HD
HETATM   26  C   UNL     1     -42.639  54.302 -53.131  1.00  0.00     0.255 C 
HETATM   27  C   UNL     1     -43.245  55.367 -52.199  1.00  0.00     0.150 C 
BRANCH  24  28
HETATM   28  C   UNL     1     -40.587  53.531 -54.322  1.00  0.00     0.273 C 
BRANCH  28  29
HETATM   29  C   UNL     1     -40.219  52.240 -53.648  1.00  0.00    -0.033 A 
HETATM   30  C   UNL     1     -39.884  52.219 -52.285  1.00  0.00     0.009 A 
HETATM   31  C   UNL     1     -39.537  51.018 -51.664  1.00  0.00     0.001 A 
HETATM   32  C   UNL     1     -39.519  49.833 -52.394  1.00  0.00     0.000 A 
HETATM   33  C   UNL     1     -39.851  49.841 -53.746  1.00  0.00     0.001 A 
HETATM   34  C   UNL     1     -40.201  51.039 -54.372  1.00  0.00     0.009 A 
ENDBRANCH  28  29
ENDBRANCH  24  28
ENDBRANCH   4  21
TORSDOF 7
ENDMDL
MODEL 4
REMARK VINA RESULT:      -8.2      6.554     13.440
REMARK  7 active torsions:
REMARK  status: ('A' for Active; 'I' for Inactive)
REMARK    1  A    between atoms: C_5  and  O_6 
REMARK    2  A    between atoms: O_6  and  C_7 
REMARK    3  A    between atoms: C_7  and  C_8 
REMARK       I    between atoms: C_8  and  N_9 
REMARK    4  A    between atoms: N_9  and  C_10 
REMARK    5  A    between atoms: C_13  and  N_14 
REMARK    6  A    between atoms: N_17  and  C_19 
REMARK    7  A    between atoms: C_19  and  C_20 
ROOT
HETATM    1  C   UNL     1     -43.123  56.080 -57.758  1.00  0.00     0.034 A 
HETATM    2  C   UNL     1     -43.546  55.349 -58.865  1.00  0.00     0.032 A 
HETATM    3  C   UNL     1     -44.618  55.787 -59.650  1.00  0.00     0.031 A 
HETATM    4  C   UNL     1     -45.312  56.973 -59.376  1.00  0.00     0.030 A 
HETATM    5  C   UNL     1     -44.881  57.699 -58.258  1.00  0.00     0.031 A 
HETATM    6  C   UNL     1     -43.805  57.262 -57.459  1.00  0.00     0.032 A 
ENDROOT
BRANCH   1   7
HETATM    7  N   UNL     1     -42.076  55.661 -56.907  1.00  0.00    -0.325 N 
HETATM    8  C   UNL     1     -42.183  54.767 -55.855  1.00  0.00     0.246 C 
HETATM    9  O   UNL     1     -43.182  54.111 -55.564  1.00  0.00    -0.271 OA
HETATM   10  H   UNL     1     -41.143  56.021 -57.083  1.00  0.00     0.169 HD
BRANCH   8  11
HETATM   11  C   UNL     1     -40.944  54.681 -54.964  1.00  0.00     0.278 C 
BRANCH  11  12
HETATM   12  O   UNL     1     -40.498  53.365 -54.666  1.00  0.00    -0.342 OA
BRANCH  12  13
HETATM   13  C   UNL     1     -40.375  53.084 -53.319  1.00  0.00     0.075 A 
HETATM   14  C   UNL     1     -39.911  51.797 -52.974  1.00  0.00    -0.023 A 
HETATM   15  C   UNL     1     -39.845  51.427 -51.607  1.00  0.00    -0.053 A 
HETATM   16  C   UNL     1     -39.547  50.799 -54.043  1.00  0.00     0.052 C 
HETATM   17  C   UNL     1     -39.398  50.059 -51.162  1.00  0.00     0.049 C 
HETATM   18  C   UNL     1     -40.160  52.369 -50.617  1.00  0.00     0.007 A 
HETATM   19  C   UNL     1     -40.567  53.651 -50.962  1.00  0.00     0.003 A 
HETATM   20  C   UNL     1     -40.678  54.005 -52.305  1.00  0.00     0.037 A 
ENDBRANCH  12  13
ENDBRANCH  11  12
ENDBRANCH   8  11
ENDBRANCH   1   7
BRANCH   4  21
HETATM   21  N   UNL     1     -46.401  57.331 -60.163  1.00  0.00    -0.378 N 
HETATM   22  C   UNL     1     -47.344  56.325 -60.668  1.00  0.00     0.150 C 
HETATM   23  C   UNL     1     -47.937  56.804 -62.016  1.00  0.00     0.255 C 
HETATM   24  N   UNL     1     -48.527  58.216 -61.913  1.00  0.00    -0.064 N 
HETATM   25  H   UNL     1     -49.337  58.154 -61.285  1.00  0.00     0.280 HD
HETATM   26  C   UNL     1     -47.530  59.196 -61.295  1.00  0.00     0.255 C 
HETATM   27  C   UNL     1     -46.987  58.667 -59.955  1.00  0.00     0.150 C 
BRANCH  24  28
HETATM   28  C   UNL     1     -49.022  58.736 -63.242  1.00  0.00     0.273 C 
BRANCH  28  29
HETATM   29  C   UNL     1     -50.373  59.389 -63.167  1.00  0.00    -0.033 A 
HETATM   30  C   UNL     1     -50.634  60.566 -63.885  1.00  0.00     0.009 A 
HETATM   31  C   UNL     1     -51.889  61.173 -63.808  1.00  0.00     0.001 A 
HETATM   32  C   UNL     1     -52.889  60.615 -63.016  1.00  0.00     0.000 A 
HETATM   33  C   UNL     1     -52.640  59.446 -62.300  1.00  0.00     0.001 A 
HETATM   34  C   UNL     1     -51.389  58.834 -62.374  1.00  0.00     0.009 A 
ENDBRANCH  28  29
ENDBRANCH  24  28
ENDBRANCH   4  21
TORSDOF 7
ENDMDL
MODEL 5
REMARK VINA RESULT:      -8.2      5.841     12.578
REMARK  7 active torsions:
REMARK  status: ('A' for Active; 'I' for Inactive)
REMARK    1  A    between atoms: C_5  and  O_6 
REMARK    2  A    between atoms: O_6  and  C_7 
REMARK    3  A    between atoms: C_7  and  C_8 
REMARK       I    between atoms: C_8  and  N_9 
REMARK    4  A    between atoms: N_9  and  C_10 
REMARK    5  A    between atoms: C_13  and  N_14 
REMARK    6  A    between atoms: N_17  and  C_19 
REMARK    7  A    between atoms: C_19  and  C_20 
ROOT
HETATM    1  C   UNL     1     -42.674  56.134 -55.472  1.00  0.00     0.034 A 
HETATM    2  C   UNL     1     -42.680  55.505 -56.713  1.00  0.00     0.032 A 
HETATM    3  C   UNL     1     -43.326  56.084 -57.811  1.00  0.00     0.031 A 
HETATM    4  C   UNL     1     -43.987  57.316 -57.727  1.00  0.00     0.030 A 
HETATM    5  C   UNL     1     -43.979  57.940 -56.472  1.00  0.00     0.031 A 
HETATM    6  C   UNL     1     -43.335  57.360 -55.360  1.00  0.00     0.032 A 
ENDROOT
BRANCH   1   7
HETATM    7  N   UNL     1     -42.077  55.573 -54.322  1.00  0.00    -0.325 N 
HETATM    8  C   UNL     1     -42.714  54.814 -53.354  1.00  0.00     0.246 C 
HETATM    9  O   UNL     1     -43.876  54.414 -53.400  1.00  0.00    -0.271 OA
HETATM   10  H   UNL     1     -41.079  55.708 -54.186  1.00  0.00     0.169 HD
BRANCH   8  11
HETATM   11  C   UNL     1     -41.875  54.538 -52.106  1.00  0.00     0.278 C 
BRANCH  11  12
HETATM   12  O   UNL     1     -40.515  54.204 -52.347  1.00  0.00    -0.342 OA
BRANCH  12  13
HETATM   13  C   UNL     1     -40.211  52.865 -52.202  1.00  0.00     0.075 A 
HETATM   14  C   UNL     1     -39.994  52.126 -53.384  1.00  0.00    -0.023 A 
HETATM   15  C   UNL     1     -39.762  50.730 -53.297  1.00  0.00    -0.053 A 
HETATM   16  C   UNL     1     -40.071  52.794 -54.733  1.00  0.00     0.052 C 
HETATM   17  C   UNL     1     -39.562  49.868 -54.516  1.00  0.00     0.049 C 
HETATM   18  C   UNL     1     -39.666  50.119 -52.038  1.00  0.00     0.007 A 
HETATM   19  C   UNL     1     -39.829  50.862 -50.876  1.00  0.00     0.003 A 
HETATM   20  C   UNL     1     -40.103  52.226 -50.957  1.00  0.00     0.037 A 
ENDBRANCH  12  13
ENDBRANCH  11  12
ENDBRANCH   8  11
ENDBRANCH   1   7
BRANCH   4  21
HETATM   21  N   UNL     1     -44.653  57.818 -58.840  1.00  0.00    -0.378 N 
HETATM   22  C   UNL     1     -43.923  58.265 -60.032  1.00  0.00     0.150 C 
HETATM   23  C   UNL     1     -44.721  59.391 -60.735  1.00  0.00     0.255 C 
HETATM   24  N   UNL     1     -46.171  58.977 -61.011  1.00  0.00    -0.064 N 
HETATM   25  H   UNL     1     -46.138  58.218 -61.702  1.00  0.00     0.280 HD
HETATM   26  C   UNL     1     -46.849  58.434 -59.753  1.00  0.00     0.255 C 
HETATM   27  C   UNL     1     -46.012  57.314 -59.110  1.00  0.00     0.150 C 
BRANCH  24  28
HETATM   28  C   UNL     1     -46.990  60.098 -61.607  1.00  0.00     0.273 C 
BRANCH  28  29
HETATM   29  C   UNL     1     -48.380  59.683 -62.001  1.00  0.00    -0.033 A 
HETATM   30  C   UNL     1     -49.498  60.268 -61.386  1.00  0.00     0.009 A 
HETATM   31  C   UNL     1     -50.787  59.876 -61.751  1.00  0.00     0.001 A 
HETATM   32  C   UNL     1     -50.971  58.900 -62.727  1.00  0.00     0.000 A 
HETATM   33  C   UNL     1     -49.869  58.314 -63.345  1.00  0.00     0.001 A 
HETATM   34  C   UNL     1     -48.579  58.703 -62.985  1.00  0.00     0.009 A 
ENDBRANCH  28  29
ENDBRANCH  24  28
ENDBRANCH   4  21
TORSDOF 7
ENDMDL
MODEL 6
REMARK VINA RESULT:      -8.2      4.733     12.326
REMARK  7 active torsions:
REMARK  status: ('A' for Active; 'I' for Inactive)
REMARK    1  A    between atoms: C_5  and  O_6 
REMARK    2  A    between atoms: O_6  and  C_7 
REMARK    3  A    between atoms: C_7  and  C_8 
REMARK       I    between atoms: C_8  and  N_9 
REMARK    4  A    between atoms: N_9  and  C_10 
REMARK    5  A    between atoms: C_13  and  N_14 
REMARK    6  A    between atoms: N_17  and  C_19 
REMARK    7  A    between atoms: C_19  and  C_20 
ROOT
HETATM    1  C   UNL     1     -41.629  57.092 -53.101  1.00  0.00     0.034 A 
HETATM    2  C   UNL     1     -42.677  57.032 -52.186  1.00  0.00     0.032 A 
HETATM    3  C   UNL     1     -43.207  58.198 -51.622  1.00  0.00     0.031 A 
HETATM    4  C   UNL     1     -42.727  59.473 -51.946  1.00  0.00     0.030 A 
HETATM    5  C   UNL     1     -41.669  59.522 -52.864  1.00  0.00     0.031 A 
HETATM    6  C   UNL     1     -41.125  58.351 -53.433  1.00  0.00     0.032 A 
ENDROOT
BRANCH   1   7
HETATM    7  N   UNL     1     -41.028  55.945 -53.665  1.00  0.00    -0.325 N 
HETATM    8  C   UNL     1     -41.491  55.230 -54.757  1.00  0.00     0.246 C 
HETATM    9  O   UNL     1     -42.438  55.545 -55.477  1.00  0.00    -0.271 OA
HETATM   10  H   UNL     1     -40.158  55.611 -53.261  1.00  0.00     0.169 HD
BRANCH   8  11
HETATM   11  C   UNL     1     -40.774  53.903 -55.001  1.00  0.00     0.278 C 
BRANCH  11  12
HETATM   12  O   UNL     1     -39.845  53.519 -53.997  1.00  0.00    -0.342 OA
BRANCH  12  13
HETATM   13  C   UNL     1     -39.817  52.166 -53.718  1.00  0.00     0.075 A 
HETATM   14  C   UNL     1     -39.795  51.794 -52.357  1.00  0.00    -0.023 A 
HETATM   15  C   UNL     1     -39.682  50.423 -52.014  1.00  0.00    -0.053 A 
HETATM   16  C   UNL     1     -39.827  52.841 -51.273  1.00  0.00     0.052 C 
HETATM   17  C   UNL     1     -39.613  49.951 -50.586  1.00  0.00     0.049 C 
HETATM   18  C   UNL     1     -39.679  49.452 -53.027  1.00  0.00     0.007 A 
HETATM   19  C   UNL     1     -39.752  49.823 -54.364  1.00  0.00     0.003 A 
HETATM   20  C   UNL     1     -39.817  51.171 -54.707  1.00  0.00     0.037 A 
ENDBRANCH  12  13
ENDBRANCH  11  12
ENDBRANCH   8  11
ENDBRANCH   1   7
BRANCH   4  21
HETATM   21  N   UNL     1     -43.261  60.591 -51.316  1.00  0.00    -0.378 N 
HETATM   22  C   UNL     1     -43.229  61.915 -51.948  1.00  0.00     0.150 C 
HETATM   23  C   UNL     1     -43.163  63.010 -50.855  1.00  0.00     0.255 C 
HETATM   24  N   UNL     1     -44.274  62.843 -49.811  1.00  0.00    -0.064 N 
HETATM   25  H   UNL     1     -45.164  63.018 -50.294  1.00  0.00     0.280 HD
HETATM   26  C   UNL     1     -44.315  61.420 -49.257  1.00  0.00     0.255 C 
HETATM   27  C   UNL     1     -44.391  60.383 -50.393  1.00  0.00     0.150 C 
BRANCH  24  28
HETATM   28  C   UNL     1     -44.165  63.843 -48.684  1.00  0.00     0.273 C 
BRANCH  28  29
HETATM   29  C   UNL     1     -45.347  63.835 -47.756  1.00  0.00    -0.033 A 
HETATM   30  C   UNL     1     -46.640  64.072 -48.249  1.00  0.00     0.009 A 
HETATM   31  C   UNL     1     -47.735  64.069 -47.382  1.00  0.00     0.001 A 
HETATM   32  C   UNL     1     -47.549  63.834 -46.022  1.00  0.00     0.000 A 
HETATM   33  C   UNL     1     -46.271  63.597 -45.523  1.00  0.00     0.001 A 
HETATM   34  C   UNL     1     -45.174  63.596 -46.385  1.00  0.00     0.009 A 
ENDBRANCH  28  29
ENDBRANCH  24  28
ENDBRANCH   4  21
TORSDOF 7
ENDMDL
MODEL 7
REMARK VINA RESULT:      -8.1      2.550     12.309
REMARK  7 active torsions:
REMARK  status: ('A' for Active; 'I' for Inactive)
REMARK    1  A    between atoms: C_5  and  O_6 
REMARK    2  A    between atoms: O_6  and  C_7 
REMARK    3  A    between atoms: C_7  and  C_8 
REMARK       I    between atoms: C_8  and  N_9 
REMARK    4  A    between atoms: N_9  and  C_10 
REMARK    5  A    between atoms: C_13  and  N_14 
REMARK    6  A    between atoms: N_17  and  C_19 
REMARK    7  A    between atoms: C_19  and  C_20 
ROOT
HETATM    1  C   UNL     1     -44.245  56.861 -51.986  1.00  0.00     0.034 A 
HETATM    2  C   UNL     1     -44.790  57.663 -50.987  1.00  0.00     0.032 A 
HETATM    3  C   UNL     1     -45.345  58.911 -51.288  1.00  0.00     0.031 A 
HETATM    4  C   UNL     1     -45.393  59.415 -52.595  1.00  0.00     0.030 A 
HETATM    5  C   UNL     1     -44.838  58.602 -53.593  1.00  0.00     0.031 A 
HETATM    6  C   UNL     1     -44.272  57.345 -53.296  1.00  0.00     0.032 A 
ENDROOT
BRANCH   1   7
HETATM    7  N   UNL     1     -43.633  55.614 -51.730  1.00  0.00    -0.325 N 
HETATM    8  C   UNL     1     -42.300  55.404 -51.419  1.00  0.00     0.246 C 
HETATM    9  O   UNL     1     -41.462  56.279 -51.205  1.00  0.00    -0.271 OA
HETATM   10  H   UNL     1     -44.215  54.782 -51.748  1.00  0.00     0.169 HD
BRANCH   8  11
HETATM   11  C   UNL     1     -41.868  53.938 -51.426  1.00  0.00     0.278 C 
BRANCH  11  12
HETATM   12  O   UNL     1     -40.516  53.703 -51.796  1.00  0.00    -0.342 OA
BRANCH  12  13
HETATM   13  C   UNL     1     -40.163  52.371 -51.893  1.00  0.00     0.075 A 
HETATM   14  C   UNL     1     -40.002  51.845 -53.192  1.00  0.00    -0.023 A 
HETATM   15  C   UNL     1     -39.723  50.464 -53.352  1.00  0.00    -0.053 A 
HETATM   16  C   UNL     1     -40.187  52.722 -54.404  1.00  0.00     0.052 C 
HETATM   17  C   UNL     1     -39.577  49.822 -54.706  1.00  0.00     0.049 C 
HETATM   18  C   UNL     1     -39.526  49.660 -52.219  1.00  0.00     0.007 A 
HETATM   19  C   UNL     1     -39.635  50.196 -50.942  1.00  0.00     0.003 A 
HETATM   20  C   UNL     1     -39.955  51.542 -50.780  1.00  0.00     0.037 A 
ENDBRANCH  12  13
ENDBRANCH  11  12
ENDBRANCH   8  11
ENDBRANCH   1   7
BRANCH   4  21
HETATM   21  N   UNL     1     -45.913  60.684 -52.826  1.00  0.00    -0.378 N 
HETATM   22  C   UNL     1     -45.982  61.688 -51.758  1.00  0.00     0.150 C 
HETATM   23  C   UNL     1     -47.186  62.629 -52.011  1.00  0.00     0.255 C 
HETATM   24  N   UNL     1     -47.161  63.222 -53.425  1.00  0.00    -0.064 N 
HETATM   25  H   UNL     1     -46.340  63.838 -53.475  1.00  0.00     0.280 HD
HETATM   26  C   UNL     1     -46.994  62.135 -54.487  1.00  0.00     0.255 C 
HETATM   27  C   UNL     1     -45.777  61.243 -54.183  1.00  0.00     0.150 C 
BRANCH  24  28
HETATM   28  C   UNL     1     -48.379  64.065 -53.722  1.00  0.00     0.273 C 
BRANCH  28  29
HETATM   29  C   UNL     1     -49.677  63.371 -53.424  1.00  0.00    -0.033 A 
HETATM   30  C   UNL     1     -50.384  63.659 -52.246  1.00  0.00     0.009 A 
HETATM   31  C   UNL     1     -51.587  63.008 -51.969  1.00  0.00     0.001 A 
HETATM   32  C   UNL     1     -52.093  62.065 -52.861  1.00  0.00     0.000 A 
HETATM   33  C   UNL     1     -51.401  61.772 -54.033  1.00  0.00     0.001 A 
HETATM   34  C   UNL     1     -50.199  62.421 -54.315  1.00  0.00     0.009 A 
ENDBRANCH  28  29
ENDBRANCH  24  28
ENDBRANCH   4  21
TORSDOF 7
ENDMDL
MODEL 8
REMARK VINA RESULT:      -7.9      4.684     11.595
REMARK  7 active torsions:
REMARK  status: ('A' for Active; 'I' for Inactive)
REMARK    1  A    between atoms: C_5  and  O_6 
REMARK    2  A    between atoms: O_6  and  C_7 
REMARK    3  A    between atoms: C_7  and  C_8 
REMARK       I    between atoms: C_8  and  N_9 
REMARK    4  A    between atoms: N_9  and  C_10 
REMARK    5  A    between atoms: C_13  and  N_14 
REMARK    6  A    between atoms: N_17  and  C_19 
REMARK    7  A    between atoms: C_19  and  C_20 
ROOT
HETATM    1  C   UNL     1     -42.976  59.046 -52.088  1.00  0.00     0.034 A 
HETATM    2  C   UNL     1     -44.277  58.934 -51.607  1.00  0.00     0.032 A 
HETATM    3  C   UNL     1     -44.826  59.917 -50.777  1.00  0.00     0.031 A 
HETATM    4  C   UNL     1     -44.110  61.059 -50.393  1.00  0.00     0.030 A 
HETATM    5  C   UNL     1     -42.800  61.161 -50.879  1.00  0.00     0.031 A 
HETATM    6  C   UNL     1     -42.238  60.171 -51.712  1.00  0.00     0.032 A 
ENDROOT
BRANCH   1   7
HETATM    7  N   UNL     1     -42.359  58.062 -52.892  1.00  0.00    -0.325 N 
HETATM    8  C   UNL     1     -42.939  57.393 -53.957  1.00  0.00     0.246 C 
HETATM    9  O   UNL     1     -44.044  57.629 -54.443  1.00  0.00    -0.271 OA
HETATM   10  H   UNL     1     -41.390  57.826 -52.701  1.00  0.00     0.169 HD
BRANCH   8  11
HETATM   11  C   UNL     1     -42.120  56.218 -54.492  1.00  0.00     0.278 C 
BRANCH  11  12
HETATM   12  O   UNL     1     -40.914  55.946 -53.792  1.00  0.00    -0.342 OA
BRANCH  12  13
HETATM   13  C   UNL     1     -40.641  54.606 -53.603  1.00  0.00     0.075 A 
HETATM   14  C   UNL     1     -40.681  54.126 -52.277  1.00  0.00    -0.023 A 
HETATM   15  C   UNL     1     -40.328  52.778 -52.015  1.00  0.00    -0.053 A 
HETATM   16  C   UNL     1     -41.033  55.047 -51.137  1.00  0.00     0.052 C 
HETATM   17  C   UNL     1     -40.309  52.204 -50.623  1.00  0.00     0.049 C 
HETATM   18  C   UNL     1     -40.027  51.920 -53.084  1.00  0.00     0.007 A 
HETATM   19  C   UNL     1     -40.040  52.386 -54.392  1.00  0.00     0.003 A 
HETATM   20  C   UNL     1     -40.341  53.721 -54.650  1.00  0.00     0.037 A 
ENDBRANCH  12  13
ENDBRANCH  11  12
ENDBRANCH   8  11
ENDBRANCH   1   7
BRANCH   4  21
HETATM   21  N   UNL     1     -44.691  61.977 -49.526  1.00  0.00    -0.378 N 
HETATM   22  C   UNL     1     -44.083  63.291 -49.282  1.00  0.00     0.150 C 
HETATM   23  C   UNL     1     -44.430  63.762 -47.848  1.00  0.00     0.255 C 
HETATM   24  N   UNL     1     -45.939  63.714 -47.579  1.00  0.00    -0.064 N 
HETATM   25  H   UNL     1     -46.373  64.415 -48.190  1.00  0.00     0.280 HD
HETATM   26  C   UNL     1     -46.529  62.351 -47.939  1.00  0.00     0.255 C 
HETATM   27  C   UNL     1     -46.157  61.946 -49.377  1.00  0.00     0.150 C 
BRANCH  24  28
HETATM   28  C   UNL     1     -46.285  64.077 -46.154  1.00  0.00     0.273 C 
BRANCH  28  29
HETATM   29  C   UNL     1     -45.319  63.530 -45.142  1.00  0.00    -0.033 A 
HETATM   30  C   UNL     1     -45.067  62.151 -45.071  1.00  0.00     0.009 A 
HETATM   31  C   UNL     1     -44.173  61.647 -44.125  1.00  0.00     0.001 A 
HETATM   32  C   UNL     1     -43.526  62.510 -43.244  1.00  0.00     0.000 A 
HETATM   33  C   UNL     1     -43.768  63.880 -43.306  1.00  0.00     0.001 A 
HETATM   34  C   UNL     1     -44.659  64.390 -44.250  1.00  0.00     0.009 A 
ENDBRANCH  28  29
ENDBRANCH  24  28
ENDBRANCH   4  21
TORSDOF 7
ENDMDL
MODEL 9
REMARK VINA RESULT:      -7.8      6.589      8.656
REMARK  7 active torsions:
REMARK  status: ('A' for Active; 'I' for Inactive)
REMARK    1  A    between atoms: C_5  and  O_6 
REMARK    2  A    between atoms: O_6  and  C_7 
REMARK    3  A    between atoms: C_7  and  C_8 
REMARK       I    between atoms: C_8  and  N_9 
REMARK    4  A    between atoms: N_9  and  C_10 
REMARK    5  A    between atoms: C_13  and  N_14 
REMARK    6  A    between atoms: N_17  and  C_19 
REMARK    7  A    between atoms: C_19  and  C_20 
ROOT
HETATM    1  C   UNL     1     -43.456  58.573 -58.342  1.00  0.00     0.034 A 
HETATM    2  C   UNL     1     -43.540  57.197 -58.534  1.00  0.00     0.032 A 
HETATM    3  C   UNL     1     -43.177  56.304 -57.520  1.00  0.00     0.031 A 
HETATM    4  C   UNL     1     -42.723  56.738 -56.267  1.00  0.00     0.030 A 
HETATM    5  C   UNL     1     -42.638  58.125 -56.085  1.00  0.00     0.031 A 
HETATM    6  C   UNL     1     -42.997  59.031 -57.105  1.00  0.00     0.032 A 
ENDROOT
BRANCH   1   7
HETATM    7  N   UNL     1     -43.767  59.516 -59.346  1.00  0.00    -0.325 N 
HETATM    8  C   UNL     1     -42.936  59.918 -60.379  1.00  0.00     0.246 C 
HETATM    9  O   UNL     1     -41.837  59.437 -60.650  1.00  0.00    -0.271 OA
HETATM   10  H   UNL     1     -44.694  59.932 -59.342  1.00  0.00     0.169 HD
BRANCH   8  11
HETATM   11  C   UNL     1     -43.446  61.119 -61.176  1.00  0.00     0.278 C 
BRANCH  11  12
HETATM   12  O   UNL     1     -42.967  62.385 -60.742  1.00  0.00    -0.342 OA
BRANCH  12  13
HETATM   13  C   UNL     1     -41.677  62.684 -61.133  1.00  0.00     0.075 A 
HETATM   14  C   UNL     1     -40.782  63.100 -60.125  1.00  0.00    -0.023 A 
HETATM   15  C   UNL     1     -39.470  63.499 -60.482  1.00  0.00    -0.053 A 
HETATM   16  C   UNL     1     -41.230  63.184 -58.688  1.00  0.00     0.052 C 
HETATM   17  C   UNL     1     -38.472  63.993 -59.467  1.00  0.00     0.049 C 
HETATM   18  C   UNL     1     -39.052  63.393 -61.817  1.00  0.00     0.007 A 
HETATM   19  C   UNL     1     -39.921  62.933 -62.797  1.00  0.00     0.003 A 
HETATM   20  C   UNL     1     -41.226  62.584 -62.458  1.00  0.00     0.037 A 
ENDBRANCH  12  13
ENDBRANCH  11  12
ENDBRANCH   8  11
ENDBRANCH   1   7
BRANCH   4  21
HETATM   21  N   UNL     1     -42.329  55.804 -55.316  1.00  0.00    -0.378 N 
HETATM   22  C   UNL     1     -43.162  55.508 -54.144  1.00  0.00     0.150 C 
HETATM   23  C   UNL     1     -42.257  55.084 -52.961  1.00  0.00     0.255 C 
HETATM   24  N   UNL     1     -41.302  53.949 -53.350  1.00  0.00    -0.064 N 
HETATM   25  H   UNL     1     -41.882  53.122 -53.537  1.00  0.00     0.280 HD
HETATM   26  C   UNL     1     -40.531  54.277 -54.628  1.00  0.00     0.255 C 
HETATM   27  C   UNL     1     -41.487  54.681 -55.766  1.00  0.00     0.150 C 
BRANCH  24  28
HETATM   28  C   UNL     1     -40.345  53.589 -52.237  1.00  0.00     0.273 C 
BRANCH  28  29
HETATM   29  C   UNL     1     -40.074  52.115 -52.130  1.00  0.00    -0.033 A 
HETATM   30  C   UNL     1     -39.970  51.501 -50.872  1.00  0.00     0.009 A 
HETATM   31  C   UNL     1     -39.712  50.132 -50.777  1.00  0.00     0.001 A 
HETATM   32  C   UNL     1     -39.554  49.368 -51.930  1.00  0.00     0.000 A 
HETATM   33  C   UNL     1     -39.657  49.967 -53.183  1.00  0.00     0.001 A 
HETATM   34  C   UNL     1     -39.916  51.334 -53.285  1.00  0.00     0.009 A 
ENDBRANCH  28  29
ENDBRANCH  24  28
ENDBRANCH   4  21
TORSDOF 7
ENDMDL
MODEL 10
REMARK VINA RESULT:      -7.8      5.032      6.977
REMARK  7 active torsions:
REMARK  status: ('A' for Active; 'I' for Inactive)
REMARK    1  A    between atoms: C_5  and  O_6 
REMARK    2  A    between atoms: O_6  and  C_7 
REMARK    3  A    between atoms: C_7  and  C_8 
REMARK       I    between atoms: C_8  and  N_9 
REMARK    4  A    between atoms: N_9  and  C_10 
REMARK    5  A    between atoms: C_13  and  N_14 
REMARK    6  A    between atoms: N_17  and  C_19 
REMARK    7  A    between atoms: C_19  and  C_20 
ROOT
HETATM    1  C   UNL     1     -44.346  58.012 -56.098  1.00  0.00     0.034 A 
HETATM    2  C   UNL     1     -43.275  57.134 -56.241  1.00  0.00     0.032 A 
HETATM    3  C   UNL     1     -42.784  56.413 -55.147  1.00  0.00     0.031 A 
HETATM    4  C   UNL     1     -43.339  56.525 -53.865  1.00  0.00     0.030 A 
HETATM    5  C   UNL     1     -44.413  57.414 -53.731  1.00  0.00     0.031 A 
HETATM    6  C   UNL     1     -44.911  58.149 -54.828  1.00  0.00     0.032 A 
ENDROOT
BRANCH   1   7
HETATM    7  N   UNL     1     -44.851  58.796 -57.158  1.00  0.00    -0.325 N 
HETATM    8  C   UNL     1     -46.114  58.702 -57.718  1.00  0.00     0.246 C 
HETATM    9  O   UNL     1     -47.035  57.997 -57.307  1.00  0.00    -0.271 OA
HETATM   10  H   UNL     1     -44.254  59.520 -57.545  1.00  0.00     0.169 HD
BRANCH   8  11
HETATM   11  C   UNL     1     -46.305  59.511 -59.001  1.00  0.00     0.278 C 
BRANCH  11  12
HETATM   12  O   UNL     1     -46.040  58.809 -60.208  1.00  0.00    -0.342 OA
BRANCH  12  13
HETATM   13  C   UNL     1     -45.004  57.899 -60.136  1.00  0.00     0.075 A 
HETATM   14  C   UNL     1     -45.355  56.534 -60.074  1.00  0.00    -0.023 A 
HETATM   15  C   UNL     1     -44.337  55.561 -59.914  1.00  0.00    -0.053 A 
HETATM   16  C   UNL     1     -46.802  56.110 -60.112  1.00  0.00     0.052 C 
HETATM   17  C   UNL     1     -44.636  54.089 -59.801  1.00  0.00     0.049 C 
HETATM   18  C   UNL     1     -42.992  55.960 -59.906  1.00  0.00     0.007 A 
HETATM   19  C   UNL     1     -42.650  57.302 -60.019  1.00  0.00     0.003 A 
HETATM   20  C   UNL     1     -43.650  58.265 -60.130  1.00  0.00     0.037 A 
ENDBRANCH  12  13
ENDBRANCH  11  12
ENDBRANCH   8  11
ENDBRANCH   1   7
BRANCH   4  21
HETATM   21  N   UNL     1     -42.776  55.820 -52.807  1.00  0.00    -0.378 N 
HETATM   22  C   UNL     1     -42.173  56.512 -51.661  1.00  0.00     0.150 C 
HETATM   23  C   UNL     1     -41.037  55.641 -51.071  1.00  0.00     0.255 C 
HETATM   24  N   UNL     1     -41.512  54.216 -50.760  1.00  0.00    -0.064 N 
HETATM   25  H   UNL     1     -42.198  54.290 -50.000  1.00  0.00     0.280 HD
HETATM   26  C   UNL     1     -42.212  53.583 -51.962  1.00  0.00     0.255 C 
HETATM   27  C   UNL     1     -43.335  54.493 -52.494  1.00  0.00     0.150 C 
BRANCH  24  28
HETATM   28  C   UNL     1     -40.392  53.325 -50.275  1.00  0.00     0.273 C 
BRANCH  28  29
HETATM   29  C   UNL     1     -40.095  52.177 -51.197  1.00  0.00    -0.033 A 
HETATM   30  C   UNL     1     -39.891  52.399 -52.568  1.00  0.00     0.009 A 
HETATM   31  C   UNL     1     -39.621  51.329 -53.422  1.00  0.00     0.001 A 
HETATM   32  C   UNL     1     -39.554  50.032 -52.919  1.00  0.00     0.000 A 
HETATM   33  C   UNL     1     -39.755  49.800 -51.560  1.00  0.00     0.001 A 
HETATM   34  C   UNL     1     -40.023  50.866 -50.702  1.00  0.00     0.009 A 
ENDBRANCH  28  29
ENDBRANCH  24  28
ENDBRANCH   4  21
TORSDOF 7
ENDMDL
