MODEL 1
REMARK VINA RESULT:      -8.4      0.000      0.000
REMARK  6 active torsions:
REMARK  status: ('A' for Active; 'I' for Inactive)
REMARK    1  A    between atoms: C_2  and  C_3 
REMARK    2  A    between atoms: C_5  and  S_6 
REMARK    3  A    between atoms: S_6  and  C_7 
REMARK    4  A    between atoms: C_7  and  C_8 
REMARK       I    between atoms: C_8  and  N_9 
REMARK    5  A    between atoms: N_9  and  C_10 
REMARK    6  A    between atoms: C_13  and  C_14 
ROOT
HETATM    1  C   UNL     1     -41.085  58.712 -53.299  1.00  0.00     0.233 C 
HETATM    2  N   UNL     1     -41.928  57.731 -52.837  1.00  0.00    -0.305 N 
HETATM    3  O   UNL     1     -39.855  58.677 -53.266  1.00  0.00    -0.272 OA
HETATM    4  H   UNL     1     -42.927  57.870 -52.894  1.00  0.00     0.171 HD
ENDROOT
BRANCH   1   5
HETATM    5  C   UNL     1     -41.773  59.924 -53.919  1.00  0.00     0.184 C 
BRANCH   5   6
HETATM    6  S   UNL     1     -43.456  59.590 -54.550  1.00  0.00    -0.100 SA
BRANCH   6   7
HETATM    7  C   UNL     1     -43.098  58.388 -55.803  1.00  0.00     0.109 A 
HETATM    8  N   UNL     1     -43.186  57.083 -55.470  1.00  0.00    -0.226 NA
HETATM    9  C   UNL     1     -42.915  56.150 -56.397  1.00  0.00     0.128 A 
HETATM   10  N   UNL     1     -42.546  56.392 -57.655  1.00  0.00    -0.225 NA
HETATM   11  C   UNL     1     -42.474  57.698 -57.952  1.00  0.00     0.113 A 
HETATM   12  C   UNL     1     -42.730  58.768 -57.107  1.00  0.00     0.042 A 
HETATM   13  S   UNL     1     -42.023  58.168 -59.519  1.00  0.00    -0.074 SA
HETATM   14  C   UNL     1     -42.543  60.032 -57.817  1.00  0.00    -0.033 A 
HETATM   15  C   UNL     1     -42.153  59.824 -59.136  1.00  0.00    -0.012 A 
HETATM   16  C   UNL     1     -42.740  61.393 -57.222  1.00  0.00     0.050 C 
HETATM   17  C   UNL     1     -41.857  60.841 -60.192  1.00  0.00     0.057 C 
BRANCH   9  18
HETATM   18  C   UNL     1     -43.000  54.711 -55.966  1.00  0.00     0.076 C 
HETATM   19  C   UNL     1     -43.767  54.573 -54.661  1.00  0.00     0.013 C 
ENDBRANCH   9  18
ENDBRANCH   6   7
ENDBRANCH   5   6
ENDBRANCH   1   5
BRANCH   2  20
HETATM   20  C   UNL     1     -41.487  56.569 -52.274  1.00  0.00     0.173 A 
HETATM   21  S   UNL     1     -41.337  56.631 -50.578  1.00  0.00    -0.061 SA
HETATM   22  C   UNL     1     -40.797  54.999 -50.589  1.00  0.00     0.085 A 
HETATM   23  C   UNL     1     -40.778  54.514 -51.885  1.00  0.00     0.076 A 
HETATM   24  N   UNL     1     -41.172  55.438 -52.844  1.00  0.00    -0.223 NA
BRANCH  23  25
HETATM   25  C   UNL     1     -40.375  53.164 -52.277  1.00  0.00    -0.007 A 
HETATM   26  C   UNL     1     -39.868  52.230 -51.358  1.00  0.00     0.017 A 
HETATM   27  C   UNL     1     -39.500  50.946 -51.776  1.00  0.00     0.043 A 
HETATM   28  C   UNL     1     -39.639  50.590 -53.112  1.00  0.00     0.116 A 
HETATM   29  F   UNL     1     -39.286  49.361 -53.507  1.00  0.00    -0.206 F 
HETATM   30  C   UNL     1     -40.141  51.492 -54.039  1.00  0.00     0.043 A 
HETATM   31  C   UNL     1     -40.509  52.774 -53.622  1.00  0.00     0.017 A 
ENDBRANCH  23  25
ENDBRANCH   2  20
TORSDOF 6
ENDMDL
MODEL 2
REMARK VINA RESULT:      -8.2      3.599      8.999
REMARK  6 active torsions:
REMARK  status: ('A' for Active; 'I' for Inactive)
REMARK    1  A    between atoms: C_2  and  C_3 
REMARK    2  A    between atoms: C_5  and  S_6 
REMARK    3  A    between atoms: S_6  and  C_7 
REMARK    4  A    between atoms: C_7  and  C_8 
REMARK       I    between atoms: C_8  and  N_9 
REMARK    5  A    between atoms: N_9  and  C_10 
REMARK    6  A    between atoms: C_13  and  C_14 
ROOT
HETATM    1  C   UNL     1     -41.164  58.612 -53.583  1.00  0.00     0.233 C 
HETATM    2  N   UNL     1     -42.076  58.645 -54.609  1.00  0.00    -0.305 N 
HETATM    3  O   UNL     1     -40.340  59.489 -53.325  1.00  0.00    -0.272 OA
HETATM    4  H   UNL     1     -42.696  57.859 -54.746  1.00  0.00     0.171 HD
ENDROOT
BRANCH   1   5
HETATM    5  C   UNL     1     -41.224  57.372 -52.696  1.00  0.00     0.184 C 
BRANCH   5   6
HETATM    6  S   UNL     1     -41.282  55.794 -53.618  1.00  0.00    -0.100 SA
BRANCH   6   7
HETATM    7  C   UNL     1     -40.908  54.648 -52.319  1.00  0.00     0.109 A 
HETATM    8  N   UNL     1     -41.066  55.065 -51.044  1.00  0.00    -0.226 NA
HETATM    9  C   UNL     1     -40.786  54.220 -50.039  1.00  0.00     0.128 A 
HETATM   10  N   UNL     1     -40.343  52.970 -50.177  1.00  0.00    -0.225 NA
HETATM   11  C   UNL     1     -40.202  52.589 -51.455  1.00  0.00     0.113 A 
HETATM   12  C   UNL     1     -40.459  53.343 -52.592  1.00  0.00     0.042 A 
HETATM   13  S   UNL     1     -39.653  51.020 -51.796  1.00  0.00    -0.074 SA
HETATM   14  C   UNL     1     -40.184  52.558 -53.794  1.00  0.00    -0.033 A 
HETATM   15  C   UNL     1     -39.736  51.280 -53.479  1.00  0.00    -0.012 A 
HETATM   16  C   UNL     1     -40.356  53.046 -55.200  1.00  0.00     0.050 C 
HETATM   17  C   UNL     1     -39.344  50.174 -54.407  1.00  0.00     0.057 C 
BRANCH   9  18
HETATM   18  C   UNL     1     -40.951  54.744 -48.638  1.00  0.00     0.076 C 
HETATM   19  C   UNL     1     -40.220  53.868 -47.635  1.00  0.00     0.013 C 
ENDBRANCH   9  18
ENDBRANCH   6   7
ENDBRANCH   5   6
ENDBRANCH   1   5
BRANCH   2  20
HETATM   20  C   UNL     1     -42.180  59.685 -55.485  1.00  0.00     0.173 A 
HETATM   21  S   UNL     1     -43.239  60.921 -54.978  1.00  0.00    -0.061 SA
HETATM   22  C   UNL     1     -42.890  61.782 -56.424  1.00  0.00     0.085 A 
HETATM   23  C   UNL     1     -41.982  61.074 -57.191  1.00  0.00     0.076 A 
HETATM   24  N   UNL     1     -41.591  59.863 -56.636  1.00  0.00    -0.223 NA
BRANCH  23  25
HETATM   25  C   UNL     1     -41.455  61.503 -58.487  1.00  0.00    -0.007 A 
HETATM   26  C   UNL     1     -40.377  62.395 -58.605  1.00  0.00     0.017 A 
HETATM   27  C   UNL     1     -39.901  62.774 -59.866  1.00  0.00     0.043 A 
HETATM   28  C   UNL     1     -40.498  62.261 -61.011  1.00  0.00     0.116 A 
HETATM   29  F   UNL     1     -40.039  62.626 -62.214  1.00  0.00    -0.206 F 
HETATM   30  C   UNL     1     -41.561  61.374 -60.922  1.00  0.00     0.043 A 
HETATM   31  C   UNL     1     -42.036  60.995 -59.663  1.00  0.00     0.017 A 
ENDBRANCH  23  25
ENDBRANCH   2  20
TORSDOF 6
ENDMDL
MODEL 3
REMARK VINA RESULT:      -8.2      1.551      3.433
REMARK  6 active torsions:
REMARK  status: ('A' for Active; 'I' for Inactive)
REMARK    1  A    between atoms: C_2  and  C_3 
REMARK    2  A    between atoms: C_5  and  S_6 
REMARK    3  A    between atoms: S_6  and  C_7 
REMARK    4  A    between atoms: C_7  and  C_8 
REMARK       I    between atoms: C_8  and  N_9 
REMARK    5  A    between atoms: N_9  and  C_10 
REMARK    6  A    between atoms: C_13  and  C_14 
ROOT
HETATM    1  C   UNL     1     -41.127  58.890 -53.381  1.00  0.00     0.233 C 
HETATM    2  N   UNL     1     -41.991  57.865 -53.082  1.00  0.00    -0.305 N 
HETATM    3  O   UNL     1     -39.908  58.874 -53.212  1.00  0.00    -0.272 OA
HETATM    4  H   UNL     1     -42.981  57.990 -53.241  1.00  0.00     0.171 HD
ENDROOT
BRANCH   1   5
HETATM    5  C   UNL     1     -41.771  60.129 -53.993  1.00  0.00     0.184 C 
BRANCH   5   6
HETATM    6  S   UNL     1     -43.237  59.777 -55.029  1.00  0.00    -0.100 SA
BRANCH   6   7
HETATM    7  C   UNL     1     -42.551  60.009 -56.647  1.00  0.00     0.109 A 
HETATM    8  N   UNL     1     -42.000  61.208 -56.934  1.00  0.00    -0.226 NA
HETATM    9  C   UNL     1     -41.477  61.414 -58.152  1.00  0.00     0.128 A 
HETATM   10  N   UNL     1     -41.454  60.527 -59.147  1.00  0.00    -0.225 NA
HETATM   11  C   UNL     1     -42.004  59.346 -58.825  1.00  0.00     0.113 A 
HETATM   12  C   UNL     1     -42.573  58.986 -57.612  1.00  0.00     0.042 A 
HETATM   13  S   UNL     1     -42.045  58.107 -59.984  1.00  0.00    -0.074 SA
HETATM   14  C   UNL     1     -43.056  57.607 -57.668  1.00  0.00    -0.033 A 
HETATM   15  C   UNL     1     -42.824  57.034 -58.913  1.00  0.00    -0.012 A 
HETATM   16  C   UNL     1     -43.719  56.879 -56.538  1.00  0.00     0.050 C 
HETATM   17  C   UNL     1     -43.164  55.655 -59.384  1.00  0.00     0.057 C 
BRANCH   9  18
HETATM   18  C   UNL     1     -40.902  62.777 -58.429  1.00  0.00     0.076 C 
HETATM   19  C   UNL     1     -39.889  62.726 -59.561  1.00  0.00     0.013 C 
ENDBRANCH   9  18
ENDBRANCH   6   7
ENDBRANCH   5   6
ENDBRANCH   1   5
BRANCH   2  20
HETATM   20  C   UNL     1     -41.586  56.676 -52.550  1.00  0.00     0.173 A 
HETATM   21  S   UNL     1     -41.530  56.657 -50.847  1.00  0.00    -0.061 SA
HETATM   22  C   UNL     1     -40.996  55.025 -50.905  1.00  0.00     0.085 A 
HETATM   23  C   UNL     1     -40.907  54.601 -52.219  1.00  0.00     0.076 A 
HETATM   24  N   UNL     1     -41.244  55.570 -53.154  1.00  0.00    -0.223 NA
BRANCH  23  25
HETATM   25  C   UNL     1     -40.488  53.267 -52.650  1.00  0.00    -0.007 A 
HETATM   26  C   UNL     1     -40.653  52.813 -53.969  1.00  0.00     0.017 A 
HETATM   27  C   UNL     1     -40.233  51.530 -54.339  1.00  0.00     0.043 A 
HETATM   28  C   UNL     1     -39.644  50.699 -53.394  1.00  0.00     0.116 A 
HETATM   29  F   UNL     1     -39.243  49.474 -53.753  1.00  0.00    -0.206 F 
HETATM   30  C   UNL     1     -39.465  51.124 -52.086  1.00  0.00     0.043 A 
HETATM   31  C   UNL     1     -39.884  52.406 -51.717  1.00  0.00     0.017 A 
ENDBRANCH  23  25
ENDBRANCH   2  20
TORSDOF 6
ENDMDL
MODEL 4
REMARK VINA RESULT:      -8.1      1.968      2.451
REMARK  6 active torsions:
REMARK  status: ('A' for Active; 'I' for Inactive)
REMARK    1  A    between atoms: C_2  and  C_3 
REMARK    2  A    between atoms: C_5  and  S_6 
REMARK    3  A    between atoms: S_6  and  C_7 
REMARK    4  A    between atoms: C_7  and  C_8 
REMARK       I    between atoms: C_8  and  N_9 
REMARK    5  A    between atoms: N_9  and  C_10 
REMARK    6  A    between atoms: C_13  and  C_14 
ROOT
HETATM    1  C   UNL     1     -41.507  57.967 -50.960  1.00  0.00     0.233 C 
HETATM    2  N   UNL     1     -42.150  56.820 -50.563  1.00  0.00    -0.305 N 
HETATM    3  O   UNL     1     -40.342  58.040 -51.351  1.00  0.00    -0.272 OA
HETATM    4  H   UNL     1     -43.105  56.875 -50.238  1.00  0.00     0.171 HD
ENDROOT
BRANCH   1   5
HETATM    5  C   UNL     1     -42.352  59.237 -50.916  1.00  0.00     0.184 C 
BRANCH   5   6
HETATM    6  S   UNL     1     -44.106  58.985 -51.365  1.00  0.00    -0.100 SA
BRANCH   6   7
HETATM    7  C   UNL     1     -43.927  58.287 -52.985  1.00  0.00     0.109 A 
HETATM    8  N   UNL     1     -43.964  56.942 -53.101  1.00  0.00    -0.226 NA
HETATM    9  C   UNL     1     -43.826  56.385 -54.314  1.00  0.00     0.128 A 
HETATM   10  N   UNL     1     -43.640  57.048 -55.456  1.00  0.00    -0.225 NA
HETATM   11  C   UNL     1     -43.614  58.381 -55.304  1.00  0.00     0.113 A 
HETATM   12  C   UNL     1     -43.750  59.096 -54.122  1.00  0.00     0.042 A 
HETATM   13  S   UNL     1     -43.392  59.367 -56.667  1.00  0.00    -0.074 SA
HETATM   14  C   UNL     1     -43.669  60.531 -54.386  1.00  0.00    -0.033 A 
HETATM   15  C   UNL     1     -43.470  60.793 -55.736  1.00  0.00    -0.012 A 
HETATM   16  C   UNL     1     -43.782  61.606 -53.347  1.00  0.00     0.050 C 
HETATM   17  C   UNL     1     -43.330  62.116 -56.420  1.00  0.00     0.057 C 
BRANCH   9  18
HETATM   18  C   UNL     1     -43.845  54.882 -54.384  1.00  0.00     0.076 C 
HETATM   19  C   UNL     1     -43.011  54.376 -55.550  1.00  0.00     0.013 C 
ENDBRANCH   9  18
ENDBRANCH   6   7
ENDBRANCH   5   6
ENDBRANCH   1   5
BRANCH   2  20
HETATM   20  C   UNL     1     -41.555  55.593 -50.559  1.00  0.00     0.173 A 
HETATM   21  S   UNL     1     -41.057  55.065 -49.017  1.00  0.00    -0.061 SA
HETATM   22  C   UNL     1     -40.467  53.616 -49.729  1.00  0.00     0.085 A 
HETATM   23  C   UNL     1     -40.698  53.628 -51.093  1.00  0.00     0.076 A 
HETATM   24  N   UNL     1     -41.320  54.781 -51.554  1.00  0.00    -0.223 NA
BRANCH  23  25
HETATM   25  C   UNL     1     -40.332  52.559 -52.022  1.00  0.00    -0.007 A 
HETATM   26  C   UNL     1     -39.792  51.337 -51.592  1.00  0.00     0.017 A 
HETATM   27  C   UNL     1     -39.461  50.339 -52.517  1.00  0.00     0.043 A 
HETATM   28  C   UNL     1     -39.671  50.559 -53.872  1.00  0.00     0.116 A 
HETATM   29  F   UNL     1     -39.354  49.602 -54.753  1.00  0.00    -0.206 F 
HETATM   30  C   UNL     1     -40.208  51.756 -54.324  1.00  0.00     0.043 A 
HETATM   31  C   UNL     1     -40.540  52.752 -53.400  1.00  0.00     0.017 A 
ENDBRANCH  23  25
ENDBRANCH   2  20
TORSDOF 6
ENDMDL
MODEL 5
REMARK VINA RESULT:      -7.9      1.693      2.080
REMARK  6 active torsions:
REMARK  status: ('A' for Active; 'I' for Inactive)
REMARK    1  A    between atoms: C_2  and  C_3 
REMARK    2  A    between atoms: C_5  and  S_6 
REMARK    3  A    between atoms: S_6  and  C_7 
REMARK    4  A    between atoms: C_7  and  C_8 
REMARK       I    between atoms: C_8  and  N_9 
REMARK    5  A    between atoms: N_9  and  C_10 
REMARK    6  A    between atoms: C_13  and  C_14 
ROOT
HETATM    1  C   UNL     1     -43.393  57.718 -54.278  1.00  0.00     0.233 C 
HETATM    2  N   UNL     1     -42.111  57.551 -53.814  1.00  0.00    -0.305 N 
HETATM    3  O   UNL     1     -44.318  56.917 -54.140  1.00  0.00    -0.272 OA
HETATM    4  H   UNL     1     -41.420  58.264 -54.000  1.00  0.00     0.171 HD
ENDROOT
BRANCH   1   5
HETATM    5  C   UNL     1     -43.659  59.034 -55.003  1.00  0.00     0.184 C 
BRANCH   5   6
HETATM    6  S   UNL     1     -42.198  59.724 -55.861  1.00  0.00    -0.100 SA
BRANCH   6   7
HETATM    7  C   UNL     1     -42.369  58.958 -57.451  1.00  0.00     0.109 A 
HETATM    8  N   UNL     1     -42.769  57.670 -57.492  1.00  0.00    -0.226 NA
HETATM    9  C   UNL     1     -42.902  57.063 -58.682  1.00  0.00     0.128 A 
HETATM   10  N   UNL     1     -42.661  57.620 -59.869  1.00  0.00    -0.225 NA
HETATM   11  C   UNL     1     -42.270  58.901 -59.790  1.00  0.00     0.113 A 
HETATM   12  C   UNL     1     -42.097  59.659 -58.641  1.00  0.00     0.042 A 
HETATM   13  S   UNL     1     -41.931  59.753 -61.218  1.00  0.00    -0.074 SA
HETATM   14  C   UNL     1     -41.667  61.013 -58.985  1.00  0.00    -0.033 A 
HETATM   15  C   UNL     1     -41.540  61.174 -60.360  1.00  0.00    -0.012 A 
HETATM   16  C   UNL     1     -41.391  62.107 -57.999  1.00  0.00     0.050 C 
HETATM   17  C   UNL     1     -41.124  62.392 -61.123  1.00  0.00     0.057 C 
BRANCH   9  18
HETATM   18  C   UNL     1     -43.323  55.618 -58.670  1.00  0.00     0.076 C 
HETATM   19  C   UNL     1     -44.096  55.261 -59.929  1.00  0.00     0.013 C 
ENDBRANCH   9  18
ENDBRANCH   6   7
ENDBRANCH   5   6
ENDBRANCH   1   5
BRANCH   2  20
HETATM   20  C   UNL     1     -41.703  56.447 -53.125  1.00  0.00     0.173 A 
HETATM   21  S   UNL     1     -41.737  56.631 -51.431  1.00  0.00    -0.061 SA
HETATM   22  C   UNL     1     -41.156  55.022 -51.267  1.00  0.00     0.085 A 
HETATM   23  C   UNL     1     -40.985  54.449 -52.515  1.00  0.00     0.076 A 
HETATM   24  N   UNL     1     -41.298  55.290 -53.574  1.00  0.00    -0.223 NA
BRANCH  23  25
HETATM   25  C   UNL     1     -40.507  53.089 -52.763  1.00  0.00    -0.007 A 
HETATM   26  C   UNL     1     -39.863  52.323 -51.778  1.00  0.00     0.017 A 
HETATM   27  C   UNL     1     -39.427  51.023 -52.057  1.00  0.00     0.043 A 
HETATM   28  C   UNL     1     -39.635  50.483 -53.321  1.00  0.00     0.116 A 
HETATM   29  F   UNL     1     -39.217  49.239 -53.583  1.00  0.00    -0.206 F 
HETATM   30  C   UNL     1     -40.273  51.216 -54.311  1.00  0.00     0.043 A 
HETATM   31  C   UNL     1     -40.709  52.514 -54.031  1.00  0.00     0.017 A 
ENDBRANCH  23  25
ENDBRANCH   2  20
TORSDOF 6
ENDMDL
MODEL 6
REMARK VINA RESULT:      -7.8      2.381      3.907
REMARK  6 active torsions:
REMARK  status: ('A' for Active; 'I' for Inactive)
REMARK    1  A    between atoms: C_2  and  C_3 
REMARK    2  A    between atoms: C_5  and  S_6 
REMARK    3  A    between atoms: S_6  and  C_7 
REMARK    4  A    between atoms: C_7  and  C_8 
REMARK       I    between atoms: C_8  and  N_9 
REMARK    5  A    between atoms: N_9  and  C_10 
REMARK    6  A    between atoms: C_13  and  C_14 
ROOT
HETATM    1  C   UNL     1     -42.942  55.870 -58.253  1.00  0.00     0.233 C 
HETATM    2  N   UNL     1     -42.182  56.246 -57.173  1.00  0.00    -0.305 N 
HETATM    3  O   UNL     1     -43.727  54.922 -58.283  1.00  0.00    -0.272 OA
HETATM    4  H   UNL     1     -41.550  57.030 -57.262  1.00  0.00     0.171 HD
ENDROOT
BRANCH   1   5
HETATM    5  C   UNL     1     -42.786  56.739 -59.496  1.00  0.00     0.184 C 
BRANCH   5   6
HETATM    6  S   UNL     1     -43.844  58.231 -59.504  1.00  0.00    -0.100 SA
BRANCH   6   7
HETATM    7  C   UNL     1     -42.875  59.317 -58.492  1.00  0.00     0.109 A 
HETATM    8  N   UNL     1     -42.898  59.123 -57.156  1.00  0.00    -0.226 NA
HETATM    9  C   UNL     1     -42.179  59.933 -56.364  1.00  0.00     0.128 A 
HETATM   10  N   UNL     1     -41.424  60.952 -56.777  1.00  0.00    -0.225 NA
HETATM   11  C   UNL     1     -41.420  61.111 -58.109  1.00  0.00     0.113 A 
HETATM   12  C   UNL     1     -42.103  60.353 -59.049  1.00  0.00     0.042 A 
HETATM   13  S   UNL     1     -40.500  62.363 -58.791  1.00  0.00    -0.074 SA
HETATM   14  C   UNL     1     -41.830  60.849 -60.397  1.00  0.00    -0.033 A 
HETATM   15  C   UNL     1     -40.973  61.944 -60.375  1.00  0.00    -0.012 A 
HETATM   16  C   UNL     1     -42.390  60.268 -61.659  1.00  0.00     0.050 C 
HETATM   17  C   UNL     1     -40.450  62.743 -61.526  1.00  0.00     0.057 C 
BRANCH   9  18
HETATM   18  C   UNL     1     -42.262  59.693 -54.881  1.00  0.00     0.076 C 
HETATM   19  C   UNL     1     -43.622  60.097 -54.335  1.00  0.00     0.013 C 
ENDBRANCH   9  18
ENDBRANCH   6   7
ENDBRANCH   5   6
ENDBRANCH   1   5
BRANCH   2  20
HETATM   20  C   UNL     1     -42.211  55.598 -55.974  1.00  0.00     0.173 A 
HETATM   21  S   UNL     1     -43.519  56.040 -54.974  1.00  0.00    -0.061 SA
HETATM   22  C   UNL     1     -42.951  54.940 -53.782  1.00  0.00     0.085 A 
HETATM   23  C   UNL     1     -41.808  54.301 -54.231  1.00  0.00     0.076 A 
HETATM   24  N   UNL     1     -41.393  54.701 -55.494  1.00  0.00    -0.223 NA
BRANCH  23  25
HETATM   25  C   UNL     1     -41.052  53.297 -53.483  1.00  0.00    -0.007 A 
HETATM   26  C   UNL     1     -40.801  53.411 -52.106  1.00  0.00     0.017 A 
HETATM   27  C   UNL     1     -40.077  52.423 -51.430  1.00  0.00     0.043 A 
HETATM   28  C   UNL     1     -39.603  51.318 -52.126  1.00  0.00     0.116 A 
HETATM   29  F   UNL     1     -38.912  50.375 -51.474  1.00  0.00    -0.206 F 
HETATM   30  C   UNL     1     -39.841  51.178 -53.486  1.00  0.00     0.043 A 
HETATM   31  C   UNL     1     -40.565  52.165 -54.161  1.00  0.00     0.017 A 
ENDBRANCH  23  25
ENDBRANCH   2  20
TORSDOF 6
ENDMDL
MODEL 7
REMARK VINA RESULT:      -7.8      3.576      9.309
REMARK  6 active torsions:
REMARK  status: ('A' for Active; 'I' for Inactive)
REMARK    1  A    between atoms: C_2  and  C_3 
REMARK    2  A    between atoms: C_5  and  S_6 
REMARK    3  A    between atoms: S_6  and  C_7 
REMARK    4  A    between atoms: C_7  and  C_8 
REMARK       I    between atoms: C_8  and  N_9 
REMARK    5  A    between atoms: N_9  and  C_10 
REMARK    6  A    between atoms: C_13  and  C_14 
ROOT
HETATM    1  C   UNL     1     -42.958  56.051 -56.162  1.00  0.00     0.233 C 
HETATM    2  N   UNL     1     -42.522  56.279 -57.444  1.00  0.00    -0.305 N 
HETATM    3  O   UNL     1     -43.555  56.860 -55.451  1.00  0.00    -0.272 OA
HETATM    4  H   UNL     1     -42.021  55.551 -57.933  1.00  0.00     0.171 HD
ENDROOT
BRANCH   1   5
HETATM    5  C   UNL     1     -42.676  54.655 -55.615  1.00  0.00     0.184 C 
BRANCH   5   6
HETATM    6  S   UNL     1     -40.919  54.351 -55.209  1.00  0.00    -0.100 SA
BRANCH   6   7
HETATM    7  C   UNL     1     -40.952  54.571 -53.451  1.00  0.00     0.109 A 
HETATM    8  N   UNL     1     -41.326  55.776 -52.972  1.00  0.00    -0.226 NA
HETATM    9  C   UNL     1     -41.356  55.974 -51.644  1.00  0.00     0.128 A 
HETATM   10  N   UNL     1     -41.033  55.071 -50.718  1.00  0.00    -0.225 NA
HETATM   11  C   UNL     1     -40.671  53.884 -51.230  1.00  0.00     0.113 A 
HETATM   12  C   UNL     1     -40.601  53.531 -52.570  1.00  0.00     0.042 A 
HETATM   13  S   UNL     1     -40.237  52.626 -50.177  1.00  0.00    -0.074 SA
HETATM   14  C   UNL     1     -40.168  52.142 -52.707  1.00  0.00    -0.033 A 
HETATM   15  C   UNL     1     -39.938  51.554 -51.468  1.00  0.00    -0.012 A 
HETATM   16  C   UNL     1     -39.989  51.419 -54.007  1.00  0.00     0.050 C 
HETATM   17  C   UNL     1     -39.485  50.160 -51.166  1.00  0.00     0.057 C 
BRANCH   9  18
HETATM   18  C   UNL     1     -41.751  57.344 -51.164  1.00  0.00     0.076 C 
HETATM   19  C   UNL     1     -41.716  58.355 -52.298  1.00  0.00     0.013 C 
ENDBRANCH   9  18
ENDBRANCH   6   7
ENDBRANCH   5   6
ENDBRANCH   1   5
BRANCH   2  20
HETATM   20  C   UNL     1     -42.708  57.461 -58.099  1.00  0.00     0.173 A 
HETATM   21  S   UNL     1     -44.299  57.703 -58.661  1.00  0.00    -0.061 SA
HETATM   22  C   UNL     1     -43.816  59.222 -59.305  1.00  0.00     0.085 A 
HETATM   23  C   UNL     1     -42.477  59.447 -59.038  1.00  0.00     0.076 A 
HETATM   24  N   UNL     1     -41.854  58.416 -58.348  1.00  0.00    -0.223 NA
BRANCH  23  25
HETATM   25  C   UNL     1     -41.725  60.638 -59.433  1.00  0.00    -0.007 A 
HETATM   26  C   UNL     1     -40.986  61.403 -58.516  1.00  0.00     0.017 A 
HETATM   27  C   UNL     1     -40.276  62.532 -58.940  1.00  0.00     0.043 A 
HETATM   28  C   UNL     1     -40.301  62.899 -60.279  1.00  0.00     0.116 A 
HETATM   29  F   UNL     1     -39.620  63.980 -60.680  1.00  0.00    -0.206 F 
HETATM   30  C   UNL     1     -41.019  62.158 -61.207  1.00  0.00     0.043 A 
HETATM   31  C   UNL     1     -41.727  61.029 -60.784  1.00  0.00     0.017 A 
ENDBRANCH  23  25
ENDBRANCH   2  20
TORSDOF 6
ENDMDL
MODEL 8
REMARK VINA RESULT:      -7.5      2.132      2.424
REMARK  6 active torsions:
REMARK  status: ('A' for Active; 'I' for Inactive)
REMARK    1  A    between atoms: C_2  and  C_3 
REMARK    2  A    between atoms: C_5  and  S_6 
REMARK    3  A    between atoms: S_6  and  C_7 
REMARK    4  A    between atoms: C_7  and  C_8 
REMARK       I    between atoms: C_8  and  N_9 
REMARK    5  A    between atoms: N_9  and  C_10 
REMARK    6  A    between atoms: C_13  and  C_14 
ROOT
HETATM    1  C   UNL     1     -43.512  57.881 -52.070  1.00  0.00     0.233 C 
HETATM    2  N   UNL     1     -42.190  57.564 -52.266  1.00  0.00    -0.305 N 
HETATM    3  O   UNL     1     -44.354  57.155 -51.542  1.00  0.00    -0.272 OA
HETATM    4  H   UNL     1     -41.586  58.227 -52.731  1.00  0.00     0.171 HD
ENDROOT
BRANCH   1   5
HETATM    5  C   UNL     1     -43.928  59.270 -52.543  1.00  0.00     0.184 C 
BRANCH   5   6
HETATM    6  S   UNL     1     -42.907  59.933 -53.908  1.00  0.00    -0.100 SA
BRANCH   6   7
HETATM    7  C   UNL     1     -43.529  58.979 -55.266  1.00  0.00     0.109 A 
HETATM    8  N   UNL     1     -42.922  57.805 -55.544  1.00  0.00    -0.226 NA
HETATM    9  C   UNL     1     -43.368  57.063 -56.570  1.00  0.00     0.128 A 
HETATM   10  N   UNL     1     -44.380  57.384 -57.377  1.00  0.00    -0.225 NA
HETATM   11  C   UNL     1     -44.963  58.553 -57.069  1.00  0.00     0.113 A 
HETATM   12  C   UNL     1     -44.620  59.418 -56.040  1.00  0.00     0.042 A 
HETATM   13  S   UNL     1     -46.272  59.097 -58.000  1.00  0.00    -0.074 SA
HETATM   14  C   UNL     1     -45.504  60.582 -56.039  1.00  0.00    -0.033 A 
HETATM   15  C   UNL     1     -46.439  60.514 -57.066  1.00  0.00    -0.012 A 
HETATM   16  C   UNL     1     -45.433  61.719 -55.065  1.00  0.00     0.050 C 
HETATM   17  C   UNL     1     -47.514  61.493 -57.416  1.00  0.00     0.057 C 
BRANCH   9  18
HETATM   18  C   UNL     1     -42.638  55.779 -56.855  1.00  0.00     0.076 C 
HETATM   19  C   UNL     1     -42.976  54.715 -55.825  1.00  0.00     0.013 C 
ENDBRANCH   9  18
ENDBRANCH   6   7
ENDBRANCH   5   6
ENDBRANCH   1   5
BRANCH   2  20
HETATM   20  C   UNL     1     -41.641  56.375 -51.885  1.00  0.00     0.173 A 
HETATM   21  S   UNL     1     -41.282  56.274 -50.222  1.00  0.00    -0.061 SA
HETATM   22  C   UNL     1     -40.689  54.680 -50.470  1.00  0.00     0.085 A 
HETATM   23  C   UNL     1     -40.814  54.329 -51.802  1.00  0.00     0.076 A 
HETATM   24  N   UNL     1     -41.358  55.323 -52.604  1.00  0.00    -0.223 NA
BRANCH  23  25
HETATM   25  C   UNL     1     -40.414  53.045 -52.379  1.00  0.00    -0.007 A 
HETATM   26  C   UNL     1     -39.800  52.035 -51.621  1.00  0.00     0.017 A 
HETATM   27  C   UNL     1     -39.439  50.819 -52.213  1.00  0.00     0.043 A 
HETATM   28  C   UNL     1     -39.693  50.608 -53.562  1.00  0.00     0.116 A 
HETATM   29  F   UNL     1     -39.347  49.444 -54.124  1.00  0.00    -0.206 F 
HETATM   30  C   UNL     1     -40.303  51.587 -54.333  1.00  0.00     0.043 A 
HETATM   31  C   UNL     1     -40.664  52.801 -53.741  1.00  0.00     0.017 A 
ENDBRANCH  23  25
ENDBRANCH   2  20
TORSDOF 6
ENDMDL
MODEL 9
REMARK VINA RESULT:      -7.4      2.219      3.893
REMARK  6 active torsions:
REMARK  status: ('A' for Active; 'I' for Inactive)
REMARK    1  A    between atoms: C_2  and  C_3 
REMARK    2  A    between atoms: C_5  and  S_6 
REMARK    3  A    between atoms: S_6  and  C_7 
REMARK    4  A    between atoms: C_7  and  C_8 
REMARK       I    between atoms: C_8  and  N_9 
REMARK    5  A    between atoms: N_9  and  C_10 
REMARK    6  A    between atoms: C_13  and  C_14 
ROOT
HETATM    1  C   UNL     1     -42.510  59.167 -54.459  1.00  0.00     0.233 C 
HETATM    2  N   UNL     1     -43.221  57.993 -54.422  1.00  0.00    -0.305 N 
HETATM    3  O   UNL     1     -41.301  59.269 -54.667  1.00  0.00    -0.272 OA
HETATM    4  H   UNL     1     -44.211  58.020 -54.222  1.00  0.00     0.171 HD
ENDROOT
BRANCH   1   5
HETATM    5  C   UNL     1     -43.330  60.434 -54.240  1.00  0.00     0.184 C 
BRANCH   5   6
HETATM    6  S   UNL     1     -44.574  60.756 -55.542  1.00  0.00    -0.100 SA
BRANCH   6   7
HETATM    7  C   UNL     1     -43.599  60.472 -56.994  1.00  0.00     0.109 A 
HETATM    8  N   UNL     1     -42.506  61.242 -57.183  1.00  0.00    -0.226 NA
HETATM    9  C   UNL     1     -41.752  61.053 -58.277  1.00  0.00     0.128 A 
HETATM   10  N   UNL     1     -41.986  60.156 -59.235  1.00  0.00    -0.225 NA
HETATM   11  C   UNL     1     -43.075  59.405 -59.013  1.00  0.00     0.113 A 
HETATM   12  C   UNL     1     -43.942  59.479 -57.931  1.00  0.00     0.042 A 
HETATM   13  S   UNL     1     -43.503  58.211 -60.140  1.00  0.00    -0.074 SA
HETATM   14  C   UNL     1     -45.003  58.483 -58.062  1.00  0.00    -0.033 A 
HETATM   15  C   UNL     1     -44.866  57.740 -59.229  1.00  0.00    -0.012 A 
HETATM   16  C   UNL     1     -46.111  58.268 -57.076  1.00  0.00     0.050 C 
HETATM   17  C   UNL     1     -45.733  56.633 -59.739  1.00  0.00     0.057 C 
BRANCH   9  18
HETATM   18  C   UNL     1     -40.562  61.958 -58.453  1.00  0.00     0.076 C 
HETATM   19  C   UNL     1     -40.516  62.536 -59.858  1.00  0.00     0.013 C 
ENDBRANCH   9  18
ENDBRANCH   6   7
ENDBRANCH   5   6
ENDBRANCH   1   5
BRANCH   2  20
HETATM   20  C   UNL     1     -42.654  56.768 -54.619  1.00  0.00     0.173 A 
HETATM   21  S   UNL     1     -42.694  56.234 -56.238  1.00  0.00    -0.061 SA
HETATM   22  C   UNL     1     -41.894  54.791 -55.757  1.00  0.00     0.085 A 
HETATM   23  C   UNL     1     -41.641  54.818 -54.397  1.00  0.00     0.076 A 
HETATM   24  N   UNL     1     -42.094  55.964 -53.757  1.00  0.00    -0.223 NA
BRANCH  23  25
HETATM   25  C   UNL     1     -40.972  53.760 -53.640  1.00  0.00    -0.007 A 
HETATM   26  C   UNL     1     -40.404  52.633 -54.258  1.00  0.00     0.017 A 
HETATM   27  C   UNL     1     -39.769  51.647 -53.494  1.00  0.00     0.043 A 
HETATM   28  C   UNL     1     -39.697  51.784 -52.114  1.00  0.00     0.116 A 
HETATM   29  F   UNL     1     -39.087  50.839 -51.388  1.00  0.00    -0.206 F 
HETATM   30  C   UNL     1     -40.245  52.890 -51.479  1.00  0.00     0.043 A 
HETATM   31  C   UNL     1     -40.878  53.875 -52.242  1.00  0.00     0.017 A 
ENDBRANCH  23  25
ENDBRANCH   2  20
TORSDOF 6
ENDMDL
MODEL 10
REMARK VINA RESULT:      -7.4      3.206      7.853
REMARK  6 active torsions:
REMARK  status: ('A' for Active; 'I' for Inactive)
REMARK    1  A    between atoms: C_2  and  C_3 
REMARK    2  A    between atoms: C_5  and  S_6 
REMARK    3  A    between atoms: S_6  and  C_7 
REMARK    4  A    between atoms: C_7  and  C_8 
REMARK       I    between atoms: C_8  and  N_9 
REMARK    5  A    between atoms: N_9  and  C_10 
REMARK    6  A    between atoms: C_13  and  C_14 
ROOT
HETATM    1  C   UNL     1     -40.686  58.799 -52.596  1.00  0.00     0.233 C 
HETATM    2  N   UNL     1     -41.942  59.168 -53.009  1.00  0.00    -0.305 N 
HETATM    3  O   UNL     1     -39.628  59.116 -53.140  1.00  0.00    -0.272 OA
HETATM    4  H   UNL     1     -42.749  58.834 -52.501  1.00  0.00     0.171 HD
ENDROOT
BRANCH   1   5
HETATM    5  C   UNL     1     -40.640  57.937 -51.339  1.00  0.00     0.184 C 
BRANCH   5   6
HETATM    6  S   UNL     1     -42.022  56.749 -51.193  1.00  0.00    -0.100 SA
BRANCH   6   7
HETATM    7  C   UNL     1     -41.840  55.856 -52.714  1.00  0.00     0.109 A 
HETATM    8  N   UNL     1     -42.338  56.414 -53.838  1.00  0.00    -0.226 NA
HETATM    9  C   UNL     1     -42.219  55.759 -55.003  1.00  0.00     0.128 A 
HETATM   10  N   UNL     1     -41.647  54.566 -55.167  1.00  0.00    -0.225 NA
HETATM   11  C   UNL     1     -41.160  54.044 -54.031  1.00  0.00     0.113 A 
HETATM   12  C   UNL     1     -41.201  54.603 -52.762  1.00  0.00     0.042 A 
HETATM   13  S   UNL     1     -40.395  52.530 -54.076  1.00  0.00    -0.074 SA
HETATM   14  C   UNL     1     -40.554  53.718 -51.796  1.00  0.00    -0.033 A 
HETATM   15  C   UNL     1     -40.083  52.558 -52.401  1.00  0.00    -0.012 A 
HETATM   16  C   UNL     1     -40.405  54.001 -50.332  1.00  0.00     0.050 C 
HETATM   17  C   UNL     1     -39.370  51.402 -51.774  1.00  0.00     0.057 C 
BRANCH   9  18
HETATM   18  C   UNL     1     -42.816  56.411 -56.220  1.00  0.00     0.076 C 
HETATM   19  C   UNL     1     -42.968  55.416 -57.358  1.00  0.00     0.013 C 
ENDBRANCH   9  18
ENDBRANCH   6   7
ENDBRANCH   5   6
ENDBRANCH   1   5
BRANCH   2  20
HETATM   20  C   UNL     1     -42.170  59.956 -54.100  1.00  0.00     0.173 A 
HETATM   21  S   UNL     1     -42.975  61.416 -53.749  1.00  0.00    -0.061 SA
HETATM   22  C   UNL     1     -42.916  61.823 -55.418  1.00  0.00     0.085 A 
HETATM   23  C   UNL     1     -42.278  60.822 -56.129  1.00  0.00     0.076 A 
HETATM   24  N   UNL     1     -41.862  59.749 -55.352  1.00  0.00    -0.223 NA
BRANCH  23  25
HETATM   25  C   UNL     1     -42.044  60.828 -57.573  1.00  0.00    -0.007 A 
HETATM   26  C   UNL     1     -42.536  59.823 -58.422  1.00  0.00     0.017 A 
HETATM   27  C   UNL     1     -42.293  59.872 -59.800  1.00  0.00     0.043 A 
HETATM   28  C   UNL     1     -41.559  60.924 -60.333  1.00  0.00     0.116 A 
HETATM   29  F   UNL     1     -41.330  60.967 -61.650  1.00  0.00    -0.206 F 
HETATM   30  C   UNL     1     -41.065  61.932 -59.517  1.00  0.00     0.043 A 
HETATM   31  C   UNL     1     -41.309  61.884 -58.141  1.00  0.00     0.017 A 
ENDBRANCH  23  25
ENDBRANCH   2  20
TORSDOF 6
ENDMDL
