MODEL 1
REMARK VINA RESULT:      -9.0      0.000      0.000
REMARK  7 active torsions:
REMARK  status: ('A' for Active; 'I' for Inactive)
REMARK    1  A    between atoms: O_2  and  C_3 
REMARK    2  A    between atoms: C_6  and  C_7 
REMARK       I    between atoms: C_7  and  N_8 
REMARK    3  A    between atoms: N_8  and  C_9 
REMARK    4  A    between atoms: C_9  and  N_10 
REMARK    5  A    between atoms: N_10  and  C_11 
REMARK    6  A    between atoms: C_14  and  N_15 
REMARK       I    between atoms: N_18  and  C_19 
REMARK    7  A    between atoms: C_19  and  C_20 
ROOT
HETATM    1  C   UNL     1     -45.075  59.332 -54.739  1.00  0.00     0.034 C 
HETATM    2  C   UNL     1     -44.504  59.558 -53.489  1.00  0.00     0.032 C 
HETATM    3  C   UNL     1     -43.939  58.499 -52.771  1.00  0.00     0.031 C 
HETATM    4  C   UNL     1     -43.926  57.189 -53.271  1.00  0.00     0.030 C 
HETATM    5  C   UNL     1     -44.673  56.962 -54.439  1.00  0.00     0.031 C 
HETATM    6  C   UNL     1     -45.257  58.018 -55.165  1.00  0.00     0.032 C 
ENDROOT
BRANCH   1   7
HETATM    7  N   UNL     1     -45.354  60.412 -55.626  1.00  0.00    -0.333 N 
HETATM    8  H   UNL     1     -46.320  60.709 -55.619  1.00  0.00     0.168 HD
BRANCH   7   9
HETATM    9  C   UNL     1     -44.784  60.483 -56.883  1.00  0.00     0.179 C 
HETATM   10  S   UNL     1     -45.554  60.512 -58.381  1.00  0.00    -0.040 SA
BRANCH   9  11
HETATM   11  N   UNL     1     -43.406  60.620 -56.970  1.00  0.00    -0.299 N 
HETATM   12  C   UNL     1     -42.240  60.002 -57.403  1.00  0.00     0.257 C 
HETATM   13  O   UNL     1     -41.162  60.568 -57.214  1.00  0.00    -0.267 OA
HETATM   14  H   UNL     1     -43.146  61.541 -56.628  1.00  0.00     0.171 HD
BRANCH  12  15
HETATM   15  C   UNL     1     -42.219  58.747 -58.158  1.00  0.00     0.032 A 
HETATM   16  C   UNL     1     -42.585  57.587 -57.460  1.00  0.00     0.020 A 
HETATM   17  C   UNL     1     -42.918  56.426 -58.156  1.00  0.00     0.038 A 
HETATM   18  C   UNL     1     -42.907  56.434 -59.550  1.00  0.00     0.068 A 
HETATM   19  C   UNL     1     -42.484  57.572 -60.245  1.00  0.00     0.038 A 
HETATM   20  C   UNL     1     -42.167  58.746 -59.552  1.00  0.00     0.020 A 
BRANCH  18  21
HETATM   21  O   UNL     1     -43.304  55.366 -60.307  1.00  0.00    -0.356 OA
HETATM   22  C   UNL     1     -44.426  54.677 -59.748  1.00  0.00     0.210 C 
ENDBRANCH  18  21
ENDBRANCH  12  15
ENDBRANCH   9  11
ENDBRANCH   7   9
ENDBRANCH   1   7
BRANCH   4  23
HETATM   23  N   UNL     1     -43.109  56.200 -52.736  1.00  0.00    -0.378 N 
HETATM   24  C   UNL     1     -43.355  54.773 -53.008  1.00  0.00     0.143 C 
HETATM   25  C   UNL     1     -42.033  53.963 -52.933  1.00  0.00     0.146 C 
HETATM   26  N   UNL     1     -41.217  54.263 -51.743  1.00  0.00    -0.345 N 
HETATM   27  C   UNL     1     -40.328  53.394 -51.115  1.00  0.00     0.253 C 
HETATM   28  C   UNL     1     -41.085  55.686 -51.422  1.00  0.00     0.146 C 
HETATM   29  O   UNL     1     -39.690  53.704 -50.109  1.00  0.00    -0.267 OA
HETATM   30  C   UNL     1     -42.418  56.442 -51.454  1.00  0.00     0.143 C 
BRANCH  27  31
HETATM   31  C   UNL     1     -40.108  52.031 -51.645  1.00  0.00     0.032 A 
HETATM   32  C   UNL     1     -39.867  51.810 -53.005  1.00  0.00     0.017 A 
HETATM   33  C   UNL     1     -39.566  50.523 -53.455  1.00  0.00     0.001 A 
HETATM   34  C   UNL     1     -39.482  49.466 -52.547  1.00  0.00     0.000 A 
HETATM   35  C   UNL     1     -39.691  49.691 -51.186  1.00  0.00     0.001 A 
HETATM   36  C   UNL     1     -39.997  50.975 -50.732  1.00  0.00     0.017 A 
ENDBRANCH  27  31
ENDBRANCH   4  23
TORSDOF 7
ENDMDL
MODEL 2
REMARK VINA RESULT:      -8.9      3.594      5.166
REMARK  7 active torsions:
REMARK  status: ('A' for Active; 'I' for Inactive)
REMARK    1  A    between atoms: O_2  and  C_3 
REMARK    2  A    between atoms: C_6  and  C_7 
REMARK       I    between atoms: C_7  and  N_8 
REMARK    3  A    between atoms: N_8  and  C_9 
REMARK    4  A    between atoms: C_9  and  N_10 
REMARK    5  A    between atoms: N_10  and  C_11 
REMARK    6  A    between atoms: C_14  and  N_15 
REMARK       I    between atoms: N_18  and  C_19 
REMARK    7  A    between atoms: C_19  and  C_20 
ROOT
HETATM    1  C   UNL     1     -45.802  59.615 -51.517  1.00  0.00     0.034 C 
HETATM    2  C   UNL     1     -45.487  58.585 -50.634  1.00  0.00     0.032 C 
HETATM    3  C   UNL     1     -44.777  57.466 -51.082  1.00  0.00     0.031 C 
HETATM    4  C   UNL     1     -44.363  57.338 -52.416  1.00  0.00     0.030 C 
HETATM    5  C   UNL     1     -44.858  58.296 -53.317  1.00  0.00     0.031 C 
HETATM    6  C   UNL     1     -45.584  59.420 -52.879  1.00  0.00     0.032 C 
ENDROOT
BRANCH   1   7
HETATM    7  N   UNL     1     -46.220  60.891 -51.039  1.00  0.00    -0.333 N 
HETATM    8  H   UNL     1     -46.830  60.848 -50.235  1.00  0.00     0.168 HD
BRANCH   7   9
HETATM    9  C   UNL     1     -46.550  61.917 -51.905  1.00  0.00     0.179 C 
HETATM   10  S   UNL     1     -47.984  62.143 -52.759  1.00  0.00    -0.040 SA
BRANCH   9  11
HETATM   11  N   UNL     1     -45.642  62.953 -52.069  1.00  0.00    -0.299 N 
HETATM   12  C   UNL     1     -44.290  63.268 -52.099  1.00  0.00     0.257 C 
HETATM   13  O   UNL     1     -43.958  64.442 -52.270  1.00  0.00    -0.267 OA
HETATM   14  H   UNL     1     -46.152  63.801 -52.298  1.00  0.00     0.171 HD
BRANCH  12  15
HETATM   15  C   UNL     1     -43.222  62.268 -52.031  1.00  0.00     0.032 A 
HETATM   16  C   UNL     1     -42.872  61.808 -50.753  1.00  0.00     0.020 A 
HETATM   17  C   UNL     1     -42.126  60.638 -50.609  1.00  0.00     0.038 A 
HETATM   18  C   UNL     1     -41.750  59.920 -51.743  1.00  0.00     0.068 A 
HETATM   19  C   UNL     1     -42.046  60.411 -53.019  1.00  0.00     0.038 A 
HETATM   20  C   UNL     1     -42.811  61.573 -53.169  1.00  0.00     0.020 A 
BRANCH  18  21
HETATM   21  O   UNL     1     -41.094  58.721 -51.685  1.00  0.00    -0.356 OA
HETATM   22  C   UNL     1     -40.984  58.214 -50.352  1.00  0.00     0.210 C 
ENDBRANCH  18  21
ENDBRANCH  12  15
ENDBRANCH   9  11
ENDBRANCH   7   9
ENDBRANCH   1   7
BRANCH   4  23
HETATM   23  N   UNL     1     -43.405  56.410 -52.808  1.00  0.00    -0.378 N 
HETATM   24  C   UNL     1     -42.844  55.439 -51.853  1.00  0.00     0.143 C 
HETATM   25  C   UNL     1     -42.386  54.149 -52.586  1.00  0.00     0.146 C 
HETATM   26  N   UNL     1     -41.585  54.403 -53.796  1.00  0.00    -0.345 N 
HETATM   27  C   UNL     1     -40.617  53.558 -54.334  1.00  0.00     0.253 C 
HETATM   28  C   UNL     1     -42.098  55.458 -54.672  1.00  0.00     0.146 C 
HETATM   29  O   UNL     1     -39.968  53.842 -55.340  1.00  0.00    -0.267 OA
HETATM   30  C   UNL     1     -42.490  56.735 -53.920  1.00  0.00     0.143 C 
BRANCH  27  31
HETATM   31  C   UNL     1     -40.323  52.253 -53.703  1.00  0.00     0.032 A 
HETATM   32  C   UNL     1     -40.340  51.067 -54.445  1.00  0.00     0.017 A 
HETATM   33  C   UNL     1     -39.962  49.867 -53.840  1.00  0.00     0.001 A 
HETATM   34  C   UNL     1     -39.547  49.855 -52.508  1.00  0.00     0.000 A 
HETATM   35  C   UNL     1     -39.500  51.042 -51.777  1.00  0.00     0.001 A 
HETATM   36  C   UNL     1     -39.881  52.243 -52.375  1.00  0.00     0.017 A 
ENDBRANCH  27  31
ENDBRANCH   4  23
TORSDOF 7
ENDMDL
MODEL 3
REMARK VINA RESULT:      -8.4      5.017      7.970
REMARK  7 active torsions:
REMARK  status: ('A' for Active; 'I' for Inactive)
REMARK    1  A    between atoms: O_2  and  C_3 
REMARK    2  A    between atoms: C_6  and  C_7 
REMARK       I    between atoms: C_7  and  N_8 
REMARK    3  A    between atoms: N_8  and  C_9 
REMARK    4  A    between atoms: C_9  and  N_10 
REMARK    5  A    between atoms: N_10  and  C_11 
REMARK    6  A    between atoms: C_14  and  N_15 
REMARK       I    between atoms: N_18  and  C_19 
REMARK    7  A    between atoms: C_19  and  C_20 
ROOT
HETATM    1  C   UNL     1     -45.648  59.811 -52.167  1.00  0.00     0.034 C 
HETATM    2  C   UNL     1     -45.709  59.034 -51.014  1.00  0.00     0.032 C 
HETATM    3  C   UNL     1     -45.012  57.823 -50.943  1.00  0.00     0.031 C 
HETATM    4  C   UNL     1     -44.239  57.350 -52.013  1.00  0.00     0.030 C 
HETATM    5  C   UNL     1     -44.352  58.057 -53.222  1.00  0.00     0.031 C 
HETATM    6  C   UNL     1     -45.060  59.271 -53.309  1.00  0.00     0.032 C 
ENDROOT
BRANCH   1   7
HETATM    7  N   UNL     1     -46.061  61.175 -52.158  1.00  0.00    -0.333 N 
HETATM    8  H   UNL     1     -46.086  61.602 -53.074  1.00  0.00     0.168 HD
BRANCH   7   9
HETATM    9  C   UNL     1     -45.647  62.051 -51.172  1.00  0.00     0.179 C 
HETATM   10  S   UNL     1     -44.110  62.693 -50.922  1.00  0.00    -0.040 SA
BRANCH   9  11
HETATM   11  N   UNL     1     -46.601  62.547 -50.295  1.00  0.00    -0.299 N 
HETATM   12  C   UNL     1     -46.905  62.730 -48.951  1.00  0.00     0.257 C 
HETATM   13  O   UNL     1     -47.984  63.244 -48.653  1.00  0.00    -0.267 OA
HETATM   14  H   UNL     1     -47.344  62.983 -50.832  1.00  0.00     0.171 HD
BRANCH  12  15
HETATM   15  C   UNL     1     -45.975  62.431 -47.861  1.00  0.00     0.032 A 
HETATM   16  C   UNL     1     -45.800  63.429 -46.891  1.00  0.00     0.020 A 
HETATM   17  C   UNL     1     -45.215  63.120 -45.664  1.00  0.00     0.038 A 
HETATM   18  C   UNL     1     -44.827  61.808 -45.400  1.00  0.00     0.068 A 
HETATM   19  C   UNL     1     -44.946  60.825 -46.388  1.00  0.00     0.038 A 
HETATM   20  C   UNL     1     -45.550  61.125 -47.614  1.00  0.00     0.020 A 
BRANCH  18  21
HETATM   21  O   UNL     1     -44.327  61.405 -44.191  1.00  0.00    -0.356 OA
HETATM   22  C   UNL     1     -43.968  62.503 -43.346  1.00  0.00     0.210 C 
ENDBRANCH  18  21
ENDBRANCH  12  15
ENDBRANCH   9  11
ENDBRANCH   7   9
ENDBRANCH   1   7
BRANCH   4  23
HETATM   23  N   UNL     1     -43.304  56.334 -51.859  1.00  0.00    -0.378 N 
HETATM   24  C   UNL     1     -43.594  54.954 -52.285  1.00  0.00     0.143 C 
HETATM   25  C   UNL     1     -42.287  54.208 -52.667  1.00  0.00     0.146 C 
HETATM   26  N   UNL     1     -41.203  54.366 -51.682  1.00  0.00    -0.345 N 
HETATM   27  C   UNL     1     -40.175  53.458 -51.438  1.00  0.00     0.253 C 
HETATM   28  C   UNL     1     -41.010  55.729 -51.182  1.00  0.00     0.146 C 
HETATM   29  O   UNL     1     -39.309  53.644 -50.583  1.00  0.00    -0.267 OA
HETATM   30  C   UNL     1     -42.316  56.414 -50.765  1.00  0.00     0.143 C 
BRANCH  27  31
HETATM   31  C   UNL     1     -40.080  52.203 -52.215  1.00  0.00     0.032 A 
HETATM   32  C   UNL     1     -40.165  52.204 -53.611  1.00  0.00     0.017 A 
HETATM   33  C   UNL     1     -39.973  51.015 -54.317  1.00  0.00     0.001 A 
HETATM   34  C   UNL     1     -39.673  49.836 -53.634  1.00  0.00     0.000 A 
HETATM   35  C   UNL     1     -39.557  49.840 -52.244  1.00  0.00     0.001 A 
HETATM   36  C   UNL     1     -39.753  51.024 -51.533  1.00  0.00     0.017 A 
ENDBRANCH  27  31
ENDBRANCH   4  23
TORSDOF 7
ENDMDL
MODEL 4
REMARK VINA RESULT:      -8.4      1.891      2.785
REMARK  7 active torsions:
REMARK  status: ('A' for Active; 'I' for Inactive)
REMARK    1  A    between atoms: O_2  and  C_3 
REMARK    2  A    between atoms: C_6  and  C_7 
REMARK       I    between atoms: C_7  and  N_8 
REMARK    3  A    between atoms: N_8  and  C_9 
REMARK    4  A    between atoms: C_9  and  N_10 
REMARK    5  A    between atoms: N_10  and  C_11 
REMARK    6  A    between atoms: C_14  and  N_15 
REMARK       I    between atoms: N_18  and  C_19 
REMARK    7  A    between atoms: C_19  and  C_20 
ROOT
HETATM    1  C   UNL     1     -43.643  62.098 -55.183  1.00  0.00     0.034 C 
HETATM    2  C   UNL     1     -42.968  61.867 -53.988  1.00  0.00     0.032 C 
HETATM    3  C   UNL     1     -42.960  60.589 -53.419  1.00  0.00     0.031 C 
HETATM    4  C   UNL     1     -43.622  59.507 -54.019  1.00  0.00     0.030 C 
HETATM    5  C   UNL     1     -44.447  59.813 -55.114  1.00  0.00     0.031 C 
HETATM    6  C   UNL     1     -44.473  61.098 -55.689  1.00  0.00     0.032 C 
ENDROOT
BRANCH   1   7
HETATM    7  N   UNL     1     -43.403  63.276 -55.949  1.00  0.00    -0.333 N 
HETATM    8  H   UNL     1     -44.012  64.047 -55.717  1.00  0.00     0.168 HD
BRANCH   7   9
HETATM    9  C   UNL     1     -43.109  63.216 -57.298  1.00  0.00     0.179 C 
HETATM   10  S   UNL     1     -44.083  63.652 -58.601  1.00  0.00    -0.040 SA
BRANCH   9  11
HETATM   11  N   UNL     1     -41.834  62.817 -57.674  1.00  0.00    -0.299 N 
HETATM   12  C   UNL     1     -41.096  61.768 -58.207  1.00  0.00     0.257 C 
HETATM   13  O   UNL     1     -39.878  61.904 -58.335  1.00  0.00    -0.267 OA
HETATM   14  H   UNL     1     -41.198  63.600 -57.556  1.00  0.00     0.171 HD
BRANCH  12  15
HETATM   15  C   UNL     1     -41.693  60.532 -58.717  1.00  0.00     0.032 A 
HETATM   16  C   UNL     1     -41.944  60.476 -60.096  1.00  0.00     0.020 A 
HETATM   17  C   UNL     1     -42.187  59.251 -60.716  1.00  0.00     0.038 A 
HETATM   18  C   UNL     1     -42.157  58.081 -59.958  1.00  0.00     0.068 A 
HETATM   19  C   UNL     1     -41.967  58.143 -58.574  1.00  0.00     0.038 A 
HETATM   20  C   UNL     1     -41.703  59.367 -57.950  1.00  0.00     0.020 A 
BRANCH  18  21
HETATM   21  O   UNL     1     -42.298  56.834 -60.504  1.00  0.00    -0.356 OA
HETATM   22  C   UNL     1     -43.091  55.962 -59.694  1.00  0.00     0.210 C 
ENDBRANCH  18  21
ENDBRANCH  12  15
ENDBRANCH   9  11
ENDBRANCH   7   9
ENDBRANCH   1   7
BRANCH   4  23
HETATM   23  N   UNL     1     -43.371  58.190 -53.653  1.00  0.00    -0.378 N 
HETATM   24  C   UNL     1     -42.528  57.312 -54.483  1.00  0.00     0.143 C 
HETATM   25  C   UNL     1     -41.841  56.226 -53.613  1.00  0.00     0.146 C 
HETATM   26  N   UNL     1     -42.752  55.549 -52.674  1.00  0.00    -0.345 N 
HETATM   27  C   UNL     1     -42.616  54.251 -52.187  1.00  0.00     0.253 C 
HETATM   28  C   UNL     1     -43.665  56.433 -51.946  1.00  0.00     0.146 C 
HETATM   29  O   UNL     1     -43.428  53.738 -51.417  1.00  0.00    -0.267 OA
HETATM   30  C   UNL     1     -44.366  57.457 -52.846  1.00  0.00     0.143 C 
BRANCH  27  31
HETATM   31  C   UNL     1     -41.461  53.416 -52.584  1.00  0.00     0.032 A 
HETATM   32  C   UNL     1     -40.521  52.983 -51.643  1.00  0.00     0.017 A 
HETATM   33  C   UNL     1     -39.499  52.116 -52.034  1.00  0.00     0.001 A 
HETATM   34  C   UNL     1     -39.431  51.665 -53.353  1.00  0.00     0.000 A 
HETATM   35  C   UNL     1     -40.387  52.071 -54.284  1.00  0.00     0.001 A 
HETATM   36  C   UNL     1     -41.407  52.942 -53.899  1.00  0.00     0.017 A 
ENDBRANCH  27  31
ENDBRANCH   4  23
TORSDOF 7
ENDMDL
MODEL 5
REMARK VINA RESULT:      -8.4      3.111      8.593
REMARK  7 active torsions:
REMARK  status: ('A' for Active; 'I' for Inactive)
REMARK    1  A    between atoms: O_2  and  C_3 
REMARK    2  A    between atoms: C_6  and  C_7 
REMARK       I    between atoms: C_7  and  N_8 
REMARK    3  A    between atoms: N_8  and  C_9 
REMARK    4  A    between atoms: C_9  and  N_10 
REMARK    5  A    between atoms: N_10  and  C_11 
REMARK    6  A    between atoms: C_14  and  N_15 
REMARK       I    between atoms: N_18  and  C_19 
REMARK    7  A    between atoms: C_19  and  C_20 
ROOT
HETATM    1  C   UNL     1     -42.422  55.549 -51.449  1.00  0.00     0.034 C 
HETATM    2  C   UNL     1     -43.675  55.862 -51.969  1.00  0.00     0.032 C 
HETATM    3  C   UNL     1     -43.847  57.012 -52.747  1.00  0.00     0.031 C 
HETATM    4  C   UNL     1     -42.784  57.882 -53.028  1.00  0.00     0.030 C 
HETATM    5  C   UNL     1     -41.585  57.643 -52.337  1.00  0.00     0.031 C 
HETATM    6  C   UNL     1     -41.403  56.495 -51.541  1.00  0.00     0.032 C 
ENDROOT
BRANCH   1   7
HETATM    7  N   UNL     1     -42.139  54.246 -50.945  1.00  0.00    -0.333 N 
HETATM    8  H   UNL     1     -42.777  53.937 -50.225  1.00  0.00     0.168 HD
BRANCH   7   9
HETATM    9  C   UNL     1     -40.842  53.820 -50.726  1.00  0.00     0.179 C 
HETATM   10  S   UNL     1     -39.836  54.161 -49.420  1.00  0.00    -0.040 SA
BRANCH   9  11
HETATM   11  N   UNL     1     -40.280  52.939 -51.639  1.00  0.00    -0.299 N 
HETATM   12  C   UNL     1     -40.216  52.605 -52.986  1.00  0.00     0.257 C 
HETATM   13  O   UNL     1     -39.535  51.636 -53.325  1.00  0.00    -0.267 OA
HETATM   14  H   UNL     1     -39.634  52.328 -51.149  1.00  0.00     0.171 HD
BRANCH  12  15
HETATM   15  C   UNL     1     -40.840  53.396 -54.049  1.00  0.00     0.032 A 
HETATM   16  C   UNL     1     -42.178  53.102 -54.349  1.00  0.00     0.020 A 
HETATM   17  C   UNL     1     -42.946  54.002 -55.087  1.00  0.00     0.038 A 
HETATM   18  C   UNL     1     -42.380  55.206 -55.505  1.00  0.00     0.068 A 
HETATM   19  C   UNL     1     -41.029  55.472 -55.258  1.00  0.00     0.038 A 
HETATM   20  C   UNL     1     -40.259  54.581 -54.501  1.00  0.00     0.020 A 
BRANCH  18  21
HETATM   21  O   UNL     1     -43.088  56.178 -56.155  1.00  0.00    -0.356 OA
HETATM   22  C   UNL     1     -42.994  56.073 -57.579  1.00  0.00     0.210 C 
ENDBRANCH  18  21
ENDBRANCH  12  15
ENDBRANCH   9  11
ENDBRANCH   7   9
ENDBRANCH   1   7
BRANCH   4  23
HETATM   23  N   UNL     1     -42.855  58.836 -54.036  1.00  0.00    -0.378 N 
HETATM   24  C   UNL     1     -41.670  59.195 -54.836  1.00  0.00     0.143 C 
HETATM   25  C   UNL     1     -42.087  59.685 -56.248  1.00  0.00     0.146 C 
HETATM   26  N   UNL     1     -43.184  60.670 -56.238  1.00  0.00    -0.345 N 
HETATM   27  C   UNL     1     -43.409  61.659 -57.192  1.00  0.00     0.253 C 
HETATM   28  C   UNL     1     -44.299  60.350 -55.344  1.00  0.00     0.146 C 
HETATM   29  O   UNL     1     -44.336  62.465 -57.111  1.00  0.00    -0.267 OA
HETATM   30  C   UNL     1     -43.850  59.922 -53.942  1.00  0.00     0.143 C 
BRANCH  27  31
HETATM   31  C   UNL     1     -42.524  61.785 -58.370  1.00  0.00     0.032 A 
HETATM   32  C   UNL     1     -42.898  61.275 -59.618  1.00  0.00     0.017 A 
HETATM   33  C   UNL     1     -42.082  61.497 -60.729  1.00  0.00     0.001 A 
HETATM   34  C   UNL     1     -40.911  62.245 -60.599  1.00  0.00     0.000 A 
HETATM   35  C   UNL     1     -40.553  62.779 -59.361  1.00  0.00     0.001 A 
HETATM   36  C   UNL     1     -41.362  62.556 -58.247  1.00  0.00     0.017 A 
ENDBRANCH  27  31
ENDBRANCH   4  23
TORSDOF 7
ENDMDL
MODEL 6
REMARK VINA RESULT:      -8.2      2.250      3.318
REMARK  7 active torsions:
REMARK  status: ('A' for Active; 'I' for Inactive)
REMARK    1  A    between atoms: O_2  and  C_3 
REMARK    2  A    between atoms: C_6  and  C_7 
REMARK       I    between atoms: C_7  and  N_8 
REMARK    3  A    between atoms: N_8  and  C_9 
REMARK    4  A    between atoms: C_9  and  N_10 
REMARK    5  A    between atoms: N_10  and  C_11 
REMARK    6  A    between atoms: C_14  and  N_15 
REMARK       I    between atoms: N_18  and  C_19 
REMARK    7  A    between atoms: C_19  and  C_20 
ROOT
HETATM    1  C   UNL     1     -43.520  61.306 -57.611  1.00  0.00     0.034 C 
HETATM    2  C   UNL     1     -42.250  60.949 -57.167  1.00  0.00     0.032 C 
HETATM    3  C   UNL     1     -42.089  59.887 -56.271  1.00  0.00     0.031 C 
HETATM    4  C   UNL     1     -43.182  59.152 -55.791  1.00  0.00     0.030 C 
HETATM    5  C   UNL     1     -44.456  59.654 -56.105  1.00  0.00     0.031 C 
HETATM    6  C   UNL     1     -44.630  60.730 -56.997  1.00  0.00     0.032 C 
ENDROOT
BRANCH   1   7
HETATM    7  N   UNL     1     -43.694  62.143 -58.751  1.00  0.00    -0.333 N 
HETATM    8  H   UNL     1     -44.528  61.942 -59.284  1.00  0.00     0.168 HD
BRANCH   7   9
HETATM    9  C   UNL     1     -42.627  62.511 -59.549  1.00  0.00     0.179 C 
HETATM   10  S   UNL     1     -41.422  63.643 -59.227  1.00  0.00    -0.040 SA
BRANCH   9  11
HETATM   11  N   UNL     1     -42.444  61.839 -60.749  1.00  0.00    -0.299 N 
HETATM   12  C   UNL     1     -42.414  60.583 -61.341  1.00  0.00     0.257 C 
HETATM   13  O   UNL     1     -42.163  60.500 -62.544  1.00  0.00    -0.267 OA
HETATM   14  H   UNL     1     -42.331  62.522 -61.492  1.00  0.00     0.171 HD
BRANCH  12  15
HETATM   15  C   UNL     1     -42.754  59.345 -60.636  1.00  0.00     0.032 A 
HETATM   16  C   UNL     1     -44.117  59.030 -60.540  1.00  0.00     0.020 A 
HETATM   17  C   UNL     1     -44.515  57.738 -60.197  1.00  0.00     0.038 A 
HETATM   18  C   UNL     1     -43.549  56.759 -59.972  1.00  0.00     0.068 A 
HETATM   19  C   UNL     1     -42.190  57.088 -60.009  1.00  0.00     0.038 A 
HETATM   20  C   UNL     1     -41.784  58.377 -60.371  1.00  0.00     0.020 A 
BRANCH  18  21
HETATM   21  O   UNL     1     -43.856  55.450 -59.718  1.00  0.00    -0.356 OA
HETATM   22  C   UNL     1     -44.792  54.908 -60.654  1.00  0.00     0.210 C 
ENDBRANCH  18  21
ENDBRANCH  12  15
ENDBRANCH   9  11
ENDBRANCH   7   9
ENDBRANCH   1   7
BRANCH   4  23
HETATM   23  N   UNL     1     -43.029  57.920 -55.165  1.00  0.00    -0.378 N 
HETATM   24  C   UNL     1     -42.139  56.885 -55.720  1.00  0.00     0.143 C 
HETATM   25  C   UNL     1     -41.597  55.964 -54.594  1.00  0.00     0.146 C 
HETATM   26  N   UNL     1     -42.634  55.493 -53.659  1.00  0.00    -0.345 N 
HETATM   27  C   UNL     1     -42.607  54.305 -52.932  1.00  0.00     0.253 C 
HETATM   28  C   UNL     1     -43.582  56.516 -53.213  1.00  0.00     0.146 C 
HETATM   29  O   UNL     1     -43.520  53.961 -52.181  1.00  0.00    -0.267 OA
HETATM   30  C   UNL     1     -44.136  57.371 -54.359  1.00  0.00     0.143 C 
BRANCH  27  31
HETATM   31  C   UNL     1     -41.452  53.386 -53.035  1.00  0.00     0.032 A 
HETATM   32  C   UNL     1     -40.598  53.168 -51.949  1.00  0.00     0.017 A 
HETATM   33  C   UNL     1     -39.578  52.221 -52.050  1.00  0.00     0.001 A 
HETATM   34  C   UNL     1     -39.426  51.478 -53.221  1.00  0.00     0.000 A 
HETATM   35  C   UNL     1     -40.298  51.672 -54.293  1.00  0.00     0.001 A 
HETATM   36  C   UNL     1     -41.316  52.621 -54.199  1.00  0.00     0.017 A 
ENDBRANCH  27  31
ENDBRANCH   4  23
TORSDOF 7
ENDMDL
MODEL 7
REMARK VINA RESULT:      -8.0      2.603      3.984
REMARK  7 active torsions:
REMARK  status: ('A' for Active; 'I' for Inactive)
REMARK    1  A    between atoms: O_2  and  C_3 
REMARK    2  A    between atoms: C_6  and  C_7 
REMARK       I    between atoms: C_7  and  N_8 
REMARK    3  A    between atoms: N_8  and  C_9 
REMARK    4  A    between atoms: C_9  and  N_10 
REMARK    5  A    between atoms: N_10  and  C_11 
REMARK    6  A    between atoms: C_14  and  N_15 
REMARK       I    between atoms: N_18  and  C_19 
REMARK    7  A    between atoms: C_19  and  C_20 
ROOT
HETATM    1  C   UNL     1     -45.756  59.473 -52.192  1.00  0.00     0.034 C 
HETATM    2  C   UNL     1     -45.675  58.802 -50.976  1.00  0.00     0.032 C 
HETATM    3  C   UNL     1     -44.942  57.615 -50.874  1.00  0.00     0.031 C 
HETATM    4  C   UNL     1     -44.272  57.061 -51.974  1.00  0.00     0.030 C 
HETATM    5  C   UNL     1     -44.529  57.655 -53.222  1.00  0.00     0.031 C 
HETATM    6  C   UNL     1     -45.275  58.844 -53.338  1.00  0.00     0.032 C 
ENDROOT
BRANCH   1   7
HETATM    7  N   UNL     1     -46.202  60.826 -52.259  1.00  0.00    -0.333 N 
HETATM    8  H   UNL     1     -46.607  61.081 -53.149  1.00  0.00     0.168 HD
BRANCH   7   9
HETATM    9  C   UNL     1     -45.480  61.856 -51.686  1.00  0.00     0.179 C 
HETATM   10  S   UNL     1     -45.912  63.477 -51.535  1.00  0.00    -0.040 SA
BRANCH   9  11
HETATM   11  N   UNL     1     -44.269  61.550 -51.082  1.00  0.00    -0.299 N 
HETATM   12  C   UNL     1     -42.979  61.092 -51.319  1.00  0.00     0.257 C 
HETATM   13  O   UNL     1     -42.214  60.955 -50.363  1.00  0.00    -0.267 OA
HETATM   14  H   UNL     1     -44.325  61.791 -50.097  1.00  0.00     0.171 HD
BRANCH  12  15
HETATM   15  C   UNL     1     -42.438  60.846 -52.657  1.00  0.00     0.032 A 
HETATM   16  C   UNL     1     -41.660  59.691 -52.818  1.00  0.00     0.020 A 
HETATM   17  C   UNL     1     -41.390  59.199 -54.095  1.00  0.00     0.038 A 
HETATM   18  C   UNL     1     -41.919  59.852 -55.208  1.00  0.00     0.068 A 
HETATM   19  C   UNL     1     -42.645  61.038 -55.050  1.00  0.00     0.038 A 
HETATM   20  C   UNL     1     -42.934  61.524 -53.771  1.00  0.00     0.020 A 
BRANCH  18  21
HETATM   21  O   UNL     1     -41.775  59.386 -56.486  1.00  0.00    -0.356 OA
HETATM   22  C   UNL     1     -42.503  58.177 -56.720  1.00  0.00     0.210 C 
ENDBRANCH  18  21
ENDBRANCH  12  15
ENDBRANCH   9  11
ENDBRANCH   7   9
ENDBRANCH   1   7
BRANCH   4  23
HETATM   23  N   UNL     1     -43.299  56.080 -51.832  1.00  0.00    -0.378 N 
HETATM   24  C   UNL     1     -43.511  54.711 -52.335  1.00  0.00     0.143 C 
HETATM   25  C   UNL     1     -42.158  54.043 -52.699  1.00  0.00     0.146 C 
HETATM   26  N   UNL     1     -41.120  54.198 -51.665  1.00  0.00    -0.345 N 
HETATM   27  C   UNL     1     -40.063  53.323 -51.424  1.00  0.00     0.253 C 
HETATM   28  C   UNL     1     -41.007  55.541 -51.093  1.00  0.00     0.146 C 
HETATM   29  O   UNL     1     -39.238  53.504 -50.528  1.00  0.00    -0.267 OA
HETATM   30  C   UNL     1     -42.358  56.148 -50.696  1.00  0.00     0.143 C 
BRANCH  27  31
HETATM   31  C   UNL     1     -39.882  52.113 -52.256  1.00  0.00     0.032 A 
HETATM   32  C   UNL     1     -39.646  50.862 -51.677  1.00  0.00     0.017 A 
HETATM   33  C   UNL     1     -39.578  49.727 -52.487  1.00  0.00     0.001 A 
HETATM   34  C   UNL     1     -39.769  49.838 -53.865  1.00  0.00     0.000 A 
HETATM   35  C   UNL     1     -40.035  51.081 -54.439  1.00  0.00     0.001 A 
HETATM   36  C   UNL     1     -40.099  52.219 -53.635  1.00  0.00     0.017 A 
ENDBRANCH  27  31
ENDBRANCH   4  23
TORSDOF 7
ENDMDL
MODEL 8
REMARK VINA RESULT:      -7.9      1.898      2.439
REMARK  7 active torsions:
REMARK  status: ('A' for Active; 'I' for Inactive)
REMARK    1  A    between atoms: O_2  and  C_3 
REMARK    2  A    between atoms: C_6  and  C_7 
REMARK       I    between atoms: C_7  and  N_8 
REMARK    3  A    between atoms: N_8  and  C_9 
REMARK    4  A    between atoms: C_9  and  N_10 
REMARK    5  A    between atoms: N_10  and  C_11 
REMARK    6  A    between atoms: C_14  and  N_15 
REMARK       I    between atoms: N_18  and  C_19 
REMARK    7  A    between atoms: C_19  and  C_20 
ROOT
HETATM    1  C   UNL     1     -44.693  59.107 -56.413  1.00  0.00     0.034 C 
HETATM    2  C   UNL     1     -45.421  58.255 -55.587  1.00  0.00     0.032 C 
HETATM    3  C   UNL     1     -44.802  57.147 -54.997  1.00  0.00     0.031 C 
HETATM    4  C   UNL     1     -43.447  56.855 -55.212  1.00  0.00     0.030 C 
HETATM    5  C   UNL     1     -42.794  57.618 -56.195  1.00  0.00     0.031 C 
HETATM    6  C   UNL     1     -43.411  58.728 -56.804  1.00  0.00     0.032 C 
ENDROOT
BRANCH   1   7
HETATM    7  N   UNL     1     -45.188  60.399 -56.756  1.00  0.00    -0.333 N 
HETATM    8  H   UNL     1     -46.195  60.448 -56.824  1.00  0.00     0.168 HD
BRANCH   7   9
HETATM    9  C   UNL     1     -44.551  61.195 -57.690  1.00  0.00     0.179 C 
HETATM   10  S   UNL     1     -43.158  62.122 -57.497  1.00  0.00    -0.040 SA
BRANCH   9  11
HETATM   11  N   UNL     1     -45.046  61.208 -58.986  1.00  0.00    -0.299 N 
HETATM   12  C   UNL     1     -45.254  60.430 -60.118  1.00  0.00     0.257 C 
HETATM   13  O   UNL     1     -45.750  60.956 -61.116  1.00  0.00    -0.267 OA
HETATM   14  H   UNL     1     -45.452  62.120 -59.171  1.00  0.00     0.171 HD
BRANCH  12  15
HETATM   15  C   UNL     1     -45.002  58.989 -60.170  1.00  0.00     0.032 A 
HETATM   16  C   UNL     1     -43.690  58.589 -60.465  1.00  0.00     0.020 A 
HETATM   17  C   UNL     1     -43.281  57.282 -60.208  1.00  0.00     0.038 A 
HETATM   18  C   UNL     1     -44.178  56.381 -59.635  1.00  0.00     0.068 A 
HETATM   19  C   UNL     1     -45.502  56.762 -59.396  1.00  0.00     0.038 A 
HETATM   20  C   UNL     1     -45.913  58.078 -59.634  1.00  0.00     0.020 A 
BRANCH  18  21
HETATM   21  O   UNL     1     -43.830  55.109 -59.272  1.00  0.00    -0.356 OA
HETATM   22  C   UNL     1     -44.724  54.120 -59.792  1.00  0.00     0.210 C 
ENDBRANCH  18  21
ENDBRANCH  12  15
ENDBRANCH   9  11
ENDBRANCH   7   9
ENDBRANCH   1   7
BRANCH   4  23
HETATM   23  N   UNL     1     -42.745  55.967 -54.407  1.00  0.00    -0.378 N 
HETATM   24  C   UNL     1     -42.894  54.509 -54.562  1.00  0.00     0.143 C 
HETATM   25  C   UNL     1     -41.603  53.773 -54.114  1.00  0.00     0.146 C 
HETATM   26  N   UNL     1     -41.072  54.235 -52.820  1.00  0.00    -0.345 N 
HETATM   27  C   UNL     1     -40.321  53.479 -51.922  1.00  0.00     0.253 C 
HETATM   28  C   UNL     1     -41.044  55.688 -52.641  1.00  0.00     0.146 C 
HETATM   29  O   UNL     1     -39.924  53.923 -50.844  1.00  0.00    -0.267 OA
HETATM   30  C   UNL     1     -42.355  56.375 -53.043  1.00  0.00     0.143 C 
BRANCH  27  31
HETATM   31  C   UNL     1     -39.960  52.079 -52.235  1.00  0.00     0.032 A 
HETATM   32  C   UNL     1     -39.862  51.112 -51.229  1.00  0.00     0.017 A 
HETATM   33  C   UNL     1     -39.616  49.781 -51.570  1.00  0.00     0.001 A 
HETATM   34  C   UNL     1     -39.493  49.413 -52.911  1.00  0.00     0.000 A 
HETATM   35  C   UNL     1     -39.623  50.372 -53.916  1.00  0.00     0.001 A 
HETATM   36  C   UNL     1     -39.863  51.705 -53.580  1.00  0.00     0.017 A 
ENDBRANCH  27  31
ENDBRANCH   4  23
TORSDOF 7
ENDMDL
MODEL 9
REMARK VINA RESULT:      -7.8      2.652      4.679
REMARK  7 active torsions:
REMARK  status: ('A' for Active; 'I' for Inactive)
REMARK    1  A    between atoms: O_2  and  C_3 
REMARK    2  A    between atoms: C_6  and  C_7 
REMARK       I    between atoms: C_7  and  N_8 
REMARK    3  A    between atoms: N_8  and  C_9 
REMARK    4  A    between atoms: C_9  and  N_10 
REMARK    5  A    between atoms: N_10  and  C_11 
REMARK    6  A    between atoms: C_14  and  N_15 
REMARK       I    between atoms: N_18  and  C_19 
REMARK    7  A    between atoms: C_19  and  C_20 
ROOT
HETATM    1  C   UNL     1     -43.627  58.532 -59.458  1.00  0.00     0.034 C 
HETATM    2  C   UNL     1     -44.685  58.794 -58.592  1.00  0.00     0.032 C 
HETATM    3  C   UNL     1     -44.762  58.145 -57.356  1.00  0.00     0.031 C 
HETATM    4  C   UNL     1     -43.793  57.217 -56.946  1.00  0.00     0.030 C 
HETATM    5  C   UNL     1     -42.848  56.835 -57.913  1.00  0.00     0.031 C 
HETATM    6  C   UNL     1     -42.769  57.474 -59.166  1.00  0.00     0.032 C 
ENDROOT
BRANCH   1   7
HETATM    7  N   UNL     1     -43.341  59.398 -60.554  1.00  0.00    -0.333 N 
HETATM    8  H   UNL     1     -42.749  58.983 -61.260  1.00  0.00     0.168 HD
BRANCH   7   9
HETATM    9  C   UNL     1     -43.085  60.743 -60.367  1.00  0.00     0.179 C 
HETATM   10  S   UNL     1     -44.016  62.061 -60.850  1.00  0.00    -0.040 SA
BRANCH   9  11
HETATM   11  N   UNL     1     -41.964  61.101 -59.631  1.00  0.00    -0.299 N 
HETATM   12  C   UNL     1     -41.486  61.320 -58.345  1.00  0.00     0.257 C 
HETATM   13  O   UNL     1     -40.317  61.681 -58.200  1.00  0.00    -0.267 OA
HETATM   14  H   UNL     1     -41.176  61.201 -60.264  1.00  0.00     0.171 HD
BRANCH  12  15
HETATM   15  C   UNL     1     -42.267  61.059 -57.134  1.00  0.00     0.032 A 
HETATM   16  C   UNL     1     -41.757  60.095 -56.253  1.00  0.00     0.020 A 
HETATM   17  C   UNL     1     -42.232  60.021 -54.944  1.00  0.00     0.038 A 
HETATM   18  C   UNL     1     -43.201  60.926 -54.512  1.00  0.00     0.068 A 
HETATM   19  C   UNL     1     -43.752  61.848 -55.408  1.00  0.00     0.038 A 
HETATM   20  C   UNL     1     -43.265  61.940 -56.717  1.00  0.00     0.020 A 
BRANCH  18  21
HETATM   21  O   UNL     1     -43.655  60.977 -53.223  1.00  0.00    -0.356 OA
HETATM   22  C   UNL     1     -42.664  60.581 -52.270  1.00  0.00     0.210 C 
ENDBRANCH  18  21
ENDBRANCH  12  15
ENDBRANCH   9  11
ENDBRANCH   7   9
ENDBRANCH   1   7
BRANCH   4  23
HETATM   23  N   UNL     1     -43.674  56.806 -55.624  1.00  0.00    -0.378 N 
HETATM   24  C   UNL     1     -42.883  55.617 -55.259  1.00  0.00     0.143 C 
HETATM   25  C   UNL     1     -42.329  55.747 -53.815  1.00  0.00     0.146 C 
HETATM   26  N   UNL     1     -43.332  56.184 -52.828  1.00  0.00    -0.345 N 
HETATM   27  C   UNL     1     -43.331  55.886 -51.468  1.00  0.00     0.253 C 
HETATM   28  C   UNL     1     -44.188  57.291 -53.260  1.00  0.00     0.146 C 
HETATM   29  O   UNL     1     -44.214  56.268 -50.700  1.00  0.00    -0.267 OA
HETATM   30  C   UNL     1     -44.760  57.103 -54.669  1.00  0.00     0.143 C 
BRANCH  27  31
HETATM   31  C   UNL     1     -42.241  55.080 -50.874  1.00  0.00     0.032 A 
HETATM   32  C   UNL     1     -42.069  53.733 -51.209  1.00  0.00     0.017 A 
HETATM   33  C   UNL     1     -40.972  53.030 -50.707  1.00  0.00     0.001 A 
HETATM   34  C   UNL     1     -40.040  53.675 -49.894  1.00  0.00     0.000 A 
HETATM   35  C   UNL     1     -40.194  55.027 -49.585  1.00  0.00     0.001 A 
HETATM   36  C   UNL     1     -41.291  55.733 -50.080  1.00  0.00     0.017 A 
ENDBRANCH  27  31
ENDBRANCH   4  23
TORSDOF 7
ENDMDL
MODEL 10
REMARK VINA RESULT:      -7.6      2.957      9.617
REMARK  7 active torsions:
REMARK  status: ('A' for Active; 'I' for Inactive)
REMARK    1  A    between atoms: O_2  and  C_3 
REMARK    2  A    between atoms: C_6  and  C_7 
REMARK       I    between atoms: C_7  and  N_8 
REMARK    3  A    between atoms: N_8  and  C_9 
REMARK    4  A    between atoms: C_9  and  N_10 
REMARK    5  A    between atoms: N_10  and  C_11 
REMARK    6  A    between atoms: C_14  and  N_15 
REMARK       I    between atoms: N_18  and  C_19 
REMARK    7  A    between atoms: C_19  and  C_20 
ROOT
HETATM    1  C   UNL     1     -43.080  54.620 -53.746  1.00  0.00     0.034 C 
HETATM    2  C   UNL     1     -42.282  54.583 -54.886  1.00  0.00     0.032 C 
HETATM    3  C   UNL     1     -42.374  55.598 -55.844  1.00  0.00     0.031 C 
HETATM    4  C   UNL     1     -43.261  56.675 -55.698  1.00  0.00     0.030 C 
HETATM    5  C   UNL     1     -44.181  56.584 -54.640  1.00  0.00     0.031 C 
HETATM    6  C   UNL     1     -44.105  55.561 -53.676  1.00  0.00     0.032 C 
ENDROOT
BRANCH   1   7
HETATM    7  N   UNL     1     -42.785  53.805 -52.614  1.00  0.00    -0.333 N 
HETATM    8  H   UNL     1     -43.149  52.864 -52.681  1.00  0.00     0.168 HD
BRANCH   7   9
HETATM    9  C   UNL     1     -42.836  54.306 -51.327  1.00  0.00     0.179 C 
HETATM   10  S   UNL     1     -44.193  54.678 -50.403  1.00  0.00    -0.040 SA
BRANCH   9  11
HETATM   11  N   UNL     1     -41.641  54.474 -50.643  1.00  0.00    -0.299 N 
HETATM   12  C   UNL     1     -40.386  53.921 -50.419  1.00  0.00     0.257 C 
HETATM   13  O   UNL     1     -39.621  54.484 -49.634  1.00  0.00    -0.267 OA
HETATM   14  H   UNL     1     -41.670  55.359 -50.146  1.00  0.00     0.171 HD
BRANCH  12  15
HETATM   15  C   UNL     1     -39.876  52.749 -51.133  1.00  0.00     0.032 A 
HETATM   16  C   UNL     1     -40.003  51.512 -50.484  1.00  0.00     0.020 A 
HETATM   17  C   UNL     1     -39.864  50.326 -51.203  1.00  0.00     0.038 A 
HETATM   18  C   UNL     1     -39.621  50.378 -52.575  1.00  0.00     0.068 A 
HETATM   19  C   UNL     1     -39.436  51.610 -53.211  1.00  0.00     0.038 A 
HETATM   20  C   UNL     1     -39.593  52.804 -52.498  1.00  0.00     0.020 A 
BRANCH  18  21
HETATM   21  O   UNL     1     -39.560  49.264 -53.366  1.00  0.00    -0.356 OA
HETATM   22  C   UNL     1     -39.690  49.565 -54.758  1.00  0.00     0.210 C 
ENDBRANCH  18  21
ENDBRANCH  12  15
ENDBRANCH   9  11
ENDBRANCH   7   9
ENDBRANCH   1   7
BRANCH   4  23
HETATM   23  N   UNL     1     -43.150  57.834 -56.457  1.00  0.00    -0.378 N 
HETATM   24  C   UNL     1     -41.871  58.557 -56.569  1.00  0.00     0.143 C 
HETATM   25  C   UNL     1     -41.789  59.325 -57.915  1.00  0.00     0.146 C 
HETATM   26  N   UNL     1     -43.000  60.101 -58.234  1.00  0.00    -0.345 N 
HETATM   27  C   UNL     1     -43.057  61.257 -59.009  1.00  0.00     0.253 C 
HETATM   28  C   UNL     1     -44.266  59.402 -58.002  1.00  0.00     0.146 C 
HETATM   29  O   UNL     1     -44.103  61.869 -59.220  1.00  0.00    -0.267 OA
HETATM   30  C   UNL     1     -44.332  58.700 -56.640  1.00  0.00     0.143 C 
BRANCH  27  31
HETATM   31  C   UNL     1     -41.831  61.809 -59.626  1.00  0.00     0.032 A 
HETATM   32  C   UNL     1     -41.624  61.752 -61.008  1.00  0.00     0.017 A 
HETATM   33  C   UNL     1     -40.504  62.370 -61.567  1.00  0.00     0.001 A 
HETATM   34  C   UNL     1     -39.606  63.061 -60.751  1.00  0.00     0.000 A 
HETATM   35  C   UNL     1     -39.828  63.145 -59.377  1.00  0.00     0.001 A 
HETATM   36  C   UNL     1     -40.944  62.525 -58.813  1.00  0.00     0.017 A 
ENDBRANCH  27  31
ENDBRANCH   4  23
TORSDOF 7
ENDMDL
