MODEL 1
REMARK VINA RESULT:      -8.6      0.000      0.000
REMARK  1 active torsions:
REMARK  status: ('A' for Active; 'I' for Inactive)
REMARK    1  A    between atoms: C_5  and  N_6 
ROOT
HETATM    1  N   UNL     1     -42.344  55.656 -51.308  1.00  0.00    -0.320 N 
HETATM    2  C   UNL     1     -43.738  55.684 -50.962  1.00  0.00     0.141 C 
HETATM    3  N   UNL     1     -44.413  54.631 -50.595  1.00  0.00    -0.380 N 
HETATM    4  H   UNL     1     -43.954  53.731 -50.547  1.00  0.00     0.158 HD
HETATM    5  H   UNL     1     -45.389  54.723 -50.353  1.00  0.00     0.158 HD
HETATM    6  S   UNL     1     -44.423  57.272 -51.048  1.00  0.00    -0.086 SA
HETATM    7  C   UNL     1     -42.936  57.882 -51.901  1.00  0.00     0.093 C 
HETATM    8  C   UNL     1     -41.801  57.022 -51.303  1.00  0.00     0.121 C 
HETATM    9  C   UNL     1     -42.457  59.306 -51.772  1.00  0.00     0.158 C 
HETATM   10  S   UNL     1     -40.730  59.149 -52.279  1.00  0.00     0.147 S 
HETATM   11  O   UNL     1     -40.620  59.532 -53.668  1.00  0.00    -0.228 OA
HETATM   12  O   UNL     1     -39.902  59.719 -51.240  1.00  0.00    -0.228 OA
HETATM   13  C   UNL     1     -40.610  57.353 -52.173  1.00  0.00     0.167 C 
ENDROOT
BRANCH   1  14
HETATM   14  C   UNL     1     -41.473  54.566 -51.109  1.00  0.00     0.048 A 
HETATM   15  C   UNL     1     -41.063  53.753 -52.209  1.00  0.00     0.001 A 
HETATM   16  C   UNL     1     -40.260  52.610 -51.962  1.00  0.00    -0.024 A 
HETATM   17  C   UNL     1     -41.396  54.035 -53.555  1.00  0.00     0.014 A 
HETATM   18  C   UNL     1     -39.865  51.783 -53.026  1.00  0.00     0.012 A 
HETATM   19  C   UNL     1     -39.857  52.310 -50.655  1.00  0.00     0.012 A 
HETATM   20  C   UNL     1     -40.235  52.074 -54.337  1.00  0.00     0.001 A 
HETATM   21  C   UNL     1     -40.994  53.205 -54.604  1.00  0.00     0.001 A 
HETATM   22  C   UNL     1     -40.235  53.119 -49.590  1.00  0.00     0.003 A 
HETATM   23  C   UNL     1     -41.038  54.234 -49.814  1.00  0.00     0.030 A 
ENDBRANCH   1  14
TORSDOF 1
ENDMDL
MODEL 2
REMARK VINA RESULT:      -8.0      1.248      1.391
REMARK  1 active torsions:
REMARK  status: ('A' for Active; 'I' for Inactive)
REMARK    1  A    between atoms: C_5  and  N_6 
ROOT
HETATM    1  N   UNL     1     -42.562  55.959 -51.966  1.00  0.00    -0.320 N 
HETATM    2  C   UNL     1     -43.878  55.976 -51.390  1.00  0.00     0.141 C 
HETATM    3  N   UNL     1     -44.307  55.085 -50.541  1.00  0.00    -0.380 N 
HETATM    4  H   UNL     1     -43.701  54.327 -50.259  1.00  0.00     0.158 HD
HETATM    5  H   UNL     1     -45.241  55.164 -50.164  1.00  0.00     0.158 HD
HETATM    6  S   UNL     1     -44.826  57.328 -51.913  1.00  0.00    -0.086 SA
HETATM    7  C   UNL     1     -43.597  57.708 -53.201  1.00  0.00     0.093 C 
HETATM    8  C   UNL     1     -42.261  57.267 -52.564  1.00  0.00     0.121 C 
HETATM    9  C   UNL     1     -43.352  59.111 -53.695  1.00  0.00     0.158 C 
HETATM   10  S   UNL     1     -41.712  58.946 -54.435  1.00  0.00     0.147 S 
HETATM   11  O   UNL     1     -41.864  58.770 -55.862  1.00  0.00    -0.228 OA
HETATM   12  O   UNL     1     -40.853  59.956 -53.858  1.00  0.00    -0.228 OA
HETATM   13  C   UNL     1     -41.277  57.355 -53.709  1.00  0.00     0.167 C 
ENDROOT
BRANCH   1  14
HETATM   14  C   UNL     1     -41.500  55.126 -51.557  1.00  0.00     0.048 A 
HETATM   15  C   UNL     1     -41.086  54.025 -52.367  1.00  0.00     0.001 A 
HETATM   16  C   UNL     1     -40.078  53.153 -51.884  1.00  0.00    -0.024 A 
HETATM   17  C   UNL     1     -41.616  53.759 -53.652  1.00  0.00     0.014 A 
HETATM   18  C   UNL     1     -39.672  52.050 -52.654  1.00  0.00     0.012 A 
HETATM   19  C   UNL     1     -39.481  53.396 -50.641  1.00  0.00     0.012 A 
HETATM   20  C   UNL     1     -40.235  51.801 -53.904  1.00  0.00     0.001 A 
HETATM   21  C   UNL     1     -41.201  52.660 -54.407  1.00  0.00     0.001 A 
HETATM   22  C   UNL     1     -39.867  54.485 -49.867  1.00  0.00     0.003 A 
HETATM   23  C   UNL     1     -40.869  55.339 -50.319  1.00  0.00     0.030 A 
ENDBRANCH   1  14
TORSDOF 1
ENDMDL
MODEL 3
REMARK VINA RESULT:      -7.9      0.944      2.464
REMARK  1 active torsions:
REMARK  status: ('A' for Active; 'I' for Inactive)
REMARK    1  A    between atoms: C_5  and  N_6 
ROOT
HETATM    1  N   UNL     1     -42.331  55.400 -52.698  1.00  0.00    -0.320 N 
HETATM    2  C   UNL     1     -43.484  55.250 -51.853  1.00  0.00     0.141 C 
HETATM    3  N   UNL     1     -44.104  54.119 -51.669  1.00  0.00    -0.380 N 
HETATM    4  H   UNL     1     -43.778  53.285 -52.140  1.00  0.00     0.158 HD
HETATM    5  H   UNL     1     -44.902  54.082 -51.051  1.00  0.00     0.158 HD
HETATM    6  S   UNL     1     -43.943  56.726 -51.072  1.00  0.00    -0.086 SA
HETATM    7  C   UNL     1     -42.810  57.663 -52.145  1.00  0.00     0.093 C 
HETATM    8  C   UNL     1     -41.655  56.670 -52.400  1.00  0.00     0.121 C 
HETATM    9  C   UNL     1     -42.140  58.936 -51.696  1.00  0.00     0.158 C 
HETATM   10  S   UNL     1     -40.757  59.038 -52.854  1.00  0.00     0.147 S 
HETATM   11  O   UNL     1     -41.119  59.936 -53.928  1.00  0.00    -0.228 OA
HETATM   12  O   UNL     1     -39.538  59.182 -52.089  1.00  0.00    -0.228 OA
HETATM   13  C   UNL     1     -40.836  57.348 -53.476  1.00  0.00     0.167 C 
ENDROOT
BRANCH   1  14
HETATM   14  C   UNL     1     -41.595  54.343 -53.272  1.00  0.00     0.048 A 
HETATM   15  C   UNL     1     -40.955  53.370 -52.445  1.00  0.00     0.001 A 
HETATM   16  C   UNL     1     -40.145  52.375 -53.049  1.00  0.00    -0.024 A 
HETATM   17  C   UNL     1     -41.098  53.326 -51.037  1.00  0.00     0.014 A 
HETATM   18  C   UNL     1     -39.488  51.422 -52.254  1.00  0.00     0.012 A 
HETATM   19  C   UNL     1     -40.009  52.338 -54.442  1.00  0.00     0.012 A 
HETATM   20  C   UNL     1     -39.628  51.425 -50.867  1.00  0.00     0.001 A 
HETATM   21  C   UNL     1     -40.440  52.372 -50.259  1.00  0.00     0.001 A 
HETATM   22  C   UNL     1     -40.655  53.269 -55.246  1.00  0.00     0.003 A 
HETATM   23  C   UNL     1     -41.438  54.265 -54.666  1.00  0.00     0.030 A 
ENDBRANCH   1  14
TORSDOF 1
ENDMDL
MODEL 4
REMARK VINA RESULT:      -7.2      1.825      1.937
REMARK  1 active torsions:
REMARK  status: ('A' for Active; 'I' for Inactive)
REMARK    1  A    between atoms: C_5  and  N_6 
ROOT
HETATM    1  N   UNL     1     -42.850  55.836 -53.182  1.00  0.00    -0.320 N 
HETATM    2  C   UNL     1     -44.018  55.508 -53.952  1.00  0.00     0.141 C 
HETATM    3  N   UNL     1     -44.484  54.297 -54.078  1.00  0.00    -0.380 N 
HETATM    4  H   UNL     1     -44.013  53.527 -53.622  1.00  0.00     0.158 HD
HETATM    5  H   UNL     1     -45.319  54.138 -54.624  1.00  0.00     0.158 HD
HETATM    6  S   UNL     1     -44.768  56.896 -54.665  1.00  0.00    -0.086 SA
HETATM    7  C   UNL     1     -43.319  57.913 -54.242  1.00  0.00     0.093 C 
HETATM    8  C   UNL     1     -42.810  57.283 -52.927  1.00  0.00     0.121 C 
HETATM    9  C   UNL     1     -43.423  59.389 -53.954  1.00  0.00     0.158 C 
HETATM   10  S   UNL     1     -41.892  59.684 -53.043  1.00  0.00     0.147 S 
HETATM   11  O   UNL     1     -40.906  60.217 -53.956  1.00  0.00    -0.228 OA
HETATM   12  O   UNL     1     -42.228  60.326 -51.791  1.00  0.00    -0.228 OA
HETATM   13  C   UNL     1     -41.479  57.963 -52.700  1.00  0.00     0.167 C 
ENDROOT
BRANCH   1  14
HETATM   14  C   UNL     1     -42.174  54.961 -52.307  1.00  0.00     0.048 A 
HETATM   15  C   UNL     1     -41.304  53.951 -52.818  1.00  0.00     0.001 A 
HETATM   16  C   UNL     1     -40.712  53.029 -51.917  1.00  0.00    -0.024 A 
HETATM   17  C   UNL     1     -40.975  53.824 -54.188  1.00  0.00     0.014 A 
HETATM   18  C   UNL     1     -39.871  52.013 -52.400  1.00  0.00     0.012 A 
HETATM   19  C   UNL     1     -40.961  53.138 -50.543  1.00  0.00     0.012 A 
HETATM   20  C   UNL     1     -39.591  51.899 -53.760  1.00  0.00     0.001 A 
HETATM   21  C   UNL     1     -40.136  52.810 -54.654  1.00  0.00     0.001 A 
HETATM   22  C   UNL     1     -41.786  54.140 -50.046  1.00  0.00     0.003 A 
HETATM   23  C   UNL     1     -42.390  55.041 -50.921  1.00  0.00     0.030 A 
ENDBRANCH   1  14
TORSDOF 1
ENDMDL
MODEL 5
REMARK VINA RESULT:      -7.1      2.537      4.210
REMARK  1 active torsions:
REMARK  status: ('A' for Active; 'I' for Inactive)
REMARK    1  A    between atoms: C_5  and  N_6 
ROOT
HETATM    1  N   UNL     1     -41.659  57.982 -51.354  1.00  0.00    -0.320 N 
HETATM    2  C   UNL     1     -40.682  58.967 -50.982  1.00  0.00     0.141 C 
HETATM    3  N   UNL     1     -39.400  58.734 -50.938  1.00  0.00    -0.380 N 
HETATM    4  H   UNL     1     -39.049  57.814 -51.171  1.00  0.00     0.158 HD
HETATM    5  H   UNL     1     -38.766  59.476 -50.680  1.00  0.00     0.158 HD
HETATM    6  S   UNL     1     -41.381  60.512 -50.633  1.00  0.00    -0.086 SA
HETATM    7  C   UNL     1     -43.044  59.774 -50.630  1.00  0.00     0.093 C 
HETATM    8  C   UNL     1     -42.935  58.639 -51.671  1.00  0.00     0.121 C 
HETATM    9  C   UNL     1     -44.274  60.551 -51.026  1.00  0.00     0.158 C 
HETATM   10  S   UNL     1     -45.429  59.218 -51.413  1.00  0.00     0.147 S 
HETATM   11  O   UNL     1     -46.281  58.995 -50.266  1.00  0.00    -0.228 OA
HETATM   12  O   UNL     1     -45.950  59.444 -52.743  1.00  0.00    -0.228 OA
HETATM   13  C   UNL     1     -44.229  57.875 -51.499  1.00  0.00     0.167 C 
ENDROOT
BRANCH   1  14
HETATM   14  C   UNL     1     -41.376  56.718 -51.911  1.00  0.00     0.048 A 
HETATM   15  C   UNL     1     -41.130  55.591 -51.069  1.00  0.00     0.001 A 
HETATM   16  C   UNL     1     -40.758  54.356 -51.659  1.00  0.00    -0.024 A 
HETATM   17  C   UNL     1     -41.257  55.627 -49.660  1.00  0.00     0.014 A 
HETATM   18  C   UNL     1     -40.489  53.241 -50.849  1.00  0.00     0.012 A 
HETATM   19  C   UNL     1     -40.667  54.248 -53.052  1.00  0.00     0.012 A 
HETATM   20  C   UNL     1     -40.596  53.319 -49.462  1.00  0.00     0.001 A 
HETATM   21  C   UNL     1     -40.988  54.510 -48.867  1.00  0.00     0.001 A 
HETATM   22  C   UNL     1     -40.934  55.339 -53.870  1.00  0.00     0.003 A 
HETATM   23  C   UNL     1     -41.281  56.564 -53.305  1.00  0.00     0.030 A 
ENDBRANCH   1  14
TORSDOF 1
ENDMDL
MODEL 6
REMARK VINA RESULT:      -6.8      4.156      5.460
REMARK  1 active torsions:
REMARK  status: ('A' for Active; 'I' for Inactive)
REMARK    1  A    between atoms: C_5  and  N_6 
ROOT
HETATM    1  N   UNL     1     -42.087  56.835 -55.312  1.00  0.00    -0.320 N 
HETATM    2  C   UNL     1     -41.831  58.182 -54.883  1.00  0.00     0.141 C 
HETATM    3  N   UNL     1     -41.320  58.486 -53.723  1.00  0.00    -0.380 N 
HETATM    4  H   UNL     1     -41.086  57.752 -53.069  1.00  0.00     0.158 HD
HETATM    5  H   UNL     1     -41.154  59.455 -53.490  1.00  0.00     0.158 HD
HETATM    6  S   UNL     1     -42.238  59.361 -56.084  1.00  0.00    -0.086 SA
HETATM    7  C   UNL     1     -43.101  58.090 -57.060  1.00  0.00     0.093 C 
HETATM    8  C   UNL     1     -42.296  56.805 -56.767  1.00  0.00     0.121 C 
HETATM    9  C   UNL     1     -43.202  58.154 -58.563  1.00  0.00     0.158 C 
HETATM   10  S   UNL     1     -43.575  56.434 -58.969  1.00  0.00     0.147 S 
HETATM   11  O   UNL     1     -45.002  56.302 -59.158  1.00  0.00    -0.228 OA
HETATM   12  O   UNL     1     -42.609  55.982 -59.947  1.00  0.00    -0.228 OA
HETATM   13  C   UNL     1     -43.143  55.709 -57.375  1.00  0.00     0.167 C 
ENDROOT
BRANCH   1  14
HETATM   14  C   UNL     1     -41.647  55.668 -54.654  1.00  0.00     0.048 A 
HETATM   15  C   UNL     1     -42.212  55.284 -53.400  1.00  0.00     0.001 A 
HETATM   16  C   UNL     1     -41.684  54.158 -52.719  1.00  0.00    -0.024 A 
HETATM   17  C   UNL     1     -43.300  55.959 -52.794  1.00  0.00     0.014 A 
HETATM   18  C   UNL     1     -42.209  53.776 -51.474  1.00  0.00     0.012 A 
HETATM   19  C   UNL     1     -40.641  53.421 -53.295  1.00  0.00     0.012 A 
HETATM   20  C   UNL     1     -43.261  54.480 -50.893  1.00  0.00     0.001 A 
HETATM   21  C   UNL     1     -43.813  55.567 -51.556  1.00  0.00     0.001 A 
HETATM   22  C   UNL     1     -40.112  53.781 -54.529  1.00  0.00     0.003 A 
HETATM   23  C   UNL     1     -40.607  54.896 -55.200  1.00  0.00     0.030 A 
ENDBRANCH   1  14
TORSDOF 1
ENDMDL
MODEL 7
REMARK VINA RESULT:      -6.8      3.091      4.008
REMARK  1 active torsions:
REMARK  status: ('A' for Active; 'I' for Inactive)
REMARK    1  A    between atoms: C_5  and  N_6 
ROOT
HETATM    1  N   UNL     1     -42.487  57.479 -53.267  1.00  0.00    -0.320 N 
HETATM    2  C   UNL     1     -41.640  58.584 -52.913  1.00  0.00     0.141 C 
HETATM    3  N   UNL     1     -40.833  58.577 -51.889  1.00  0.00    -0.380 N 
HETATM    4  H   UNL     1     -40.785  57.762 -51.293  1.00  0.00     0.158 HD
HETATM    5  H   UNL     1     -40.255  59.385 -51.704  1.00  0.00     0.158 HD
HETATM    6  S   UNL     1     -41.774  59.916 -54.011  1.00  0.00    -0.086 SA
HETATM    7  C   UNL     1     -43.243  59.158 -54.772  1.00  0.00     0.093 C 
HETATM    8  C   UNL     1     -42.972  57.643 -54.644  1.00  0.00     0.121 C 
HETATM    9  C   UNL     1     -43.603  59.370 -56.221  1.00  0.00     0.158 C 
HETATM   10  S   UNL     1     -44.699  57.966 -56.525  1.00  0.00     0.147 S 
HETATM   11  O   UNL     1     -46.068  58.413 -56.409  1.00  0.00    -0.228 OA
HETATM   12  O   UNL     1     -44.203  57.250 -57.680  1.00  0.00    -0.228 OA
HETATM   13  C   UNL     1     -44.285  57.012 -55.052  1.00  0.00     0.167 C 
ENDROOT
BRANCH   1  14
HETATM   14  C   UNL     1     -42.425  56.187 -52.706  1.00  0.00     0.048 A 
HETATM   15  C   UNL     1     -41.643  55.164 -53.323  1.00  0.00     0.001 A 
HETATM   16  C   UNL     1     -41.675  53.851 -52.786  1.00  0.00    -0.024 A 
HETATM   17  C   UNL     1     -40.808  55.388 -54.444  1.00  0.00     0.014 A 
HETATM   18  C   UNL     1     -40.932  52.824 -53.391  1.00  0.00     0.012 A 
HETATM   19  C   UNL     1     -42.443  53.582 -51.647  1.00  0.00     0.012 A 
HETATM   20  C   UNL     1     -40.142  53.073 -54.511  1.00  0.00     0.001 A 
HETATM   21  C   UNL     1     -40.074  54.358 -55.034  1.00  0.00     0.001 A 
HETATM   22  C   UNL     1     -43.181  54.586 -51.032  1.00  0.00     0.003 A 
HETATM   23  C   UNL     1     -43.175  55.876 -51.559  1.00  0.00     0.030 A 
ENDBRANCH   1  14
TORSDOF 1
ENDMDL
MODEL 8
REMARK VINA RESULT:      -6.7      2.812      4.485
REMARK  1 active torsions:
REMARK  status: ('A' for Active; 'I' for Inactive)
REMARK    1  A    between atoms: C_5  and  N_6 
ROOT
HETATM    1  N   UNL     1     -42.101  58.220 -52.404  1.00  0.00    -0.320 N 
HETATM    2  C   UNL     1     -40.983  59.015 -51.977  1.00  0.00     0.141 C 
HETATM    3  N   UNL     1     -39.752  58.782 -52.336  1.00  0.00    -0.380 N 
HETATM    4  H   UNL     1     -39.545  58.003 -52.946  1.00  0.00     0.158 HD
HETATM    5  H   UNL     1     -39.014  59.389 -52.008  1.00  0.00     0.158 HD
HETATM    6  S   UNL     1     -41.445  60.339 -50.962  1.00  0.00    -0.086 SA
HETATM    7  C   UNL     1     -43.119  59.644 -50.794  1.00  0.00     0.093 C 
HETATM    8  C   UNL     1     -43.355  58.944 -52.150  1.00  0.00     0.121 C 
HETATM    9  C   UNL     1     -44.336  60.509 -50.583  1.00  0.00     0.158 C 
HETATM   10  S   UNL     1     -45.660  59.393 -51.098  1.00  0.00     0.147 S 
HETATM   11  O   UNL     1     -46.235  58.782 -49.921  1.00  0.00    -0.228 OA
HETATM   12  O   UNL     1     -46.456  60.070 -52.099  1.00  0.00    -0.228 OA
HETATM   13  C   UNL     1     -44.633  58.167 -51.931  1.00  0.00     0.167 C 
ENDROOT
BRANCH   1  14
HETATM   14  C   UNL     1     -42.067  57.231 -53.409  1.00  0.00     0.048 A 
HETATM   15  C   UNL     1     -41.689  55.890 -53.095  1.00  0.00     0.001 A 
HETATM   16  C   UNL     1     -41.574  54.941 -54.143  1.00  0.00    -0.024 A 
HETATM   17  C   UNL     1     -41.438  55.437 -51.778  1.00  0.00     0.014 A 
HETATM   18  C   UNL     1     -41.182  53.623 -53.861  1.00  0.00     0.012 A 
HETATM   19  C   UNL     1     -41.861  55.320 -55.461  1.00  0.00     0.012 A 
HETATM   20  C   UNL     1     -40.915  53.218 -52.555  1.00  0.00     0.001 A 
HETATM   21  C   UNL     1     -41.050  54.123 -51.511  1.00  0.00     0.001 A 
HETATM   22  C   UNL     1     -42.255  56.619 -55.759  1.00  0.00     0.003 A 
HETATM   23  C   UNL     1     -42.353  57.566 -54.743  1.00  0.00     0.030 A 
ENDBRANCH   1  14
TORSDOF 1
ENDMDL
MODEL 9
REMARK VINA RESULT:      -6.6      3.321      4.737
REMARK  1 active torsions:
REMARK  status: ('A' for Active; 'I' for Inactive)
REMARK    1  A    between atoms: C_5  and  N_6 
ROOT
HETATM    1  N   UNL     1     -41.853  57.390 -54.181  1.00  0.00    -0.320 N 
HETATM    2  C   UNL     1     -41.181  58.575 -53.724  1.00  0.00     0.141 C 
HETATM    3  N   UNL     1     -40.166  58.561 -52.906  1.00  0.00    -0.380 N 
HETATM    4  H   UNL     1     -39.816  57.679 -52.556  1.00  0.00     0.158 HD
HETATM    5  H   UNL     1     -39.732  59.431 -52.634  1.00  0.00     0.158 HD
HETATM    6  S   UNL     1     -41.837  60.027 -54.403  1.00  0.00    -0.086 SA
HETATM    7  C   UNL     1     -43.266  59.099 -55.042  1.00  0.00     0.093 C 
HETATM    8  C   UNL     1     -42.678  57.706 -55.356  1.00  0.00     0.121 C 
HETATM    9  C   UNL     1     -44.000  59.505 -56.295  1.00  0.00     0.158 C 
HETATM   10  S   UNL     1     -44.836  57.965 -56.734  1.00  0.00     0.147 S 
HETATM   11  O   UNL     1     -46.197  58.024 -56.253  1.00  0.00    -0.228 OA
HETATM   12  O   UNL     1     -44.502  57.646 -58.105  1.00  0.00    -0.228 OA
HETATM   13  C   UNL     1     -43.898  56.865 -55.656  1.00  0.00     0.167 C 
ENDROOT
BRANCH   1  14
HETATM   14  C   UNL     1     -41.402  56.068 -53.989  1.00  0.00     0.048 A 
HETATM   15  C   UNL     1     -41.605  55.406 -52.740  1.00  0.00     0.001 A 
HETATM   16  C   UNL     1     -41.059  54.111 -52.547  1.00  0.00    -0.024 A 
HETATM   17  C   UNL     1     -42.347  55.964 -51.671  1.00  0.00     0.014 A 
HETATM   18  C   UNL     1     -41.225  53.451 -51.319  1.00  0.00     0.012 A 
HETATM   19  C   UNL     1     -40.359  53.488 -53.588  1.00  0.00     0.012 A 
HETATM   20  C   UNL     1     -41.938  54.042 -50.278  1.00  0.00     0.001 A 
HETATM   21  C   UNL     1     -42.506  55.296 -50.456  1.00  0.00     0.001 A 
HETATM   22  C   UNL     1     -40.187  54.123 -54.812  1.00  0.00     0.003 A 
HETATM   23  C   UNL     1     -40.701  55.403 -55.009  1.00  0.00     0.030 A 
ENDBRANCH   1  14
TORSDOF 1
ENDMDL
MODEL 10
REMARK VINA RESULT:      -6.5      4.501      5.510
REMARK  1 active torsions:
REMARK  status: ('A' for Active; 'I' for Inactive)
REMARK    1  A    between atoms: C_5  and  N_6 
ROOT
HETATM    1  N   UNL     1     -42.909  56.875 -56.761  1.00  0.00    -0.320 N 
HETATM    2  C   UNL     1     -43.326  56.074 -57.878  1.00  0.00     0.141 C 
HETATM    3  N   UNL     1     -43.688  54.825 -57.777  1.00  0.00    -0.380 N 
HETATM    4  H   UNL     1     -43.681  54.372 -56.873  1.00  0.00     0.158 HD
HETATM    5  H   UNL     1     -43.982  54.323 -58.602  1.00  0.00     0.158 HD
HETATM    6  S   UNL     1     -43.333  56.949 -59.372  1.00  0.00    -0.086 SA
HETATM    7  C   UNL     1     -42.429  58.321 -58.587  1.00  0.00     0.093 C 
HETATM    8  C   UNL     1     -42.936  58.298 -57.129  1.00  0.00     0.121 C 
HETATM    9  C   UNL     1     -42.585  59.752 -59.034  1.00  0.00     0.158 C 
HETATM   10  S   UNL     1     -41.985  60.646 -57.582  1.00  0.00     0.147 S 
HETATM   11  O   UNL     1     -40.607  61.020 -57.806  1.00  0.00    -0.228 OA
HETATM   12  O   UNL     1     -43.001  61.596 -57.187  1.00  0.00    -0.228 OA
HETATM   13  C   UNL     1     -42.020  59.268 -56.419  1.00  0.00     0.167 C 
ENDROOT
BRANCH   1  14
HETATM   14  C   UNL     1     -43.024  56.511 -55.403  1.00  0.00     0.048 A 
HETATM   15  C   UNL     1     -42.140  55.546 -54.832  1.00  0.00     0.001 A 
HETATM   16  C   UNL     1     -42.341  55.134 -53.490  1.00  0.00    -0.024 A 
HETATM   17  C   UNL     1     -41.044  54.983 -55.529  1.00  0.00     0.014 A 
HETATM   18  C   UNL     1     -41.497  54.169 -52.915  1.00  0.00     0.012 A 
HETATM   19  C   UNL     1     -43.378  55.696 -52.736  1.00  0.00     0.012 A 
HETATM   20  C   UNL     1     -40.444  53.614 -53.639  1.00  0.00     0.001 A 
HETATM   21  C   UNL     1     -40.212  54.026 -54.944  1.00  0.00     0.001 A 
HETATM   22  C   UNL     1     -44.220  56.655 -53.286  1.00  0.00     0.003 A 
HETATM   23  C   UNL     1     -44.047  57.055 -54.609  1.00  0.00     0.030 A 
ENDBRANCH   1  14
TORSDOF 1
ENDMDL
