MODEL 1
REMARK VINA RESULT:      -7.9      0.000      0.000
REMARK  4 active torsions:
REMARK  status: ('A' for Active; 'I' for Inactive)
REMARK    1  A    between atoms: C_4  and  N_5 
REMARK       I    between atoms: N_5  and  C_6 
REMARK       I    between atoms: C_6  and  N_7 
REMARK    2  A    between atoms: N_7  and  C_8 
REMARK    3  A    between atoms: C_8  and  C_9 
REMARK    4  A    between atoms: C_10  and  O_11 
ROOT
HETATM    1  N   UNL     1     -42.329  55.279 -53.584  1.00  0.00    -0.307 N 
HETATM    2  C   UNL     1     -42.152  56.585 -53.914  1.00  0.00     0.321 C 
HETATM    3  N   UNL     1     -41.052  57.209 -53.405  1.00  0.00    -0.338 N 
HETATM    4  O   UNL     1     -42.987  57.160 -54.607  1.00  0.00    -0.247 OA
HETATM    5  H   UNL     1     -43.273  54.947 -53.779  1.00  0.00     0.170 HD
HETATM    6  H   UNL     1     -40.787  56.859 -52.497  1.00  0.00     0.164 HD
ENDROOT
BRANCH   1   7
HETATM    7  C   UNL     1     -41.488  54.283 -53.033  1.00  0.00     0.066 A 
HETATM    8  C   UNL     1     -40.983  53.203 -53.767  1.00  0.00     0.038 A 
HETATM    9  C   UNL     1     -40.159  52.249 -53.159  1.00  0.00    -0.059 A 
HETATM   10  C   UNL     1     -39.584  51.113 -53.953  1.00  0.00     0.048 C 
HETATM   11  C   UNL     1     -39.849  52.388 -51.805  1.00  0.00     0.020 A 
HETATM   12  C   UNL     1     -40.383  53.445 -51.050  1.00  0.00    -0.005 A 
HETATM   13  C   UNL     1     -41.221  54.404 -51.657  1.00  0.00     0.093 A 
HETATM   14  C   UNL     1     -40.103  53.577 -49.684  1.00  0.00     0.015 A 
HETATM   15  N   UNL     1     -41.754  55.427 -50.948  1.00  0.00    -0.258 NA
HETATM   16  C   UNL     1     -41.464  55.520 -49.633  1.00  0.00     0.117 A 
HETATM   17  C   UNL     1     -40.651  54.630 -48.960  1.00  0.00     0.020 A 
ENDBRANCH   1   7
BRANCH   3  18
HETATM   18  C   UNL     1     -40.835  58.631 -53.607  1.00  0.00     0.167 C 
BRANCH  18  19
HETATM   19  C   UNL     1     -41.476  59.523 -52.577  1.00  0.00     0.012 A 
HETATM   20  C   UNL     1     -41.013  59.505 -51.258  1.00  0.00     0.171 A 
HETATM   21  N   UNL     1     -41.541  60.244 -50.254  1.00  0.00    -0.237 NA
HETATM   22  C   UNL     1     -42.596  61.024 -50.563  1.00  0.00     0.119 A 
HETATM   23  C   UNL     1     -43.146  61.107 -51.828  1.00  0.00     0.020 A 
HETATM   24  C   UNL     1     -42.580  60.343 -52.845  1.00  0.00     0.014 A 
BRANCH  20  25
HETATM   25  O   UNL     1     -39.938  58.680 -50.983  1.00  0.00    -0.339 OA
HETATM   26  C   UNL     1     -38.763  59.391 -50.605  1.00  0.00     0.211 C 
ENDBRANCH  20  25
ENDBRANCH  18  19
ENDBRANCH   3  18
TORSDOF 4
ENDMDL
MODEL 2
REMARK VINA RESULT:      -7.7      1.375      2.005
REMARK  4 active torsions:
REMARK  status: ('A' for Active; 'I' for Inactive)
REMARK    1  A    between atoms: C_4  and  N_5 
REMARK       I    between atoms: N_5  and  C_6 
REMARK       I    between atoms: C_6  and  N_7 
REMARK    2  A    between atoms: N_7  and  C_8 
REMARK    3  A    between atoms: C_8  and  C_9 
REMARK    4  A    between atoms: C_10  and  O_11 
ROOT
HETATM    1  N   UNL     1     -42.225  54.389 -54.121  1.00  0.00    -0.307 N 
HETATM    2  C   UNL     1     -42.103  55.720 -54.363  1.00  0.00     0.321 C 
HETATM    3  N   UNL     1     -41.131  56.388 -53.682  1.00  0.00    -0.338 N 
HETATM    4  O   UNL     1     -42.880  56.274 -55.137  1.00  0.00    -0.247 OA
HETATM    5  H   UNL     1     -43.108  54.004 -54.458  1.00  0.00     0.170 HD
HETATM    6  H   UNL     1     -40.962  56.006 -52.763  1.00  0.00     0.164 HD
ENDROOT
BRANCH   1   7
HETATM    7  C   UNL     1     -41.394  53.422 -53.507  1.00  0.00     0.066 A 
HETATM    8  C   UNL     1     -40.803  52.357 -54.198  1.00  0.00     0.038 A 
HETATM    9  C   UNL     1     -39.993  51.433 -53.528  1.00  0.00    -0.059 A 
HETATM   10  C   UNL     1     -39.328  50.314 -54.272  1.00  0.00     0.048 C 
HETATM   11  C   UNL     1     -39.783  51.586 -52.156  1.00  0.00     0.020 A 
HETATM   12  C   UNL     1     -40.403  52.628 -51.446  1.00  0.00    -0.005 A 
HETATM   13  C   UNL     1     -41.228  53.557 -52.117  1.00  0.00     0.093 A 
HETATM   14  C   UNL     1     -40.224  52.774 -50.065  1.00  0.00     0.015 A 
HETATM   15  N   UNL     1     -41.842  54.565 -51.453  1.00  0.00    -0.258 NA
HETATM   16  C   UNL     1     -41.648  54.671 -50.120  1.00  0.00     0.117 A 
HETATM   17  C   UNL     1     -40.855  53.810 -49.387  1.00  0.00     0.020 A 
ENDBRANCH   1   7
BRANCH   3  18
HETATM   18  C   UNL     1     -40.995  57.830 -53.788  1.00  0.00     0.167 C 
BRANCH  18  19
HETATM   19  C   UNL     1     -41.129  58.576 -52.487  1.00  0.00     0.012 A 
HETATM   20  C   UNL     1     -42.396  58.948 -52.026  1.00  0.00     0.171 A 
HETATM   21  N   UNL     1     -42.618  59.645 -50.888  1.00  0.00    -0.237 NA
HETATM   22  C   UNL     1     -41.534  60.015 -50.178  1.00  0.00     0.119 A 
HETATM   23  C   UNL     1     -40.236  59.716 -50.547  1.00  0.00     0.020 A 
HETATM   24  C   UNL     1     -40.034  58.991 -51.718  1.00  0.00     0.014 A 
BRANCH  20  25
HETATM   25  O   UNL     1     -43.480  58.561 -52.793  1.00  0.00    -0.339 OA
HETATM   26  C   UNL     1     -44.365  57.676 -52.113  1.00  0.00     0.211 C 
ENDBRANCH  20  25
ENDBRANCH  18  19
ENDBRANCH   3  18
TORSDOF 4
ENDMDL
MODEL 3
REMARK VINA RESULT:      -7.7      3.047      4.764
REMARK  4 active torsions:
REMARK  status: ('A' for Active; 'I' for Inactive)
REMARK    1  A    between atoms: C_4  and  N_5 
REMARK       I    between atoms: N_5  and  C_6 
REMARK       I    between atoms: C_6  and  N_7 
REMARK    2  A    between atoms: N_7  and  C_8 
REMARK    3  A    between atoms: C_8  and  C_9 
REMARK    4  A    between atoms: C_10  and  O_11 
ROOT
HETATM    1  N   UNL     1     -43.324  55.044 -53.234  1.00  0.00    -0.307 N 
HETATM    2  C   UNL     1     -43.550  56.011 -54.161  1.00  0.00     0.321 C 
HETATM    3  N   UNL     1     -42.463  56.512 -54.813  1.00  0.00    -0.338 N 
HETATM    4  O   UNL     1     -44.692  56.422 -54.349  1.00  0.00    -0.247 OA
HETATM    5  H   UNL     1     -44.121  54.894 -52.617  1.00  0.00     0.170 HD
HETATM    6  H   UNL     1     -41.632  56.521 -54.241  1.00  0.00     0.164 HD
ENDROOT
BRANCH   1   7
HETATM    7  C   UNL     1     -42.224  54.202 -52.941  1.00  0.00     0.066 A 
HETATM    8  C   UNL     1     -41.750  53.217 -53.816  1.00  0.00     0.038 A 
HETATM    9  C   UNL     1     -40.659  52.414 -53.463  1.00  0.00    -0.059 A 
HETATM   10  C   UNL     1     -40.124  51.384 -54.413  1.00  0.00     0.048 C 
HETATM   11  C   UNL     1     -40.050  52.608 -52.221  1.00  0.00     0.020 A 
HETATM   12  C   UNL     1     -40.543  53.567 -51.321  1.00  0.00    -0.005 A 
HETATM   13  C   UNL     1     -41.648  54.372 -51.670  1.00  0.00     0.093 A 
HETATM   14  C   UNL     1     -39.958  53.749 -50.061  1.00  0.00     0.015 A 
HETATM   15  N   UNL     1     -42.146  55.297 -50.815  1.00  0.00    -0.258 NA
HETATM   16  C   UNL     1     -41.558  55.442 -49.608  1.00  0.00     0.117 A 
HETATM   17  C   UNL     1     -40.471  54.701 -49.188  1.00  0.00     0.020 A 
ENDBRANCH   1   7
BRANCH   3  18
HETATM   18  C   UNL     1     -42.589  57.624 -55.739  1.00  0.00     0.167 C 
BRANCH  18  19
HETATM   19  C   UNL     1     -42.567  57.241 -57.195  1.00  0.00     0.012 A 
HETATM   20  C   UNL     1     -42.131  58.164 -58.150  1.00  0.00     0.171 A 
HETATM   21  N   UNL     1     -42.104  57.927 -59.482  1.00  0.00    -0.237 NA
HETATM   22  C   UNL     1     -42.551  56.724 -59.896  1.00  0.00     0.119 A 
HETATM   23  C   UNL     1     -43.019  55.743 -59.042  1.00  0.00     0.020 A 
HETATM   24  C   UNL     1     -43.029  56.009 -57.676  1.00  0.00     0.014 A 
BRANCH  20  25
HETATM   25  O   UNL     1     -41.696  59.390 -57.682  1.00  0.00    -0.339 OA
HETATM   26  C   UNL     1     -41.857  60.444 -58.628  1.00  0.00     0.211 C 
ENDBRANCH  20  25
ENDBRANCH  18  19
ENDBRANCH   3  18
TORSDOF 4
ENDMDL
MODEL 4
REMARK VINA RESULT:      -7.5      3.365      5.381
REMARK  4 active torsions:
REMARK  status: ('A' for Active; 'I' for Inactive)
REMARK    1  A    between atoms: C_4  and  N_5 
REMARK       I    between atoms: N_5  and  C_6 
REMARK       I    between atoms: C_6  and  N_7 
REMARK    2  A    between atoms: N_7  and  C_8 
REMARK    3  A    between atoms: C_8  and  C_9 
REMARK    4  A    between atoms: C_10  and  O_11 
ROOT
HETATM    1  N   UNL     1     -41.088  56.647 -53.901  1.00  0.00    -0.307 N 
HETATM    2  C   UNL     1     -41.990  57.217 -54.742  1.00  0.00     0.321 C 
HETATM    3  N   UNL     1     -42.745  56.376 -55.503  1.00  0.00    -0.338 N 
HETATM    4  O   UNL     1     -42.066  58.441 -54.819  1.00  0.00    -0.247 OA
HETATM    5  H   UNL     1     -40.396  57.311 -53.554  1.00  0.00     0.170 HD
HETATM    6  H   UNL     1     -42.257  55.530 -55.756  1.00  0.00     0.164 HD
ENDROOT
BRANCH   1   7
HETATM    7  C   UNL     1     -40.904  55.336 -53.401  1.00  0.00     0.066 A 
HETATM    8  C   UNL     1     -40.672  54.222 -54.217  1.00  0.00     0.038 A 
HETATM    9  C   UNL     1     -40.503  52.950 -53.658  1.00  0.00    -0.059 A 
HETATM   10  C   UNL     1     -40.216  51.761 -54.527  1.00  0.00     0.048 C 
HETATM   11  C   UNL     1     -40.570  52.806 -52.270  1.00  0.00     0.020 A 
HETATM   12  C   UNL     1     -40.841  53.911 -51.446  1.00  0.00    -0.005 A 
HETATM   13  C   UNL     1     -41.022  55.193 -52.007  1.00  0.00     0.093 A 
HETATM   14  C   UNL     1     -40.941  53.773 -50.055  1.00  0.00     0.015 A 
HETATM   15  N   UNL     1     -41.292  56.271 -51.233  1.00  0.00    -0.258 NA
HETATM   16  C   UNL     1     -41.384  56.099 -49.897  1.00  0.00     0.117 A 
HETATM   17  C   UNL     1     -41.217  54.882 -49.265  1.00  0.00     0.020 A 
ENDBRANCH   1   7
BRANCH   3  18
HETATM   18  C   UNL     1     -43.655  56.891 -56.512  1.00  0.00     0.167 C 
BRANCH  18  19
HETATM   19  C   UNL     1     -43.031  57.145 -57.858  1.00  0.00     0.012 A 
HETATM   20  C   UNL     1     -43.021  56.133 -58.822  1.00  0.00     0.171 A 
HETATM   21  N   UNL     1     -42.459  56.252 -60.047  1.00  0.00    -0.237 NA
HETATM   22  C   UNL     1     -41.854  57.424 -60.328  1.00  0.00     0.119 A 
HETATM   23  C   UNL     1     -41.789  58.486 -59.445  1.00  0.00     0.020 A 
HETATM   24  C   UNL     1     -42.382  58.340 -58.194  1.00  0.00     0.014 A 
BRANCH  20  25
HETATM   25  O   UNL     1     -43.640  54.942 -58.486  1.00  0.00    -0.339 OA
HETATM   26  C   UNL     1     -44.442  54.408 -59.536  1.00  0.00     0.211 C 
ENDBRANCH  20  25
ENDBRANCH  18  19
ENDBRANCH   3  18
TORSDOF 4
ENDMDL
MODEL 5
REMARK VINA RESULT:      -7.4      1.551      3.129
REMARK  4 active torsions:
REMARK  status: ('A' for Active; 'I' for Inactive)
REMARK    1  A    between atoms: C_4  and  N_5 
REMARK       I    between atoms: N_5  and  C_6 
REMARK       I    between atoms: C_6  and  N_7 
REMARK    2  A    between atoms: N_7  and  C_8 
REMARK    3  A    between atoms: C_8  and  C_9 
REMARK    4  A    between atoms: C_10  and  O_11 
ROOT
HETATM    1  N   UNL     1     -43.049  54.638 -53.037  1.00  0.00    -0.307 N 
HETATM    2  C   UNL     1     -43.046  55.575 -54.020  1.00  0.00     0.321 C 
HETATM    3  N   UNL     1     -42.015  56.466 -54.025  1.00  0.00    -0.338 N 
HETATM    4  O   UNL     1     -43.971  55.617 -54.828  1.00  0.00    -0.247 OA
HETATM    5  H   UNL     1     -43.950  54.173 -52.936  1.00  0.00     0.170 HD
HETATM    6  H   UNL     1     -41.675  56.679 -53.100  1.00  0.00     0.164 HD
ENDROOT
BRANCH   1   7
HETATM    7  C   UNL     1     -42.072  54.166 -52.128  1.00  0.00     0.066 A 
HETATM    8  C   UNL     1     -41.922  54.662 -50.827  1.00  0.00     0.038 A 
HETATM    9  C   UNL     1     -40.931  54.154 -49.979  1.00  0.00    -0.059 A 
HETATM   10  C   UNL     1     -40.792  54.656 -48.572  1.00  0.00     0.048 C 
HETATM   11  C   UNL     1     -40.090  53.144 -50.450  1.00  0.00     0.020 A 
HETATM   12  C   UNL     1     -40.207  52.667 -51.766  1.00  0.00    -0.005 A 
HETATM   13  C   UNL     1     -41.198  53.183 -52.627  1.00  0.00     0.093 A 
HETATM   14  C   UNL     1     -39.349  51.675 -52.259  1.00  0.00     0.015 A 
HETATM   15  N   UNL     1     -41.325  52.745 -53.903  1.00  0.00    -0.258 NA
HETATM   16  C   UNL     1     -40.478  51.790 -54.343  1.00  0.00     0.117 A 
HETATM   17  C   UNL     1     -39.484  51.227 -53.568  1.00  0.00     0.020 A 
ENDBRANCH   1   7
BRANCH   3  18
HETATM   18  C   UNL     1     -41.983  57.572 -54.966  1.00  0.00     0.167 C 
BRANCH  18  19
HETATM   19  C   UNL     1     -42.473  58.885 -54.416  1.00  0.00     0.012 A 
HETATM   20  C   UNL     1     -41.644  59.643 -53.584  1.00  0.00     0.171 A 
HETATM   21  N   UNL     1     -42.004  60.818 -53.016  1.00  0.00    -0.237 NA
HETATM   22  C   UNL     1     -43.254  61.258 -53.264  1.00  0.00     0.119 A 
HETATM   23  C   UNL     1     -44.162  60.582 -54.058  1.00  0.00     0.020 A 
HETATM   24  C   UNL     1     -43.765  59.380 -54.637  1.00  0.00     0.014 A 
BRANCH  20  25
HETATM   25  O   UNL     1     -40.376  59.148 -53.344  1.00  0.00    -0.339 OA
HETATM   26  C   UNL     1     -40.050  59.079 -51.959  1.00  0.00     0.211 C 
ENDBRANCH  20  25
ENDBRANCH  18  19
ENDBRANCH   3  18
TORSDOF 4
ENDMDL
MODEL 6
REMARK VINA RESULT:      -7.4      1.910      3.556
REMARK  4 active torsions:
REMARK  status: ('A' for Active; 'I' for Inactive)
REMARK    1  A    between atoms: C_4  and  N_5 
REMARK       I    between atoms: N_5  and  C_6 
REMARK       I    between atoms: C_6  and  N_7 
REMARK    2  A    between atoms: N_7  and  C_8 
REMARK    3  A    between atoms: C_8  and  C_9 
REMARK    4  A    between atoms: C_10  and  O_11 
ROOT
HETATM    1  N   UNL     1     -41.000  54.116 -54.220  1.00  0.00    -0.307 N 
HETATM    2  C   UNL     1     -41.847  55.127 -54.544  1.00  0.00     0.321 C 
HETATM    3  N   UNL     1     -42.756  55.502 -53.601  1.00  0.00    -0.338 N 
HETATM    4  O   UNL     1     -41.798  55.630 -55.664  1.00  0.00    -0.247 OA
HETATM    5  H   UNL     1     -40.527  53.720 -55.031  1.00  0.00     0.170 HD
HETATM    6  H   UNL     1     -43.057  54.735 -53.019  1.00  0.00     0.164 HD
ENDROOT
BRANCH   1   7
HETATM    7  C   UNL     1     -40.632  53.497 -53.001  1.00  0.00     0.066 A 
HETATM    8  C   UNL     1     -40.576  54.173 -51.776  1.00  0.00     0.038 A 
HETATM    9  C   UNL     1     -40.199  53.503 -50.607  1.00  0.00    -0.059 A 
HETATM   10  C   UNL     1     -40.176  54.214 -49.286  1.00  0.00     0.048 C 
HETATM   11  C   UNL     1     -39.876  52.146 -50.679  1.00  0.00     0.020 A 
HETATM   12  C   UNL     1     -39.891  51.468 -51.910  1.00  0.00    -0.005 A 
HETATM   13  C   UNL     1     -40.261  52.144 -53.092  1.00  0.00     0.093 A 
HETATM   14  C   UNL     1     -39.539  50.115 -52.000  1.00  0.00     0.015 A 
HETATM   15  N   UNL     1     -40.275  51.514 -54.291  1.00  0.00    -0.258 NA
HETATM   16  C   UNL     1     -39.927  50.210 -54.338  1.00  0.00     0.117 A 
HETATM   17  C   UNL     1     -39.556  49.473 -53.231  1.00  0.00     0.020 A 
ENDBRANCH   1   7
BRANCH   3  18
HETATM   18  C   UNL     1     -43.776  56.494 -53.894  1.00  0.00     0.167 C 
BRANCH  18  19
HETATM   19  C   UNL     1     -43.861  57.626 -52.904  1.00  0.00     0.012 A 
HETATM   20  C   UNL     1     -42.835  58.573 -52.842  1.00  0.00     0.171 A 
HETATM   21  N   UNL     1     -42.803  59.606 -51.969  1.00  0.00    -0.237 NA
HETATM   22  C   UNL     1     -43.826  59.698 -51.096  1.00  0.00     0.119 A 
HETATM   23  C   UNL     1     -44.884  58.809 -51.057  1.00  0.00     0.020 A 
HETATM   24  C   UNL     1     -44.897  57.759 -51.971  1.00  0.00     0.014 A 
BRANCH  20  25
HETATM   25  O   UNL     1     -41.798  58.433 -53.747  1.00  0.00    -0.339 OA
HETATM   26  C   UNL     1     -40.530  58.802 -53.212  1.00  0.00     0.211 C 
ENDBRANCH  20  25
ENDBRANCH  18  19
ENDBRANCH   3  18
TORSDOF 4
ENDMDL
MODEL 7
REMARK VINA RESULT:      -7.3      3.678      7.765
REMARK  4 active torsions:
REMARK  status: ('A' for Active; 'I' for Inactive)
REMARK    1  A    between atoms: C_4  and  N_5 
REMARK       I    between atoms: N_5  and  C_6 
REMARK       I    between atoms: C_6  and  N_7 
REMARK    2  A    between atoms: N_7  and  C_8 
REMARK    3  A    between atoms: C_8  and  C_9 
REMARK    4  A    between atoms: C_10  and  O_11 
ROOT
HETATM    1  N   UNL     1     -43.211  55.769 -56.308  1.00  0.00    -0.307 N 
HETATM    2  C   UNL     1     -42.598  54.669 -55.800  1.00  0.00     0.321 C 
HETATM    3  N   UNL     1     -41.249  54.737 -55.623  1.00  0.00    -0.338 N 
HETATM    4  O   UNL     1     -43.254  53.657 -55.563  1.00  0.00    -0.247 OA
HETATM    5  H   UNL     1     -44.153  55.577 -56.647  1.00  0.00     0.170 HD
HETATM    6  H   UNL     1     -40.792  55.321 -56.307  1.00  0.00     0.164 HD
ENDROOT
BRANCH   1   7
HETATM    7  C   UNL     1     -42.827  57.122 -56.465  1.00  0.00     0.066 A 
HETATM    8  C   UNL     1     -42.730  58.028 -55.401  1.00  0.00     0.038 A 
HETATM    9  C   UNL     1     -42.348  59.355 -55.625  1.00  0.00    -0.059 A 
HETATM   10  C   UNL     1     -42.205  60.317 -54.483  1.00  0.00     0.048 C 
HETATM   11  C   UNL     1     -42.067  59.767 -56.930  1.00  0.00     0.020 A 
HETATM   12  C   UNL     1     -42.200  58.877 -58.009  1.00  0.00    -0.005 A 
HETATM   13  C   UNL     1     -42.594  57.540 -57.787  1.00  0.00     0.093 A 
HETATM   14  C   UNL     1     -41.950  59.287 -59.325  1.00  0.00     0.015 A 
HETATM   15  N   UNL     1     -42.736  56.666 -58.812  1.00  0.00    -0.258 NA
HETATM   16  C   UNL     1     -42.489  57.099 -60.067  1.00  0.00     0.117 A 
HETATM   17  C   UNL     1     -42.096  58.387 -60.373  1.00  0.00     0.020 A 
ENDBRANCH   1   7
BRANCH   3  18
HETATM   18  C   UNL     1     -40.488  53.576 -55.193  1.00  0.00     0.167 C 
BRANCH  18  19
HETATM   19  C   UNL     1     -40.413  53.386 -53.701  1.00  0.00     0.012 A 
HETATM   20  C   UNL     1     -39.937  52.180 -53.178  1.00  0.00     0.171 A 
HETATM   21  N   UNL     1     -39.860  51.900 -51.856  1.00  0.00    -0.237 NA
HETATM   22  C   UNL     1     -40.296  52.851 -51.006  1.00  0.00     0.119 A 
HETATM   23  C   UNL     1     -40.801  54.072 -51.413  1.00  0.00     0.020 A 
HETATM   24  C   UNL     1     -40.862  54.338 -52.778  1.00  0.00     0.014 A 
BRANCH  20  25
HETATM   25  O   UNL     1     -39.514  51.226 -54.086  1.00  0.00    -0.339 OA
HETATM   26  C   UNL     1     -39.866  49.897 -53.714  1.00  0.00     0.211 C 
ENDBRANCH  20  25
ENDBRANCH  18  19
ENDBRANCH   3  18
TORSDOF 4
ENDMDL
MODEL 8
REMARK VINA RESULT:      -7.3      1.836      3.526
REMARK  4 active torsions:
REMARK  status: ('A' for Active; 'I' for Inactive)
REMARK    1  A    between atoms: C_4  and  N_5 
REMARK       I    between atoms: N_5  and  C_6 
REMARK       I    between atoms: C_6  and  N_7 
REMARK    2  A    between atoms: N_7  and  C_8 
REMARK    3  A    between atoms: C_8  and  C_9 
REMARK    4  A    between atoms: C_10  and  O_11 
ROOT
HETATM    1  N   UNL     1     -43.762  55.741 -51.024  1.00  0.00    -0.307 N 
HETATM    2  C   UNL     1     -43.965  57.053 -51.313  1.00  0.00     0.321 C 
HETATM    3  N   UNL     1     -42.921  57.903 -51.102  1.00  0.00    -0.338 N 
HETATM    4  O   UNL     1     -45.067  57.429 -51.705  1.00  0.00    -0.247 OA
HETATM    5  H   UNL     1     -44.630  55.210 -50.962  1.00  0.00     0.170 HD
HETATM    6  H   UNL     1     -42.336  57.622 -50.329  1.00  0.00     0.164 HD
ENDROOT
BRANCH   1   7
HETATM    7  C   UNL     1     -42.609  54.953 -50.794  1.00  0.00     0.066 A 
HETATM    8  C   UNL     1     -41.978  54.850 -49.548  1.00  0.00     0.038 A 
HETATM    9  C   UNL     1     -40.836  54.056 -49.390  1.00  0.00    -0.059 A 
HETATM   10  C   UNL     1     -40.181  53.912 -48.048  1.00  0.00     0.048 C 
HETATM   11  C   UNL     1     -40.332  53.367 -50.495  1.00  0.00     0.020 A 
HETATM   12  C   UNL     1     -40.935  53.495 -51.758  1.00  0.00    -0.005 A 
HETATM   13  C   UNL     1     -42.080  54.303 -51.923  1.00  0.00     0.093 A 
HETATM   14  C   UNL     1     -40.420  52.834 -52.880  1.00  0.00     0.015 A 
HETATM   15  N   UNL     1     -42.674  54.448 -53.132  1.00  0.00    -0.258 NA
HETATM   16  C   UNL     1     -42.146  53.797 -54.191  1.00  0.00     0.117 A 
HETATM   17  C   UNL     1     -41.032  52.985 -54.118  1.00  0.00     0.020 A 
ENDBRANCH   1   7
BRANCH   3  18
HETATM   18  C   UNL     1     -43.074  59.337 -51.273  1.00  0.00     0.167 C 
BRANCH  18  19
HETATM   19  C   UNL     1     -42.979  59.818 -52.697  1.00  0.00     0.012 A 
HETATM   20  C   UNL     1     -41.859  59.491 -53.468  1.00  0.00     0.171 A 
HETATM   21  N   UNL     1     -41.666  59.900 -54.743  1.00  0.00    -0.237 NA
HETATM   22  C   UNL     1     -42.615  60.692 -55.279  1.00  0.00     0.119 A 
HETATM   23  C   UNL     1     -43.754  61.091 -54.604  1.00  0.00     0.020 A 
HETATM   24  C   UNL     1     -43.933  60.650 -53.296  1.00  0.00     0.014 A 
BRANCH  20  25
HETATM   25  O   UNL     1     -40.902  58.689 -52.873  1.00  0.00    -0.339 OA
HETATM   26  C   UNL     1     -40.656  57.481 -53.587  1.00  0.00     0.211 C 
ENDBRANCH  20  25
ENDBRANCH  18  19
ENDBRANCH   3  18
TORSDOF 4
ENDMDL
MODEL 9
REMARK VINA RESULT:      -7.3      3.302      5.754
REMARK  4 active torsions:
REMARK  status: ('A' for Active; 'I' for Inactive)
REMARK    1  A    between atoms: C_4  and  N_5 
REMARK       I    between atoms: N_5  and  C_6 
REMARK       I    between atoms: C_6  and  N_7 
REMARK    2  A    between atoms: N_7  and  C_8 
REMARK    3  A    between atoms: C_8  and  C_9 
REMARK    4  A    between atoms: C_10  and  O_11 
ROOT
HETATM    1  N   UNL     1     -41.184  57.650 -53.050  1.00  0.00    -0.307 N 
HETATM    2  C   UNL     1     -41.455  58.573 -54.009  1.00  0.00     0.321 C 
HETATM    3  N   UNL     1     -42.247  58.177 -55.045  1.00  0.00    -0.338 N 
HETATM    4  O   UNL     1     -40.955  59.693 -53.938  1.00  0.00    -0.247 OA
HETATM    5  H   UNL     1     -40.404  57.918 -52.451  1.00  0.00     0.170 HD
HETATM    6  H   UNL     1     -42.134  57.202 -55.275  1.00  0.00     0.164 HD
ENDROOT
BRANCH   1   7
HETATM    7  C   UNL     1     -41.753  56.402 -52.701  1.00  0.00     0.066 A 
HETATM    8  C   UNL     1     -42.676  56.235 -51.661  1.00  0.00     0.038 A 
HETATM    9  C   UNL     1     -43.197  54.971 -51.364  1.00  0.00    -0.059 A 
HETATM   10  C   UNL     1     -44.215  54.795 -50.277  1.00  0.00     0.048 C 
HETATM   11  C   UNL     1     -42.780  53.873 -52.121  1.00  0.00     0.020 A 
HETATM   12  C   UNL     1     -41.825  54.023 -53.139  1.00  0.00    -0.005 A 
HETATM   13  C   UNL     1     -41.291  55.295 -53.435  1.00  0.00     0.093 A 
HETATM   14  C   UNL     1     -41.377  52.924 -53.884  1.00  0.00     0.015 A 
HETATM   15  N   UNL     1     -40.363  55.463 -54.407  1.00  0.00    -0.258 NA
HETATM   16  C   UNL     1     -39.953  54.380 -55.102  1.00  0.00     0.117 A 
HETATM   17  C   UNL     1     -40.426  53.102 -54.881  1.00  0.00     0.020 A 
ENDBRANCH   1   7
BRANCH   3  18
HETATM   18  C   UNL     1     -42.500  59.055 -56.174  1.00  0.00     0.167 C 
BRANCH  18  19
HETATM   19  C   UNL     1     -42.794  58.349 -57.471  1.00  0.00     0.012 A 
HETATM   20  C   UNL     1     -44.034  57.730 -57.660  1.00  0.00     0.171 A 
HETATM   21  N   UNL     1     -44.382  57.045 -58.774  1.00  0.00    -0.237 NA
HETATM   22  C   UNL     1     -43.451  56.947 -59.745  1.00  0.00     0.119 A 
HETATM   23  C   UNL     1     -42.190  57.505 -59.658  1.00  0.00     0.020 A 
HETATM   24  C   UNL     1     -41.859  58.211 -58.504  1.00  0.00     0.014 A 
BRANCH  20  25
HETATM   25  O   UNL     1     -44.953  57.843 -56.633  1.00  0.00    -0.339 OA
HETATM   26  C   UNL     1     -46.224  58.321 -57.064  1.00  0.00     0.211 C 
ENDBRANCH  20  25
ENDBRANCH  18  19
ENDBRANCH   3  18
TORSDOF 4
ENDMDL
MODEL 10
REMARK VINA RESULT:      -7.1      3.059      7.034
REMARK  4 active torsions:
REMARK  status: ('A' for Active; 'I' for Inactive)
REMARK    1  A    between atoms: C_4  and  N_5 
REMARK       I    between atoms: N_5  and  C_6 
REMARK       I    between atoms: C_6  and  N_7 
REMARK    2  A    between atoms: N_7  and  C_8 
REMARK    3  A    between atoms: C_8  and  C_9 
REMARK    4  A    between atoms: C_10  and  O_11 
ROOT
HETATM    1  N   UNL     1     -43.600  55.510 -55.055  1.00  0.00    -0.307 N 
HETATM    2  C   UNL     1     -42.960  55.048 -53.950  1.00  0.00     0.321 C 
HETATM    3  N   UNL     1     -41.598  55.082 -53.961  1.00  0.00    -0.338 N 
HETATM    4  O   UNL     1     -43.610  54.586 -53.015  1.00  0.00    -0.247 OA
HETATM    5  H   UNL     1     -44.580  55.231 -55.091  1.00  0.00     0.170 HD
HETATM    6  H   UNL     1     -41.210  54.950 -54.883  1.00  0.00     0.164 HD
ENDROOT
BRANCH   1   7
HETATM    7  C   UNL     1     -43.202  56.294 -56.164  1.00  0.00     0.066 A 
HETATM    8  C   UNL     1     -43.084  55.791 -57.466  1.00  0.00     0.038 A 
HETATM    9  C   UNL     1     -42.680  56.620 -58.518  1.00  0.00    -0.059 A 
HETATM   10  C   UNL     1     -42.590  56.094 -59.920  1.00  0.00     0.048 C 
HETATM   11  C   UNL     1     -42.393  57.961 -58.251  1.00  0.00     0.020 A 
HETATM   12  C   UNL     1     -42.471  58.466 -56.943  1.00  0.00    -0.005 A 
HETATM   13  C   UNL     1     -42.868  57.630 -55.878  1.00  0.00     0.093 A 
HETATM   14  C   UNL     1     -42.157  59.801 -56.658  1.00  0.00     0.015 A 
HETATM   15  N   UNL     1     -42.943  58.091 -54.606  1.00  0.00    -0.258 NA
HETATM   16  C   UNL     1     -42.629  59.384 -54.371  1.00  0.00     0.117 A 
HETATM   17  C   UNL     1     -42.235  60.271 -55.353  1.00  0.00     0.020 A 
ENDBRANCH   1   7
BRANCH   3  18
HETATM   18  C   UNL     1     -40.823  54.509 -52.875  1.00  0.00     0.167 C 
BRANCH  18  19
HETATM   19  C   UNL     1     -40.461  53.058 -53.052  1.00  0.00     0.012 A 
HETATM   20  C   UNL     1     -39.825  52.368 -52.016  1.00  0.00     0.171 A 
HETATM   21  N   UNL     1     -39.433  51.075 -52.089  1.00  0.00    -0.237 NA
HETATM   22  C   UNL     1     -39.660  50.435 -53.253  1.00  0.00     0.119 A 
HETATM   23  C   UNL     1     -40.266  51.022 -54.348  1.00  0.00     0.020 A 
HETATM   24  C   UNL     1     -40.667  52.352 -54.244  1.00  0.00     0.014 A 
BRANCH  20  25
HETATM   25  O   UNL     1     -39.598  53.068 -50.845  1.00  0.00    -0.339 OA
HETATM   26  C   UNL     1     -40.493  52.714 -49.794  1.00  0.00     0.211 C 
ENDBRANCH  20  25
ENDBRANCH  18  19
ENDBRANCH   3  18
TORSDOF 4
ENDMDL
