MODEL 1
REMARK VINA RESULT:      -7.7      0.000      0.000
REMARK  5 active torsions:
REMARK  status: ('A' for Active; 'I' for Inactive)
REMARK    1  A    between atoms: C_6  and  N_7 
REMARK       I    between atoms: N_7  and  C_8 
REMARK    2  A    between atoms: C_8  and  C_9 
REMARK    3  A    between atoms: C_9  and  O_10 
REMARK    4  A    between atoms: O_10  and  C_11 
REMARK    5  A    between atoms: C_19  and  C_20 
ROOT
HETATM    1  C   UNL     1     -39.936  50.164 -54.714  1.00  0.00     0.073 C 
HETATM    2  C   UNL     1     -39.918  50.920 -53.437  1.00  0.00     0.065 A 
HETATM    3  N   UNL     1     -39.408  50.355 -52.335  1.00  0.00    -0.177 NA
HETATM    4  N   UNL     1     -39.530  51.310 -51.398  1.00  0.00    -0.262 N 
HETATM    5  H   UNL     1     -39.206  51.129 -50.451  1.00  0.00     0.191 HD
HETATM    6  C   UNL     1     -40.121  52.462 -51.850  1.00  0.00     0.137 A 
HETATM    7  C   UNL     1     -40.378  52.246 -53.189  1.00  0.00     0.046 A 
ENDROOT
BRANCH   6   8
HETATM    8  N   UNL     1     -40.375  53.560 -51.047  1.00  0.00    -0.309 N 
HETATM    9  C   UNL     1     -41.661  53.943 -50.704  1.00  0.00     0.252 C 
HETATM   10  O   UNL     1     -42.683  53.362 -51.070  1.00  0.00    -0.270 OA
HETATM   11  H   UNL     1     -39.593  54.133 -50.746  1.00  0.00     0.170 HD
BRANCH   9  12
HETATM   12  C   UNL     1     -41.715  55.147 -49.751  1.00  0.00     0.217 C 
HETATM   13  C   UNL     1     -40.849  54.853 -48.528  1.00  0.00     0.050 C 
BRANCH  12  14
HETATM   14  O   UNL     1     -41.195  56.331 -50.356  1.00  0.00    -0.337 OA
BRANCH  14  15
HETATM   15  C   UNL     1     -41.910  56.875 -51.388  1.00  0.00     0.070 A 
HETATM   16  C   UNL     1     -41.135  57.488 -52.376  1.00  0.00     0.037 A 
HETATM   17  C   UNL     1     -41.738  58.087 -53.483  1.00  0.00     0.003 A 
HETATM   18  C   UNL     1     -43.123  58.064 -53.615  1.00  0.00     0.000 A 
HETATM   19  C   UNL     1     -43.902  57.440 -52.642  1.00  0.00     0.003 A 
HETATM   20  C   UNL     1     -43.298  56.843 -51.532  1.00  0.00     0.037 A 
ENDBRANCH  14  15
ENDBRANCH  12  14
ENDBRANCH   9  12
ENDBRANCH   6   8
BRANCH   7  21
HETATM   21  C   UNL     1     -40.968  53.214 -54.093  1.00  0.00    -0.020 A 
HETATM   22  C   UNL     1     -42.328  53.135 -54.426  1.00  0.00     0.014 A 
HETATM   23  C   UNL     1     -42.901  54.081 -55.280  1.00  0.00     0.020 A 
HETATM   24  C   UNL     1     -42.116  55.109 -55.798  1.00  0.00     0.011 A 
HETATM   25 BR   UNL     1     -42.892  56.394 -56.946  1.00  0.00    -0.051 Br
HETATM   26  C   UNL     1     -40.763  55.200 -55.471  1.00  0.00     0.020 A 
HETATM   27  C   UNL     1     -40.191  54.252 -54.619  1.00  0.00     0.014 A 
ENDBRANCH   7  21
TORSDOF 5
ENDMDL
MODEL 2
REMARK VINA RESULT:      -7.7      3.019      4.946
REMARK  5 active torsions:
REMARK  status: ('A' for Active; 'I' for Inactive)
REMARK    1  A    between atoms: C_6  and  N_7 
REMARK       I    between atoms: N_7  and  C_8 
REMARK    2  A    between atoms: C_8  and  C_9 
REMARK    3  A    between atoms: C_9  and  O_10 
REMARK    4  A    between atoms: O_10  and  C_11 
REMARK    5  A    between atoms: C_19  and  C_20 
ROOT
HETATM    1  C   UNL     1     -43.126  56.194 -57.606  1.00  0.00     0.073 C 
HETATM    2  C   UNL     1     -42.643  56.921 -56.406  1.00  0.00     0.065 A 
HETATM    3  N   UNL     1     -42.863  58.237 -56.290  1.00  0.00    -0.177 NA
HETATM    4  N   UNL     1     -42.325  58.550 -55.099  1.00  0.00    -0.262 N 
HETATM    5  H   UNL     1     -42.364  59.510 -54.767  1.00  0.00     0.191 HD
HETATM    6  C   UNL     1     -41.744  57.488 -54.454  1.00  0.00     0.137 A 
HETATM    7  C   UNL     1     -41.945  56.399 -55.278  1.00  0.00     0.046 A 
ENDROOT
BRANCH   6   8
HETATM    8  N   UNL     1     -41.103  57.590 -53.233  1.00  0.00    -0.309 N 
HETATM    9  C   UNL     1     -41.730  58.100 -52.109  1.00  0.00     0.252 C 
HETATM   10  O   UNL     1     -42.892  58.507 -52.083  1.00  0.00    -0.270 OA
HETATM   11  H   UNL     1     -40.122  57.330 -53.175  1.00  0.00     0.170 HD
BRANCH   9  12
HETATM   12  C   UNL     1     -40.861  58.060 -50.843  1.00  0.00     0.217 C 
HETATM   13  C   UNL     1     -40.906  59.428 -50.166  1.00  0.00     0.050 C 
BRANCH  12  14
HETATM   14  O   UNL     1     -41.342  57.109 -49.893  1.00  0.00    -0.337 OA
BRANCH  14  15
HETATM   15  C   UNL     1     -41.316  55.790 -50.257  1.00  0.00     0.070 A 
HETATM   16  C   UNL     1     -40.076  55.164 -50.096  1.00  0.00     0.037 A 
HETATM   17  C   UNL     1     -39.910  53.819 -50.433  1.00  0.00     0.003 A 
HETATM   18  C   UNL     1     -40.988  53.088 -50.922  1.00  0.00     0.000 A 
HETATM   19  C   UNL     1     -42.232  53.701 -51.069  1.00  0.00     0.003 A 
HETATM   20  C   UNL     1     -42.398  55.048 -50.735  1.00  0.00     0.037 A 
ENDBRANCH  14  15
ENDBRANCH  12  14
ENDBRANCH   9  12
ENDBRANCH   6   8
BRANCH   7  21
HETATM   21  C   UNL     1     -41.531  55.041 -54.984  1.00  0.00    -0.020 A 
HETATM   22  C   UNL     1     -42.487  54.029 -54.821  1.00  0.00     0.014 A 
HETATM   23  C   UNL     1     -42.088  52.716 -54.558  1.00  0.00     0.020 A 
HETATM   24  C   UNL     1     -40.730  52.414 -54.463  1.00  0.00     0.011 A 
HETATM   25 BR   UNL     1     -40.188  50.637 -54.116  1.00  0.00    -0.051 Br
HETATM   26  C   UNL     1     -39.770  53.411 -54.626  1.00  0.00     0.020 A 
HETATM   27  C   UNL     1     -40.171  54.724 -54.886  1.00  0.00     0.014 A 
ENDBRANCH   7  21
TORSDOF 5
ENDMDL
MODEL 3
REMARK VINA RESULT:      -7.5      3.386      6.750
REMARK  5 active torsions:
REMARK  status: ('A' for Active; 'I' for Inactive)
REMARK    1  A    between atoms: C_6  and  N_7 
REMARK       I    between atoms: N_7  and  C_8 
REMARK    2  A    between atoms: C_8  and  C_9 
REMARK    3  A    between atoms: C_9  and  O_10 
REMARK    4  A    between atoms: O_10  and  C_11 
REMARK    5  A    between atoms: C_19  and  C_20 
ROOT
HETATM    1  C   UNL     1     -45.226  59.067 -50.587  1.00  0.00     0.073 C 
HETATM    2  C   UNL     1     -44.779  58.563 -51.909  1.00  0.00     0.065 A 
HETATM    3  N   UNL     1     -45.283  59.094 -53.031  1.00  0.00    -0.177 NA
HETATM    4  N   UNL     1     -44.650  58.430 -54.013  1.00  0.00    -0.262 N 
HETATM    5  H   UNL     1     -44.856  58.653 -54.983  1.00  0.00     0.191 HD
HETATM    6  C   UNL     1     -43.774  57.475 -53.565  1.00  0.00     0.137 A 
HETATM    7  C   UNL     1     -43.823  57.543 -52.187  1.00  0.00     0.046 A 
ENDROOT
BRANCH   6   8
HETATM    8  N   UNL     1     -43.042  56.652 -54.403  1.00  0.00    -0.309 N 
HETATM    9  C   UNL     1     -43.404  55.340 -54.652  1.00  0.00     0.252 C 
HETATM   10  O   UNL     1     -44.388  54.783 -54.163  1.00  0.00    -0.270 OA
HETATM   11  H   UNL     1     -42.181  57.011 -54.806  1.00  0.00     0.170 HD
BRANCH   9  12
HETATM   12  C   UNL     1     -42.494  54.627 -55.663  1.00  0.00     0.217 C 
HETATM   13  C   UNL     1     -42.609  55.326 -57.016  1.00  0.00     0.050 C 
BRANCH  12  14
HETATM   14  O   UNL     1     -41.121  54.683 -55.279  1.00  0.00    -0.337 OA
BRANCH  14  15
HETATM   15  C   UNL     1     -40.697  53.795 -54.328  1.00  0.00     0.070 A 
HETATM   16  C   UNL     1     -40.309  52.548 -54.824  1.00  0.00     0.037 A 
HETATM   17  C   UNL     1     -39.860  51.547 -53.961  1.00  0.00     0.003 A 
HETATM   18  C   UNL     1     -39.782  51.795 -52.593  1.00  0.00     0.000 A 
HETATM   19  C   UNL     1     -40.151  53.042 -52.092  1.00  0.00     0.003 A 
HETATM   20  C   UNL     1     -40.605  54.043 -52.957  1.00  0.00     0.037 A 
ENDBRANCH  14  15
ENDBRANCH  12  14
ENDBRANCH   9  12
ENDBRANCH   6   8
BRANCH   7  21
HETATM   21  C   UNL     1     -43.028  56.736 -51.283  1.00  0.00    -0.020 A 
HETATM   22  C   UNL     1     -43.511  55.505 -50.821  1.00  0.00     0.014 A 
HETATM   23  C   UNL     1     -42.735  54.718 -49.966  1.00  0.00     0.020 A 
HETATM   24  C   UNL     1     -41.472  55.161 -49.576  1.00  0.00     0.011 A 
HETATM   25 BR   UNL     1     -40.418  54.093 -48.427  1.00  0.00    -0.051 Br
HETATM   26  C   UNL     1     -40.979  56.382 -50.032  1.00  0.00     0.020 A 
HETATM   27  C   UNL     1     -41.757  57.169 -50.885  1.00  0.00     0.014 A 
ENDBRANCH   7  21
TORSDOF 5
ENDMDL
MODEL 4
REMARK VINA RESULT:      -7.5      3.279      5.414
REMARK  5 active torsions:
REMARK  status: ('A' for Active; 'I' for Inactive)
REMARK    1  A    between atoms: C_6  and  N_7 
REMARK       I    between atoms: N_7  and  C_8 
REMARK    2  A    between atoms: C_8  and  C_9 
REMARK    3  A    between atoms: C_9  and  O_10 
REMARK    4  A    between atoms: O_10  and  C_11 
REMARK    5  A    between atoms: C_19  and  C_20 
ROOT
HETATM    1  C   UNL     1     -42.861  56.179 -58.467  1.00  0.00     0.073 C 
HETATM    2  C   UNL     1     -43.437  56.721 -57.211  1.00  0.00     0.065 A 
HETATM    3  N   UNL     1     -44.300  57.744 -57.261  1.00  0.00    -0.177 NA
HETATM    4  N   UNL     1     -44.628  57.951 -55.974  1.00  0.00    -0.262 N 
HETATM    5  H   UNL     1     -45.287  58.688 -55.736  1.00  0.00     0.191 HD
HETATM    6  C   UNL     1     -43.990  57.114 -55.095  1.00  0.00     0.137 A 
HETATM    7  C   UNL     1     -43.209  56.284 -55.874  1.00  0.00     0.046 A 
ENDROOT
BRANCH   6   8
HETATM    8  N   UNL     1     -44.154  57.173 -53.722  1.00  0.00    -0.309 N 
HETATM    9  C   UNL     1     -43.268  57.849 -52.901  1.00  0.00     0.252 C 
HETATM   10  O   UNL     1     -42.268  58.449 -53.298  1.00  0.00    -0.270 OA
HETATM   11  H   UNL     1     -44.921  56.658 -53.302  1.00  0.00     0.170 HD
BRANCH   9  12
HETATM   12  C   UNL     1     -43.672  57.848 -51.419  1.00  0.00     0.217 C 
HETATM   13  C   UNL     1     -45.002  58.583 -51.266  1.00  0.00     0.050 C 
BRANCH  12  14
HETATM   14  O   UNL     1     -43.866  56.525 -50.919  1.00  0.00    -0.337 OA
BRANCH  14  15
HETATM   15  C   UNL     1     -42.750  55.758 -50.723  1.00  0.00     0.070 A 
HETATM   16  C   UNL     1     -42.862  54.439 -51.172  1.00  0.00     0.037 A 
HETATM   17  C   UNL     1     -41.798  53.547 -51.029  1.00  0.00     0.003 A 
HETATM   18  C   UNL     1     -40.608  53.974 -50.447  1.00  0.00     0.000 A 
HETATM   19  C   UNL     1     -40.483  55.293 -50.012  1.00  0.00     0.003 A 
HETATM   20  C   UNL     1     -41.550  56.185 -50.151  1.00  0.00     0.037 A 
ENDBRANCH  14  15
ENDBRANCH  12  14
ENDBRANCH   9  12
ENDBRANCH   6   8
BRANCH   7  21
HETATM   21  C   UNL     1     -42.380  55.205 -55.373  1.00  0.00    -0.020 A 
HETATM   22  C   UNL     1     -41.026  55.427 -55.087  1.00  0.00     0.014 A 
HETATM   23  C   UNL     1     -40.232  54.393 -54.584  1.00  0.00     0.020 A 
HETATM   24  C   UNL     1     -40.794  53.136 -54.362  1.00  0.00     0.011 A 
HETATM   25 BR   UNL     1     -39.724  51.739 -53.674  1.00  0.00    -0.051 Br
HETATM   26  C   UNL     1     -42.141  52.905 -54.640  1.00  0.00     0.020 A 
HETATM   27  C   UNL     1     -42.932  53.939 -55.146  1.00  0.00     0.014 A 
ENDBRANCH   7  21
TORSDOF 5
ENDMDL
MODEL 5
REMARK VINA RESULT:      -7.5      3.221      6.258
REMARK  5 active torsions:
REMARK  status: ('A' for Active; 'I' for Inactive)
REMARK    1  A    between atoms: C_6  and  N_7 
REMARK       I    between atoms: N_7  and  C_8 
REMARK    2  A    between atoms: C_8  and  C_9 
REMARK    3  A    between atoms: C_9  and  O_10 
REMARK    4  A    between atoms: O_10  and  C_11 
REMARK    5  A    between atoms: C_19  and  C_20 
ROOT
HETATM    1  C   UNL     1     -44.780  59.884 -54.388  1.00  0.00     0.073 C 
HETATM    2  C   UNL     1     -44.600  58.413 -54.297  1.00  0.00     0.065 A 
HETATM    3  N   UNL     1     -45.450  57.597 -54.934  1.00  0.00    -0.177 NA
HETATM    4  N   UNL     1     -44.981  56.368 -54.659  1.00  0.00    -0.262 N 
HETATM    5  H   UNL     1     -45.458  55.553 -55.037  1.00  0.00     0.191 HD
HETATM    6  C   UNL     1     -43.875  56.361 -53.849  1.00  0.00     0.137 A 
HETATM    7  C   UNL     1     -43.589  57.689 -53.602  1.00  0.00     0.046 A 
ENDROOT
BRANCH   6   8
HETATM    8  N   UNL     1     -43.249  55.206 -53.414  1.00  0.00    -0.309 N 
HETATM    9  C   UNL     1     -42.131  54.689 -54.046  1.00  0.00     0.252 C 
HETATM   10  O   UNL     1     -41.595  55.189 -55.036  1.00  0.00    -0.270 OA
HETATM   11  H   UNL     1     -43.658  54.695 -52.638  1.00  0.00     0.170 HD
BRANCH   9  12
HETATM   12  C   UNL     1     -41.555  53.440 -53.361  1.00  0.00     0.217 C 
HETATM   13  C   UNL     1     -41.159  52.425 -54.430  1.00  0.00     0.050 C 
BRANCH  12  14
HETATM   14  O   UNL     1     -40.378  53.737 -52.611  1.00  0.00    -0.337 OA
BRANCH  14  15
HETATM   15  C   UNL     1     -40.523  53.923 -51.263  1.00  0.00     0.070 A 
HETATM   16  C   UNL     1     -40.928  55.208 -50.891  1.00  0.00     0.037 A 
HETATM   17  C   UNL     1     -41.109  55.535 -49.546  1.00  0.00     0.003 A 
HETATM   18  C   UNL     1     -40.899  54.572 -48.563  1.00  0.00     0.000 A 
HETATM   19  C   UNL     1     -40.511  53.283 -48.928  1.00  0.00     0.003 A 
HETATM   20  C   UNL     1     -40.326  52.957 -50.274  1.00  0.00     0.037 A 
ENDBRANCH  14  15
ENDBRANCH  12  14
ENDBRANCH   9  12
ENDBRANCH   6   8
BRANCH   7  21
HETATM   21  C   UNL     1     -42.470  58.169 -52.815  1.00  0.00    -0.020 A 
HETATM   22  C   UNL     1     -41.197  58.285 -53.392  1.00  0.00     0.014 A 
HETATM   23  C   UNL     1     -40.123  58.769 -52.640  1.00  0.00     0.020 A 
HETATM   24  C   UNL     1     -40.322  59.141 -51.312  1.00  0.00     0.011 A 
HETATM   25 BR   UNL     1     -38.872  59.803 -50.297  1.00  0.00    -0.051 Br
HETATM   26  C   UNL     1     -41.584  59.033 -50.729  1.00  0.00     0.020 A 
HETATM   27  C   UNL     1     -42.656  58.548 -51.481  1.00  0.00     0.014 A 
ENDBRANCH   7  21
TORSDOF 5
ENDMDL
MODEL 6
REMARK VINA RESULT:      -7.4      3.172      5.690
REMARK  5 active torsions:
REMARK  status: ('A' for Active; 'I' for Inactive)
REMARK    1  A    between atoms: C_6  and  N_7 
REMARK       I    between atoms: N_7  and  C_8 
REMARK    2  A    between atoms: C_8  and  C_9 
REMARK    3  A    between atoms: C_9  and  O_10 
REMARK    4  A    between atoms: O_10  and  C_11 
REMARK    5  A    between atoms: C_19  and  C_20 
ROOT
HETATM    1  C   UNL     1     -43.424  58.564 -56.915  1.00  0.00     0.073 C 
HETATM    2  C   UNL     1     -43.219  57.127 -56.603  1.00  0.00     0.065 A 
HETATM    3  N   UNL     1     -43.461  56.201 -57.539  1.00  0.00    -0.177 NA
HETATM    4  N   UNL     1     -43.151  55.043 -56.932  1.00  0.00    -0.262 N 
HETATM    5  H   UNL     1     -43.247  54.168 -57.441  1.00  0.00     0.191 HD
HETATM    6  C   UNL     1     -42.741  55.187 -55.632  1.00  0.00     0.137 A 
HETATM    7  C   UNL     1     -42.761  56.545 -55.385  1.00  0.00     0.046 A 
ENDROOT
BRANCH   6   8
HETATM    8  N   UNL     1     -42.406  54.125 -54.810  1.00  0.00    -0.309 N 
HETATM    9  C   UNL     1     -41.094  53.726 -54.616  1.00  0.00     0.252 C 
HETATM   10  O   UNL     1     -40.118  54.261 -55.144  1.00  0.00    -0.270 OA
HETATM   11  H   UNL     1     -43.153  53.589 -54.379  1.00  0.00     0.170 HD
BRANCH   9  12
HETATM   12  C   UNL     1     -40.939  52.572 -53.615  1.00  0.00     0.217 C 
HETATM   13  C   UNL     1     -40.380  51.352 -54.344  1.00  0.00     0.050 C 
BRANCH  12  14
HETATM   14  O   UNL     1     -40.021  52.891 -52.569  1.00  0.00    -0.337 OA
BRANCH  14  15
HETATM   15  C   UNL     1     -40.504  53.599 -51.503  1.00  0.00     0.070 A 
HETATM   16  C   UNL     1     -39.629  53.690 -50.417  1.00  0.00     0.037 A 
HETATM   17  C   UNL     1     -39.998  54.382 -49.262  1.00  0.00     0.003 A 
HETATM   18  C   UNL     1     -41.243  55.000 -49.192  1.00  0.00     0.000 A 
HETATM   19  C   UNL     1     -42.115  54.928 -50.278  1.00  0.00     0.003 A 
HETATM   20  C   UNL     1     -41.747  54.232 -51.432  1.00  0.00     0.037 A 
ENDBRANCH  14  15
ENDBRANCH  12  14
ENDBRANCH   9  12
ENDBRANCH   6   8
BRANCH   7  21
HETATM   21  C   UNL     1     -42.364  57.174 -54.141  1.00  0.00    -0.020 A 
HETATM   22  C   UNL     1     -41.027  57.534 -53.924  1.00  0.00     0.014 A 
HETATM   23  C   UNL     1     -40.648  58.160 -52.734  1.00  0.00     0.020 A 
HETATM   24  C   UNL     1     -41.609  58.429 -51.760  1.00  0.00     0.011 A 
HETATM   25 BR   UNL     1     -41.100  59.283 -50.153  1.00  0.00    -0.051 Br
HETATM   26  C   UNL     1     -42.942  58.079 -51.966  1.00  0.00     0.020 A 
HETATM   27  C   UNL     1     -43.319  57.451 -53.155  1.00  0.00     0.014 A 
ENDBRANCH   7  21
TORSDOF 5
ENDMDL
MODEL 7
REMARK VINA RESULT:      -7.3      3.205      5.537
REMARK  5 active torsions:
REMARK  status: ('A' for Active; 'I' for Inactive)
REMARK    1  A    between atoms: C_6  and  N_7 
REMARK       I    between atoms: N_7  and  C_8 
REMARK    2  A    between atoms: C_8  and  C_9 
REMARK    3  A    between atoms: C_9  and  O_10 
REMARK    4  A    between atoms: O_10  and  C_11 
REMARK    5  A    between atoms: C_19  and  C_20 
ROOT
HETATM    1  C   UNL     1     -40.316  54.554 -49.109  1.00  0.00     0.073 C 
HETATM    2  C   UNL     1     -40.971  55.329 -50.192  1.00  0.00     0.065 A 
HETATM    3  N   UNL     1     -41.460  56.549 -49.936  1.00  0.00    -0.177 NA
HETATM    4  N   UNL     1     -41.946  56.956 -51.121  1.00  0.00    -0.262 N 
HETATM    5  H   UNL     1     -42.378  57.873 -51.199  1.00  0.00     0.191 HD
HETATM    6  C   UNL     1     -41.809  56.033 -52.126  1.00  0.00     0.137 A 
HETATM    7  C   UNL     1     -41.161  54.956 -51.554  1.00  0.00     0.046 A 
ENDROOT
BRANCH   6   8
HETATM    8  N   UNL     1     -42.268  56.229 -53.416  1.00  0.00    -0.309 N 
HETATM    9  C   UNL     1     -43.535  56.718 -53.683  1.00  0.00     0.252 C 
HETATM   10  O   UNL     1     -44.363  57.017 -52.822  1.00  0.00    -0.270 OA
HETATM   11  H   UNL     1     -41.672  55.954 -54.191  1.00  0.00     0.170 HD
BRANCH   9  12
HETATM   12  C   UNL     1     -43.818  56.924 -55.179  1.00  0.00     0.217 C 
HETATM   13  C   UNL     1     -44.879  58.010 -55.340  1.00  0.00     0.050 C 
BRANCH  12  14
HETATM   14  O   UNL     1     -42.659  57.364 -55.886  1.00  0.00    -0.337 OA
BRANCH  14  15
HETATM   15  C   UNL     1     -42.616  57.128 -57.233  1.00  0.00     0.070 A 
HETATM   16  C   UNL     1     -42.076  58.169 -57.992  1.00  0.00     0.037 A 
HETATM   17  C   UNL     1     -41.977  58.061 -59.381  1.00  0.00     0.003 A 
HETATM   18  C   UNL     1     -42.408  56.901 -60.018  1.00  0.00     0.000 A 
HETATM   19  C   UNL     1     -42.933  55.851 -59.266  1.00  0.00     0.003 A 
HETATM   20  C   UNL     1     -43.035  55.961 -57.876  1.00  0.00     0.037 A 
ENDBRANCH  14  15
ENDBRANCH  12  14
ENDBRANCH   9  12
ENDBRANCH   6   8
BRANCH   7  21
HETATM   21  C   UNL     1     -40.768  53.749 -52.255  1.00  0.00    -0.020 A 
HETATM   22  C   UNL     1     -39.920  52.818 -51.641  1.00  0.00     0.014 A 
HETATM   23  C   UNL     1     -39.558  51.645 -52.308  1.00  0.00     0.020 A 
HETATM   24  C   UNL     1     -40.049  51.401 -53.590  1.00  0.00     0.011 A 
HETATM   25 BR   UNL     1     -39.568  49.811 -54.490  1.00  0.00    -0.051 Br
HETATM   26  C   UNL     1     -40.896  52.318 -54.210  1.00  0.00     0.020 A 
HETATM   27  C   UNL     1     -41.255  53.492 -53.542  1.00  0.00     0.014 A 
ENDBRANCH   7  21
TORSDOF 5
ENDMDL
MODEL 8
REMARK VINA RESULT:      -7.2      3.240      6.882
REMARK  5 active torsions:
REMARK  status: ('A' for Active; 'I' for Inactive)
REMARK    1  A    between atoms: C_6  and  N_7 
REMARK       I    between atoms: N_7  and  C_8 
REMARK    2  A    between atoms: C_8  and  C_9 
REMARK    3  A    between atoms: C_9  and  O_10 
REMARK    4  A    between atoms: O_10  and  C_11 
REMARK    5  A    between atoms: C_19  and  C_20 
ROOT
HETATM    1  C   UNL     1     -45.126  59.701 -53.903  1.00  0.00     0.073 C 
HETATM    2  C   UNL     1     -44.570  58.420 -54.407  1.00  0.00     0.065 A 
HETATM    3  N   UNL     1     -45.258  57.701 -55.302  1.00  0.00    -0.177 NA
HETATM    4  N   UNL     1     -44.464  56.645 -55.546  1.00  0.00    -0.262 N 
HETATM    5  H   UNL     1     -44.762  55.934 -56.209  1.00  0.00     0.191 HD
HETATM    6  C   UNL     1     -43.298  56.646 -54.823  1.00  0.00     0.137 A 
HETATM    7  C   UNL     1     -43.329  57.804 -54.073  1.00  0.00     0.046 A 
ENDROOT
BRANCH   6   8
HETATM    8  N   UNL     1     -42.351  55.640 -54.893  1.00  0.00    -0.309 N 
HETATM    9  C   UNL     1     -42.282  54.624 -53.954  1.00  0.00     0.252 C 
HETATM   10  O   UNL     1     -43.034  54.517 -52.985  1.00  0.00    -0.270 OA
HETATM   11  H   UNL     1     -41.653  55.680 -55.629  1.00  0.00     0.170 HD
BRANCH   9  12
HETATM   12  C   UNL     1     -41.202  53.574 -54.257  1.00  0.00     0.217 C 
HETATM   13  C   UNL     1     -40.245  54.133 -55.307  1.00  0.00     0.050 C 
BRANCH  12  14
HETATM   14  O   UNL     1     -40.420  53.263 -53.104  1.00  0.00    -0.337 OA
BRANCH  14  15
HETATM   15  C   UNL     1     -40.092  51.950 -52.902  1.00  0.00     0.070 A 
HETATM   16  C   UNL     1     -39.898  51.595 -51.565  1.00  0.00     0.037 A 
HETATM   17  C   UNL     1     -39.555  50.287 -51.219  1.00  0.00     0.003 A 
HETATM   18  C   UNL     1     -39.416  49.321 -52.211  1.00  0.00     0.000 A 
HETATM   19  C   UNL     1     -39.624  49.664 -53.547  1.00  0.00     0.003 A 
HETATM   20  C   UNL     1     -39.964  50.975 -53.893  1.00  0.00     0.037 A 
ENDBRANCH  14  15
ENDBRANCH  12  14
ENDBRANCH   9  12
ENDBRANCH   6   8
BRANCH   7  21
HETATM   21  C   UNL     1     -42.277  58.247 -53.178  1.00  0.00    -0.020 A 
HETATM   22  C   UNL     1     -42.499  58.299 -51.795  1.00  0.00     0.014 A 
HETATM   23  C   UNL     1     -41.479  58.705 -50.931  1.00  0.00     0.020 A 
HETATM   24  C   UNL     1     -40.234  59.056 -51.450  1.00  0.00     0.011 A 
HETATM   25 BR   UNL     1     -38.851  59.597 -50.282  1.00  0.00    -0.051 Br
HETATM   26  C   UNL     1     -40.000  59.005 -52.824  1.00  0.00     0.020 A 
HETATM   27  C   UNL     1     -41.022  58.601 -53.686  1.00  0.00     0.014 A 
ENDBRANCH   7  21
TORSDOF 5
ENDMDL
MODEL 9
REMARK VINA RESULT:      -7.2      4.386      6.993
REMARK  5 active torsions:
REMARK  status: ('A' for Active; 'I' for Inactive)
REMARK    1  A    between atoms: C_6  and  N_7 
REMARK       I    between atoms: N_7  and  C_8 
REMARK    2  A    between atoms: C_8  and  C_9 
REMARK    3  A    between atoms: C_9  and  O_10 
REMARK    4  A    between atoms: O_10  and  C_11 
REMARK    5  A    between atoms: C_19  and  C_20 
ROOT
HETATM    1  C   UNL     1     -40.892  57.454 -50.738  1.00  0.00     0.073 C 
HETATM    2  C   UNL     1     -41.471  57.865 -52.041  1.00  0.00     0.065 A 
HETATM    3  N   UNL     1     -41.894  59.123 -52.216  1.00  0.00    -0.177 NA
HETATM    4  N   UNL     1     -42.323  59.144 -53.489  1.00  0.00    -0.262 N 
HETATM    5  H   UNL     1     -42.698  60.005 -53.879  1.00  0.00     0.191 HD
HETATM    6  C   UNL     1     -42.214  57.939 -54.134  1.00  0.00     0.137 A 
HETATM    7  C   UNL     1     -41.646  57.078 -53.216  1.00  0.00     0.046 A 
ENDROOT
BRANCH   6   8
HETATM    8  N   UNL     1     -42.626  57.726 -55.438  1.00  0.00    -0.309 N 
HETATM    9  C   UNL     1     -42.355  58.626 -56.454  1.00  0.00     0.252 C 
HETATM   10  O   UNL     1     -41.739  59.682 -56.306  1.00  0.00    -0.270 OA
HETATM   11  H   UNL     1     -43.191  56.907 -55.641  1.00  0.00     0.170 HD
BRANCH   9  12
HETATM   12  C   UNL     1     -42.843  58.164 -57.836  1.00  0.00     0.217 C 
HETATM   13  C   UNL     1     -41.746  58.430 -58.865  1.00  0.00     0.050 C 
BRANCH  12  14
HETATM   14  O   UNL     1     -43.113  56.763 -57.867  1.00  0.00    -0.337 OA
BRANCH  14  15
HETATM   15  C   UNL     1     -44.002  56.315 -58.806  1.00  0.00     0.070 A 
HETATM   16  C   UNL     1     -45.176  57.067 -58.904  1.00  0.00     0.037 A 
HETATM   17  C   UNL     1     -46.170  56.716 -59.820  1.00  0.00     0.003 A 
HETATM   18  C   UNL     1     -45.988  55.617 -60.654  1.00  0.00     0.000 A 
HETATM   19  C   UNL     1     -44.813  54.872 -60.573  1.00  0.00     0.003 A 
HETATM   20  C   UNL     1     -43.819  55.221 -59.654  1.00  0.00     0.037 A 
ENDBRANCH  14  15
ENDBRANCH  12  14
ENDBRANCH   9  12
ENDBRANCH   6   8
BRANCH   7  21
HETATM   21  C   UNL     1     -41.306  55.692 -53.472  1.00  0.00    -0.020 A 
HETATM   22  C   UNL     1     -41.863  54.671 -52.690  1.00  0.00     0.014 A 
HETATM   23  C   UNL     1     -41.552  53.333 -52.949  1.00  0.00     0.020 A 
HETATM   24  C   UNL     1     -40.686  53.017 -53.995  1.00  0.00     0.011 A 
HETATM   25 BR   UNL     1     -40.271  51.208 -54.353  1.00  0.00    -0.051 Br
HETATM   26  C   UNL     1     -40.129  54.024 -54.782  1.00  0.00     0.020 A 
HETATM   27  C   UNL     1     -40.439  55.360 -54.519  1.00  0.00     0.014 A 
ENDBRANCH   7  21
TORSDOF 5
ENDMDL
MODEL 10
REMARK VINA RESULT:      -7.1      2.819      6.614
REMARK  5 active torsions:
REMARK  status: ('A' for Active; 'I' for Inactive)
REMARK    1  A    between atoms: C_6  and  N_7 
REMARK       I    between atoms: N_7  and  C_8 
REMARK    2  A    between atoms: C_8  and  C_9 
REMARK    3  A    between atoms: C_9  and  O_10 
REMARK    4  A    between atoms: O_10  and  C_11 
REMARK    5  A    between atoms: C_19  and  C_20 
ROOT
HETATM    1  C   UNL     1     -45.883  59.362 -51.334  1.00  0.00     0.073 C 
HETATM    2  C   UNL     1     -45.027  58.172 -51.570  1.00  0.00     0.065 A 
HETATM    3  N   UNL     1     -44.858  57.269 -50.594  1.00  0.00    -0.177 NA
HETATM    4  N   UNL     1     -44.065  56.339 -51.152  1.00  0.00    -0.262 N 
HETATM    5  H   UNL     1     -43.785  55.526 -50.608  1.00  0.00     0.191 HD
HETATM    6  C   UNL     1     -43.698  56.620 -52.443  1.00  0.00     0.137 A 
HETATM    7  C   UNL     1     -44.322  57.811 -52.754  1.00  0.00     0.046 A 
ENDROOT
BRANCH   6   8
HETATM    8  N   UNL     1     -42.860  55.816 -53.195  1.00  0.00    -0.309 N 
HETATM    9  C   UNL     1     -42.694  54.467 -52.928  1.00  0.00     0.252 C 
HETATM   10  O   UNL     1     -43.259  53.863 -52.015  1.00  0.00    -0.270 OA
HETATM   11  H   UNL     1     -42.310  56.244 -53.933  1.00  0.00     0.170 HD
BRANCH   9  12
HETATM   12  C   UNL     1     -41.773  53.747 -53.924  1.00  0.00     0.217 C 
HETATM   13  C   UNL     1     -41.560  54.643 -55.142  1.00  0.00     0.050 C 
BRANCH  12  14
HETATM   14  O   UNL     1     -40.484  53.487 -53.368  1.00  0.00    -0.337 OA
BRANCH  14  15
HETATM   15  C   UNL     1     -40.156  52.180 -53.127  1.00  0.00     0.070 A 
HETATM   16  C   UNL     1     -40.219  51.346 -54.247  1.00  0.00     0.037 A 
HETATM   17  C   UNL     1     -39.913  49.988 -54.140  1.00  0.00     0.003 A 
HETATM   18  C   UNL     1     -39.529  49.458 -52.912  1.00  0.00     0.000 A 
HETATM   19  C   UNL     1     -39.447  50.287 -51.794  1.00  0.00     0.003 A 
HETATM   20  C   UNL     1     -39.757  51.646 -51.900  1.00  0.00     0.037 A 
ENDBRANCH  14  15
ENDBRANCH  12  14
ENDBRANCH   9  12
ENDBRANCH   6   8
BRANCH   7  21
HETATM   21  C   UNL     1     -44.252  58.480 -54.039  1.00  0.00    -0.020 A 
HETATM   22  C   UNL     1     -43.309  59.494 -54.258  1.00  0.00     0.014 A 
HETATM   23  C   UNL     1     -43.227  60.124 -55.503  1.00  0.00     0.020 A 
HETATM   24  C   UNL     1     -44.084  59.735 -56.531  1.00  0.00     0.011 A 
HETATM   25 BR   UNL     1     -43.968  60.580 -58.217  1.00  0.00    -0.051 Br
HETATM   26  C   UNL     1     -45.023  58.725 -56.326  1.00  0.00     0.020 A 
HETATM   27  C   UNL     1     -45.106  58.099 -55.080  1.00  0.00     0.014 A 
ENDBRANCH   7  21
TORSDOF 5
ENDMDL
