MODEL 1
REMARK VINA RESULT:      -8.5      0.000      0.000
REMARK  3 active torsions:
REMARK  status: ('A' for Active; 'I' for Inactive)
REMARK       I    between atoms: C_2  and  N_3 
REMARK    1  A    between atoms: N_3  and  N_4 
REMARK       I    between atoms: N_4  and  C_5 
REMARK    2  A    between atoms: C_5  and  C_6 
REMARK    3  A    between atoms: C_11  and  C_12 
ROOT
HETATM    1  C   UNL     1     -41.711  55.048 -51.955  1.00  0.00     0.115 A 
HETATM    2  N   UNL     1     -41.093  54.204 -51.053  1.00  0.00    -0.350 N 
HETATM    3  H   UNL     1     -40.994  54.396 -50.065  1.00  0.00     0.166 HD
HETATM    4  C   UNL     1     -40.578  53.093 -51.672  1.00  0.00     0.044 A 
HETATM    5  C   UNL     1     -40.855  53.219 -53.030  1.00  0.00     0.006 A 
HETATM    6  C   UNL     1     -41.558  54.457 -53.207  1.00  0.00     0.019 A 
HETATM    7  C   UNL     1     -39.886  52.001 -51.131  1.00  0.00     0.032 A 
HETATM    8  C   UNL     1     -39.472  50.999 -52.014  1.00  0.00     0.026 A 
HETATM    9  C   UNL     1     -39.744  51.094 -53.376  1.00  0.00     0.035 A 
HETATM   10 CL   UNL     1     -39.220  49.841 -54.434  1.00  0.00    -0.084 Cl
HETATM   11  C   UNL     1     -40.434  52.191 -53.900  1.00  0.00     0.038 A 
ENDROOT
BRANCH   1  12
HETATM   12  C   UNL     1     -42.314  56.311 -51.578  1.00  0.00     0.287 C 
HETATM   13  N   UNL     1     -41.421  57.230 -51.048  1.00  0.00    -0.262 N 
HETATM   14  H   UNL     1     -40.538  56.933 -50.637  1.00  0.00     0.190 HD
HETATM   15  O   UNL     1     -43.507  56.588 -51.691  1.00  0.00    -0.264 OA
BRANCH  13  16
HETATM   16  N   UNL     1     -41.940  58.426 -50.524  1.00  0.00    -0.268 N 
HETATM   17  C   UNL     1     -41.607  59.595 -51.172  1.00  0.00     0.232 C 
HETATM   18  C   UNL     1     -42.069  60.847 -50.482  1.00  0.00     0.119 C 
HETATM   19  O   UNL     1     -41.002  59.608 -52.242  1.00  0.00    -0.272 OA
HETATM   20  H   UNL     1     -42.216  58.398 -49.541  1.00  0.00     0.190 HD
ENDBRANCH  13  16
ENDBRANCH   1  12
BRANCH   6  21
HETATM   21  C   UNL     1     -42.047  55.023 -54.457  1.00  0.00    -0.023 A 
HETATM   22  C   UNL     1     -42.853  54.272 -55.320  1.00  0.00     0.012 A 
HETATM   23  C   UNL     1     -43.286  54.817 -56.531  1.00  0.00     0.001 A 
HETATM   24  C   UNL     1     -42.908  56.110 -56.890  1.00  0.00     0.000 A 
HETATM   25  C   UNL     1     -42.100  56.863 -56.039  1.00  0.00     0.001 A 
HETATM   26  C   UNL     1     -41.670  56.321 -54.826  1.00  0.00     0.012 A 
ENDBRANCH   6  21
TORSDOF 3
ENDMDL
MODEL 2
REMARK VINA RESULT:      -8.3      1.637      2.025
REMARK  3 active torsions:
REMARK  status: ('A' for Active; 'I' for Inactive)
REMARK       I    between atoms: C_2  and  N_3 
REMARK    1  A    between atoms: N_3  and  N_4 
REMARK       I    between atoms: N_4  and  C_5 
REMARK    2  A    between atoms: C_5  and  C_6 
REMARK    3  A    between atoms: C_11  and  C_12 
ROOT
HETATM    1  C   UNL     1     -41.674  54.733 -51.405  1.00  0.00     0.115 A 
HETATM    2  N   UNL     1     -41.112  53.781 -50.577  1.00  0.00    -0.350 N 
HETATM    3  H   UNL     1     -41.061  53.857 -49.570  1.00  0.00     0.166 HD
HETATM    4  C   UNL     1     -40.576  52.740 -51.294  1.00  0.00     0.044 A 
HETATM    5  C   UNL     1     -40.783  53.027 -52.641  1.00  0.00     0.006 A 
HETATM    6  C   UNL     1     -41.463  54.288 -52.708  1.00  0.00     0.019 A 
HETATM    7  C   UNL     1     -39.925  51.583 -50.850  1.00  0.00     0.032 A 
HETATM    8  C   UNL     1     -39.476  50.683 -51.820  1.00  0.00     0.026 A 
HETATM    9  C   UNL     1     -39.677  50.938 -53.174  1.00  0.00     0.035 A 
HETATM   10 CL   UNL     1     -39.113  49.807 -54.343  1.00  0.00    -0.084 Cl
HETATM   11  C   UNL     1     -40.328  52.099 -53.601  1.00  0.00     0.038 A 
ENDROOT
BRANCH   1  12
HETATM   12  C   UNL     1     -42.283  55.954 -50.915  1.00  0.00     0.287 C 
HETATM   13  N   UNL     1     -43.669  55.954 -50.957  1.00  0.00    -0.262 N 
HETATM   14  H   UNL     1     -44.179  55.335 -51.585  1.00  0.00     0.190 HD
HETATM   15  O   UNL     1     -41.668  56.932 -50.495  1.00  0.00    -0.264 OA
BRANCH  13  16
HETATM   16  N   UNL     1     -44.338  57.147 -50.636  1.00  0.00    -0.268 N 
HETATM   17  C   UNL     1     -44.809  57.907 -51.683  1.00  0.00     0.232 C 
HETATM   18  C   UNL     1     -45.382  59.237 -51.284  1.00  0.00     0.119 C 
HETATM   19  O   UNL     1     -44.783  57.515 -52.849  1.00  0.00    -0.272 OA
HETATM   20  H   UNL     1     -44.128  57.540 -49.718  1.00  0.00     0.190 HD
ENDBRANCH  13  16
ENDBRANCH   1  12
BRANCH   6  21
HETATM   21  C   UNL     1     -41.882  55.002 -53.906  1.00  0.00    -0.023 A 
HETATM   22  C   UNL     1     -41.405  56.288 -54.181  1.00  0.00     0.012 A 
HETATM   23  C   UNL     1     -41.842  56.974 -55.317  1.00  0.00     0.001 A 
HETATM   24  C   UNL     1     -42.765  56.382 -56.178  1.00  0.00     0.000 A 
HETATM   25  C   UNL     1     -43.250  55.103 -55.909  1.00  0.00     0.001 A 
HETATM   26  C   UNL     1     -42.810  54.415 -54.776  1.00  0.00     0.012 A 
ENDBRANCH   6  21
TORSDOF 3
ENDMDL
MODEL 3
REMARK VINA RESULT:      -8.0      3.484      5.313
REMARK  3 active torsions:
REMARK  status: ('A' for Active; 'I' for Inactive)
REMARK       I    between atoms: C_2  and  N_3 
REMARK    1  A    between atoms: N_3  and  N_4 
REMARK       I    between atoms: N_4  and  C_5 
REMARK    2  A    between atoms: C_5  and  C_6 
REMARK    3  A    between atoms: C_11  and  C_12 
ROOT
HETATM    1  C   UNL     1     -41.963  55.672 -55.302  1.00  0.00     0.115 A 
HETATM    2  N   UNL     1     -41.318  54.510 -55.678  1.00  0.00    -0.350 N 
HETATM    3  H   UNL     1     -41.196  54.208 -56.635  1.00  0.00     0.166 HD
HETATM    4  C   UNL     1     -40.910  53.783 -54.588  1.00  0.00     0.044 A 
HETATM    5  C   UNL     1     -41.315  54.487 -53.456  1.00  0.00     0.006 A 
HETATM    6  C   UNL     1     -41.989  55.669 -53.910  1.00  0.00     0.019 A 
HETATM    7  C   UNL     1     -40.227  52.563 -54.525  1.00  0.00     0.032 A 
HETATM    8  C   UNL     1     -39.940  52.049 -53.256  1.00  0.00     0.026 A 
HETATM    9  C   UNL     1     -40.323  52.735 -52.108  1.00  0.00     0.035 A 
HETATM   10 CL   UNL     1     -39.953  52.074 -50.562  1.00  0.00    -0.084 Cl
HETATM   11  C   UNL     1     -41.007  53.952 -52.187  1.00  0.00     0.038 A 
ENDROOT
BRANCH   1  12
HETATM   12  C   UNL     1     -42.526  56.613 -56.252  1.00  0.00     0.287 C 
HETATM   13  N   UNL     1     -43.605  56.118 -56.968  1.00  0.00    -0.262 N 
HETATM   14  H   UNL     1     -43.751  55.116 -57.080  1.00  0.00     0.190 HD
HETATM   15  O   UNL     1     -42.114  57.754 -56.446  1.00  0.00    -0.264 OA
BRANCH  13  16
HETATM   16  N   UNL     1     -44.122  56.907 -58.009  1.00  0.00    -0.268 N 
HETATM   17  C   UNL     1     -43.840  56.514 -59.299  1.00  0.00     0.232 C 
HETATM   18  C   UNL     1     -44.293  57.475 -60.361  1.00  0.00     0.119 C 
HETATM   19  O   UNL     1     -43.284  55.448 -59.558  1.00  0.00    -0.272 OA
HETATM   20  H   UNL     1     -44.352  57.871 -57.763  1.00  0.00     0.190 HD
ENDBRANCH  13  16
ENDBRANCH   1  12
BRANCH   6  21
HETATM   21  C   UNL     1     -42.595  56.708 -53.089  1.00  0.00    -0.023 A 
HETATM   22  C   UNL     1     -41.813  57.705 -52.496  1.00  0.00     0.012 A 
HETATM   23  C   UNL     1     -42.405  58.675 -51.683  1.00  0.00     0.001 A 
HETATM   24  C   UNL     1     -43.780  58.647 -51.451  1.00  0.00     0.000 A 
HETATM   25  C   UNL     1     -44.566  57.654 -52.033  1.00  0.00     0.001 A 
HETATM   26  C   UNL     1     -43.975  56.686 -52.849  1.00  0.00     0.012 A 
ENDBRANCH   6  21
TORSDOF 3
ENDMDL
MODEL 4
REMARK VINA RESULT:      -7.9      3.958      5.390
REMARK  3 active torsions:
REMARK  status: ('A' for Active; 'I' for Inactive)
REMARK       I    between atoms: C_2  and  N_3 
REMARK    1  A    between atoms: N_3  and  N_4 
REMARK       I    between atoms: N_4  and  C_5 
REMARK    2  A    between atoms: C_5  and  C_6 
REMARK    3  A    between atoms: C_11  and  C_12 
ROOT
HETATM    1  C   UNL     1     -44.321  56.939 -55.160  1.00  0.00     0.115 A 
HETATM    2  N   UNL     1     -44.336  56.376 -53.899  1.00  0.00    -0.350 N 
HETATM    3  H   UNL     1     -44.938  56.677 -53.145  1.00  0.00     0.166 HD
HETATM    4  C   UNL     1     -43.390  55.390 -53.774  1.00  0.00     0.044 A 
HETATM    5  C   UNL     1     -42.721  55.313 -54.993  1.00  0.00     0.006 A 
HETATM    6  C   UNL     1     -43.301  56.298 -55.859  1.00  0.00     0.019 A 
HETATM    7  C   UNL     1     -43.078  54.575 -52.679  1.00  0.00     0.032 A 
HETATM    8  C   UNL     1     -42.049  53.643 -52.841  1.00  0.00     0.026 A 
HETATM    9  C   UNL     1     -41.369  53.537 -54.051  1.00  0.00     0.035 A 
HETATM   10 CL   UNL     1     -40.108  52.376 -54.216  1.00  0.00    -0.084 Cl
HETATM   11  C   UNL     1     -41.691  54.358 -55.135  1.00  0.00     0.038 A 
ENDROOT
BRANCH   1  12
HETATM   12  C   UNL     1     -45.195  58.026 -55.557  1.00  0.00     0.287 C 
HETATM   13  N   UNL     1     -46.254  57.637 -56.362  1.00  0.00    -0.262 N 
HETATM   14  H   UNL     1     -46.218  56.775 -56.904  1.00  0.00     0.190 HD
HETATM   15  O   UNL     1     -45.048  59.204 -55.238  1.00  0.00    -0.264 OA
BRANCH  13  16
HETATM   16  N   UNL     1     -47.069  58.642 -56.910  1.00  0.00    -0.268 N 
HETATM   17  C   UNL     1     -47.207  58.665 -58.280  1.00  0.00     0.232 C 
HETATM   18  C   UNL     1     -47.967  59.846 -58.814  1.00  0.00     0.119 C 
HETATM   19  O   UNL     1     -46.764  57.775 -59.004  1.00  0.00    -0.272 OA
HETATM   20  H   UNL     1     -47.207  59.469 -56.326  1.00  0.00     0.190 HD
ENDBRANCH  13  16
ENDBRANCH   1  12
BRANCH   6  21
HETATM   21  C   UNL     1     -42.922  56.597 -57.233  1.00  0.00    -0.023 A 
HETATM   22  C   UNL     1     -42.287  57.801 -57.559  1.00  0.00     0.012 A 
HETATM   23  C   UNL     1     -41.961  58.088 -58.887  1.00  0.00     0.001 A 
HETATM   24  C   UNL     1     -42.277  57.179 -59.896  1.00  0.00     0.000 A 
HETATM   25  C   UNL     1     -42.915  55.981 -59.581  1.00  0.00     0.001 A 
HETATM   26  C   UNL     1     -43.238  55.691 -58.254  1.00  0.00     0.012 A 
ENDBRANCH   6  21
TORSDOF 3
ENDMDL
MODEL 5
REMARK VINA RESULT:      -7.7      3.080      4.966
REMARK  3 active torsions:
REMARK  status: ('A' for Active; 'I' for Inactive)
REMARK       I    between atoms: C_2  and  N_3 
REMARK    1  A    between atoms: N_3  and  N_4 
REMARK       I    between atoms: N_4  and  C_5 
REMARK    2  A    between atoms: C_5  and  C_6 
REMARK    3  A    between atoms: C_11  and  C_12 
ROOT
HETATM    1  C   UNL     1     -41.276  54.693 -54.814  1.00  0.00     0.115 A 
HETATM    2  N   UNL     1     -40.678  53.572 -55.357  1.00  0.00    -0.350 N 
HETATM    3  H   UNL     1     -40.544  53.418 -56.348  1.00  0.00     0.166 HD
HETATM    4  C   UNL     1     -40.338  52.662 -54.389  1.00  0.00     0.044 A 
HETATM    5  C   UNL     1     -40.739  53.198 -53.168  1.00  0.00     0.006 A 
HETATM    6  C   UNL     1     -41.341  54.472 -53.441  1.00  0.00     0.019 A 
HETATM    7  C   UNL     1     -39.717  51.412 -54.507  1.00  0.00     0.032 A 
HETATM    8  C   UNL     1     -39.492  50.690 -53.331  1.00  0.00     0.026 A 
HETATM    9  C   UNL     1     -39.873  51.206 -52.095  1.00  0.00     0.035 A 
HETATM   10 CL   UNL     1     -39.579  50.291 -50.667  1.00  0.00    -0.084 Cl
HETATM   11  C   UNL     1     -40.493  52.454 -51.994  1.00  0.00     0.038 A 
ENDROOT
BRANCH   1  12
HETATM   12  C   UNL     1     -41.764  55.800 -55.614  1.00  0.00     0.287 C 
HETATM   13  N   UNL     1     -42.176  55.440 -56.888  1.00  0.00    -0.262 N 
HETATM   14  H   UNL     1     -41.840  54.588 -57.332  1.00  0.00     0.190 HD
HETATM   15  O   UNL     1     -41.821  56.970 -55.242  1.00  0.00    -0.264 OA
BRANCH  13  16
HETATM   16  N   UNL     1     -42.530  56.467 -57.780  1.00  0.00    -0.268 N 
HETATM   17  C   UNL     1     -43.327  56.126 -58.850  1.00  0.00     0.232 C 
HETATM   18  C   UNL     1     -43.548  57.231 -59.844  1.00  0.00     0.119 C 
HETATM   19  O   UNL     1     -43.835  55.013 -58.967  1.00  0.00    -0.272 OA
HETATM   20  H   UNL     1     -41.913  57.281 -57.786  1.00  0.00     0.190 HD
ENDBRANCH  13  16
ENDBRANCH   1  12
BRANCH   6  21
HETATM   21  C   UNL     1     -41.918  55.399 -52.478  1.00  0.00    -0.023 A 
HETATM   22  C   UNL     1     -43.261  55.296 -52.097  1.00  0.00     0.012 A 
HETATM   23  C   UNL     1     -43.810  56.214 -51.198  1.00  0.00     0.001 A 
HETATM   24  C   UNL     1     -43.023  57.244 -50.683  1.00  0.00     0.000 A 
HETATM   25  C   UNL     1     -41.687  57.357 -51.062  1.00  0.00     0.001 A 
HETATM   26  C   UNL     1     -41.136  56.438 -51.958  1.00  0.00     0.012 A 
ENDBRANCH   6  21
TORSDOF 3
ENDMDL
MODEL 6
REMARK VINA RESULT:      -7.5      3.237      4.610
REMARK  3 active torsions:
REMARK  status: ('A' for Active; 'I' for Inactive)
REMARK       I    between atoms: C_2  and  N_3 
REMARK    1  A    between atoms: N_3  and  N_4 
REMARK       I    between atoms: N_4  and  C_5 
REMARK    2  A    between atoms: C_5  and  C_6 
REMARK    3  A    between atoms: C_11  and  C_12 
ROOT
HETATM    1  C   UNL     1     -41.844  54.462 -54.255  1.00  0.00     0.115 A 
HETATM    2  N   UNL     1     -41.211  53.288 -53.895  1.00  0.00    -0.350 N 
HETATM    3  H   UNL     1     -41.067  52.502 -54.515  1.00  0.00     0.166 HD
HETATM    4  C   UNL     1     -40.850  53.293 -52.571  1.00  0.00     0.044 A 
HETATM    5  C   UNL     1     -41.273  54.509 -52.040  1.00  0.00     0.006 A 
HETATM    6  C   UNL     1     -41.910  55.237 -53.100  1.00  0.00     0.019 A 
HETATM    7  C   UNL     1     -40.193  52.316 -51.813  1.00  0.00     0.032 A 
HETATM    8  C   UNL     1     -39.954  52.598 -50.466  1.00  0.00     0.026 A 
HETATM    9  C   UNL     1     -40.357  53.809 -49.910  1.00  0.00     0.035 A 
HETATM   10 CL   UNL     1     -40.045  54.124 -48.246  1.00  0.00    -0.084 Cl
HETATM   11  C   UNL     1     -41.013  54.774 -50.679  1.00  0.00     0.038 A 
ENDROOT
BRANCH   1  12
HETATM   12  C   UNL     1     -42.359  54.712 -55.587  1.00  0.00     0.287 C 
HETATM   13  N   UNL     1     -41.716  55.739 -56.261  1.00  0.00    -0.262 N 
HETATM   14  H   UNL     1     -41.204  56.462 -55.758  1.00  0.00     0.190 HD
HETATM   15  O   UNL     1     -43.286  54.099 -56.113  1.00  0.00    -0.264 OA
BRANCH  13  16
HETATM   16  N   UNL     1     -42.242  56.145 -57.499  1.00  0.00    -0.268 N 
HETATM   17  C   UNL     1     -43.006  57.291 -57.515  1.00  0.00     0.232 C 
HETATM   18  C   UNL     1     -43.659  57.590 -58.834  1.00  0.00     0.119 C 
HETATM   19  O   UNL     1     -43.121  58.022 -56.533  1.00  0.00    -0.272 OA
HETATM   20  H   UNL     1     -42.328  55.413 -58.205  1.00  0.00     0.190 HD
ENDBRANCH  13  16
ENDBRANCH   1  12
BRANCH   6  21
HETATM   21  C   UNL     1     -42.519  56.557 -53.021  1.00  0.00    -0.023 A 
HETATM   22  C   UNL     1     -43.903  56.703 -52.869  1.00  0.00     0.012 A 
HETATM   23  C   UNL     1     -44.476  57.976 -52.828  1.00  0.00     0.001 A 
HETATM   24  C   UNL     1     -43.673  59.109 -52.951  1.00  0.00     0.000 A 
HETATM   25  C   UNL     1     -42.295  58.972 -53.109  1.00  0.00     0.001 A 
HETATM   26  C   UNL     1     -41.719  57.700 -53.144  1.00  0.00     0.012 A 
ENDBRANCH   6  21
TORSDOF 3
ENDMDL
MODEL 7
REMARK VINA RESULT:      -7.5      3.418      4.868
REMARK  3 active torsions:
REMARK  status: ('A' for Active; 'I' for Inactive)
REMARK       I    between atoms: C_2  and  N_3 
REMARK    1  A    between atoms: N_3  and  N_4 
REMARK       I    between atoms: N_4  and  C_5 
REMARK    2  A    between atoms: C_5  and  C_6 
REMARK    3  A    between atoms: C_11  and  C_12 
ROOT
HETATM    1  C   UNL     1     -42.180  56.076 -55.605  1.00  0.00     0.115 A 
HETATM    2  N   UNL     1     -41.537  54.904 -55.955  1.00  0.00    -0.350 N 
HETATM    3  H   UNL     1     -41.437  54.568 -56.903  1.00  0.00     0.166 HD
HETATM    4  C   UNL     1     -41.097  54.220 -54.850  1.00  0.00     0.044 A 
HETATM    5  C   UNL     1     -41.477  54.963 -53.735  1.00  0.00     0.006 A 
HETATM    6  C   UNL     1     -42.170  56.124 -54.214  1.00  0.00     0.019 A 
HETATM    7  C   UNL     1     -40.403  53.007 -54.760  1.00  0.00     0.032 A 
HETATM    8  C   UNL     1     -40.080  52.542 -53.481  1.00  0.00     0.026 A 
HETATM    9  C   UNL     1     -40.440  53.268 -52.349  1.00  0.00     0.035 A 
HETATM   10 CL   UNL     1     -40.025  52.666 -50.790  1.00  0.00    -0.084 Cl
HETATM   11  C   UNL     1     -41.133  54.477 -52.456  1.00  0.00     0.038 A 
ENDROOT
BRANCH   1  12
HETATM   12  C   UNL     1     -42.774  56.977 -56.574  1.00  0.00     0.287 C 
HETATM   13  N   UNL     1     -41.863  57.544 -57.453  1.00  0.00    -0.262 N 
HETATM   14  H   UNL     1     -40.873  57.609 -57.220  1.00  0.00     0.190 HD
HETATM   15  O   UNL     1     -43.969  57.252 -56.646  1.00  0.00    -0.264 OA
BRANCH  13  16
HETATM   16  N   UNL     1     -42.327  58.537 -58.332  1.00  0.00    -0.268 N 
HETATM   17  C   UNL     1     -42.087  59.848 -57.985  1.00  0.00     0.232 C 
HETATM   18  C   UNL     1     -42.733  60.863 -58.885  1.00  0.00     0.119 C 
HETATM   19  O   UNL     1     -41.379  60.160 -57.029  1.00  0.00    -0.272 OA
HETATM   20  H   UNL     1     -43.089  58.260 -58.953  1.00  0.00     0.190 HD
ENDBRANCH  13  16
ENDBRANCH   1  12
BRANCH   6  21
HETATM   21  C   UNL     1     -42.763  57.188 -53.416  1.00  0.00    -0.023 A 
HETATM   22  C   UNL     1     -42.015  58.311 -53.045  1.00  0.00     0.012 A 
HETATM   23  C   UNL     1     -42.588  59.308 -52.251  1.00  0.00     0.001 A 
HETATM   24  C   UNL     1     -43.907  59.183 -51.816  1.00  0.00     0.000 A 
HETATM   25  C   UNL     1     -44.657  58.065 -52.176  1.00  0.00     0.001 A 
HETATM   26  C   UNL     1     -44.087  57.070 -52.973  1.00  0.00     0.012 A 
ENDBRANCH   6  21
TORSDOF 3
ENDMDL
MODEL 8
REMARK VINA RESULT:      -7.4      2.241      3.208
REMARK  3 active torsions:
REMARK  status: ('A' for Active; 'I' for Inactive)
REMARK       I    between atoms: C_2  and  N_3 
REMARK    1  A    between atoms: N_3  and  N_4 
REMARK       I    between atoms: N_4  and  C_5 
REMARK    2  A    between atoms: C_5  and  C_6 
REMARK    3  A    between atoms: C_11  and  C_12 
ROOT
HETATM    1  C   UNL     1     -41.916  57.592 -51.089  1.00  0.00     0.115 A 
HETATM    2  N   UNL     1     -41.254  56.909 -50.088  1.00  0.00    -0.350 N 
HETATM    3  H   UNL     1     -41.053  57.288 -49.172  1.00  0.00     0.166 HD
HETATM    4  C   UNL     1     -40.849  55.667 -50.507  1.00  0.00     0.044 A 
HETATM    5  C   UNL     1     -41.248  55.536 -51.834  1.00  0.00     0.006 A 
HETATM    6  C   UNL     1     -41.908  56.755 -52.202  1.00  0.00     0.019 A 
HETATM    7  C   UNL     1     -40.159  54.664 -49.814  1.00  0.00     0.032 A 
HETATM    8  C   UNL     1     -39.875  53.482 -50.505  1.00  0.00     0.026 A 
HETATM    9  C   UNL     1     -40.270  53.320 -51.830  1.00  0.00     0.035 A 
HETATM   10 CL   UNL     1     -39.905  51.850 -52.649  1.00  0.00    -0.084 Cl
HETATM   11  C   UNL     1     -40.957  54.330 -52.507  1.00  0.00     0.038 A 
ENDROOT
BRANCH   1  12
HETATM   12  C   UNL     1     -42.424  58.941 -50.929  1.00  0.00     0.287 C 
HETATM   13  N   UNL     1     -43.798  59.012 -50.750  1.00  0.00    -0.262 N 
HETATM   14  H   UNL     1     -44.411  58.259 -51.056  1.00  0.00     0.190 HD
HETATM   15  O   UNL     1     -41.740  59.962 -50.951  1.00  0.00    -0.264 OA
BRANCH  13  16
HETATM   16  N   UNL     1     -44.394  60.284 -50.730  1.00  0.00    -0.268 N 
HETATM   17  C   UNL     1     -45.589  60.410 -50.056  1.00  0.00     0.232 C 
HETATM   18  C   UNL     1     -46.247  61.753 -50.194  1.00  0.00     0.119 C 
HETATM   19  O   UNL     1     -46.063  59.502 -49.376  1.00  0.00    -0.272 OA
HETATM   20  H   UNL     1     -44.112  60.919 -51.478  1.00  0.00     0.190 HD
ENDBRANCH  13  16
ENDBRANCH   1  12
BRANCH   6  21
HETATM   21  C   UNL     1     -42.488  57.090 -53.495  1.00  0.00    -0.023 A 
HETATM   22  C   UNL     1     -41.772  57.846 -54.430  1.00  0.00     0.012 A 
HETATM   23  C   UNL     1     -42.354  58.187 -55.654  1.00  0.00     0.001 A 
HETATM   24  C   UNL     1     -43.657  57.785 -55.944  1.00  0.00     0.000 A 
HETATM   25  C   UNL     1     -44.379  57.037 -55.016  1.00  0.00     0.001 A 
HETATM   26  C   UNL     1     -43.796  56.690 -53.795  1.00  0.00     0.012 A 
ENDBRANCH   6  21
TORSDOF 3
ENDMDL
MODEL 9
REMARK VINA RESULT:      -7.3     14.351     16.372
REMARK  3 active torsions:
REMARK  status: ('A' for Active; 'I' for Inactive)
REMARK       I    between atoms: C_2  and  N_3 
REMARK    1  A    between atoms: N_3  and  N_4 
REMARK       I    between atoms: N_4  and  C_5 
REMARK    2  A    between atoms: C_5  and  C_6 
REMARK    3  A    between atoms: C_11  and  C_12 
ROOT
HETATM    1  C   UNL     1     -34.992  40.960 -54.598  1.00  0.00     0.115 A 
HETATM    2  N   UNL     1     -33.864  40.670 -53.855  1.00  0.00    -0.350 N 
HETATM    3  H   UNL     1     -33.747  40.901 -52.878  1.00  0.00     0.166 HD
HETATM    4  C   UNL     1     -32.892  40.079 -54.623  1.00  0.00     0.044 A 
HETATM    5  C   UNL     1     -33.395  39.990 -55.918  1.00  0.00     0.006 A 
HETATM    6  C   UNL     1     -34.713  40.558 -55.901  1.00  0.00     0.019 A 
HETATM    7  C   UNL     1     -31.614  39.629 -54.267  1.00  0.00     0.032 A 
HETATM    8  C   UNL     1     -30.828  39.059 -55.273  1.00  0.00     0.026 A 
HETATM    9  C   UNL     1     -31.309  38.949 -56.575  1.00  0.00     0.035 A 
HETATM   10 CL   UNL     1     -30.314  38.242 -57.789  1.00  0.00    -0.084 Cl
HETATM   11  C   UNL     1     -32.586  39.405 -56.914  1.00  0.00     0.038 A 
ENDROOT
BRANCH   1  12
HETATM   12  C   UNL     1     -36.161  41.617 -54.045  1.00  0.00     0.287 C 
HETATM   13  N   UNL     1     -37.339  40.902 -54.200  1.00  0.00    -0.262 N 
HETATM   14  H   UNL     1     -37.436  40.192 -54.923  1.00  0.00     0.190 HD
HETATM   15  O   UNL     1     -36.159  42.711 -53.486  1.00  0.00    -0.264 OA
BRANCH  13  16
HETATM   16  N   UNL     1     -38.540  41.525 -53.822  1.00  0.00    -0.268 N 
HETATM   17  C   UNL     1     -39.206  41.003 -52.735  1.00  0.00     0.232 C 
HETATM   18  C   UNL     1     -40.553  41.616 -52.472  1.00  0.00     0.119 C 
HETATM   19  O   UNL     1     -38.723  40.124 -52.024  1.00  0.00    -0.272 OA
HETATM   20  H   UNL     1     -39.010  42.063 -54.552  1.00  0.00     0.190 HD
ENDBRANCH  13  16
ENDBRANCH   1  12
BRANCH   6  21
HETATM   21  C   UNL     1     -35.628  40.697 -57.026  1.00  0.00    -0.023 A 
HETATM   22  C   UNL     1     -35.862  41.945 -57.613  1.00  0.00     0.012 A 
HETATM   23  C   UNL     1     -36.768  42.068 -58.669  1.00  0.00     0.001 A 
HETATM   24  C   UNL     1     -37.452  40.946 -59.136  1.00  0.00     0.000 A 
HETATM   25  C   UNL     1     -37.229  39.700 -58.553  1.00  0.00     0.001 A 
HETATM   26  C   UNL     1     -36.320  39.575 -57.500  1.00  0.00     0.012 A 
ENDBRANCH   6  21
TORSDOF 3
ENDMDL
MODEL 10
REMARK VINA RESULT:      -7.3      3.220      4.020
REMARK  3 active torsions:
REMARK  status: ('A' for Active; 'I' for Inactive)
REMARK       I    between atoms: C_2  and  N_3 
REMARK    1  A    between atoms: N_3  and  N_4 
REMARK       I    between atoms: N_4  and  C_5 
REMARK    2  A    between atoms: C_5  and  C_6 
REMARK    3  A    between atoms: C_11  and  C_12 
ROOT
HETATM    1  C   UNL     1     -44.220  56.857 -54.850  1.00  0.00     0.115 A 
HETATM    2  N   UNL     1     -44.166  56.257 -53.607  1.00  0.00    -0.350 N 
HETATM    3  H   UNL     1     -44.714  56.545 -52.808  1.00  0.00     0.166 HD
HETATM    4  C   UNL     1     -43.232  55.252 -53.571  1.00  0.00     0.044 A 
HETATM    5  C   UNL     1     -42.642  55.201 -54.832  1.00  0.00     0.006 A 
HETATM    6  C   UNL     1     -43.258  56.222 -55.630  1.00  0.00     0.019 A 
HETATM    7  C   UNL     1     -42.866  54.400 -52.522  1.00  0.00     0.032 A 
HETATM    8  C   UNL     1     -41.867  53.456 -52.776  1.00  0.00     0.026 A 
HETATM    9  C   UNL     1     -41.266  53.376 -54.029  1.00  0.00     0.035 A 
HETATM   10 CL   UNL     1     -40.039  52.200 -54.308  1.00  0.00    -0.084 Cl
HETATM   11  C   UNL     1     -41.641  54.235 -55.066  1.00  0.00     0.038 A 
ENDROOT
BRANCH   1  12
HETATM   12  C   UNL     1     -45.098  57.970 -55.158  1.00  0.00     0.287 C 
HETATM   13  N   UNL     1     -44.958  59.055 -54.306  1.00  0.00    -0.262 N 
HETATM   14  H   UNL     1     -44.562  58.948 -53.374  1.00  0.00     0.190 HD
HETATM   15  O   UNL     1     -45.914  57.994 -56.076  1.00  0.00    -0.264 OA
BRANCH  13  16
HETATM   16  N   UNL     1     -45.865  60.119 -54.441  1.00  0.00    -0.268 N 
HETATM   17  C   UNL     1     -45.943  61.017 -53.400  1.00  0.00     0.232 C 
HETATM   18  C   UNL     1     -47.031  62.044 -53.538  1.00  0.00     0.119 C 
HETATM   19  O   UNL     1     -45.166  60.993 -52.447  1.00  0.00    -0.272 OA
HETATM   20  H   UNL     1     -46.630  59.969 -55.100  1.00  0.00     0.190 HD
ENDBRANCH  13  16
ENDBRANCH   1  12
BRANCH   6  21
HETATM   21  C   UNL     1     -42.961  56.556 -57.016  1.00  0.00    -0.023 A 
HETATM   22  C   UNL     1     -43.273  55.668 -58.053  1.00  0.00     0.012 A 
HETATM   23  C   UNL     1     -42.951  55.988 -59.374  1.00  0.00     0.001 A 
HETATM   24  C   UNL     1     -42.308  57.191 -59.665  1.00  0.00     0.000 A 
HETATM   25  C   UNL     1     -41.988  58.077 -58.638  1.00  0.00     0.001 A 
HETATM   26  C   UNL     1     -42.313  57.761 -57.317  1.00  0.00     0.012 A 
ENDBRANCH   6  21
TORSDOF 3
ENDMDL
