MODEL 1
REMARK VINA RESULT:      -8.3      0.000      0.000
REMARK  5 active torsions:
REMARK  status: ('A' for Active; 'I' for Inactive)
REMARK    1  A    between atoms: C_2  and  C_3 
REMARK    2  A    between atoms: C_6  and  C_7 
REMARK    3  A    between atoms: C_7  and  N_8 
REMARK    4  A    between atoms: C_7  and  C_21 
REMARK       I    between atoms: N_8  and  C_9 
REMARK       I    between atoms: C_9  and  N_10 
REMARK    5  A    between atoms: N_10  and  N_11 
ROOT
HETATM    1  N   UNL     1     -42.877  56.574 -53.803  1.00  0.00    -0.333 N 
HETATM    2  C   UNL     1     -43.647  57.000 -54.835  1.00  0.00     0.335 C 
HETATM    3  N   UNL     1     -42.989  57.434 -55.944  1.00  0.00    -0.244 N 
HETATM    4  O   UNL     1     -44.867  57.018 -54.697  1.00  0.00    -0.246 OA
HETATM    5  H   UNL     1     -43.434  56.257 -53.021  1.00  0.00     0.165 HD
HETATM    6  H   UNL     1     -42.135  56.959 -56.186  1.00  0.00     0.192 HD
ENDROOT
BRANCH   1   7
HETATM    7  C   UNL     1     -41.423  56.551 -53.642  1.00  0.00     0.122 C 
BRANCH   7   8
HETATM    8  C   UNL     1     -40.975  55.101 -53.541  1.00  0.00    -0.035 A 
HETATM    9  C   UNL     1     -40.607  54.396 -54.695  1.00  0.00     0.010 A 
HETATM   10  C   UNL     1     -40.181  53.067 -54.616  1.00  0.00     0.007 A 
HETATM   11  C   UNL     1     -40.122  52.412 -53.381  1.00  0.00    -0.059 A 
HETATM   12  C   UNL     1     -40.491  53.110 -52.225  1.00  0.00     0.007 A 
HETATM   13  C   UNL     1     -40.915  54.438 -52.304  1.00  0.00     0.010 A 
BRANCH  11  14
HETATM   14  C   UNL     1     -39.637  50.988 -53.289  1.00  0.00     0.034 C 
HETATM   15  C   UNL     1     -40.170  50.137 -54.432  1.00  0.00     0.010 C 
ENDBRANCH  11  14
ENDBRANCH   7   8
BRANCH   7  16
HETATM   16  C   UNL     1     -40.981  57.418 -52.429  1.00  0.00     0.005 C 
HETATM   17  C   UNL     1     -40.280  58.708 -52.877  1.00  0.00     0.012 C 
HETATM   18  C   UNL     1     -42.181  57.792 -51.548  1.00  0.00     0.012 C 
ENDBRANCH   7  16
ENDBRANCH   1   7
BRANCH   3  19
HETATM   19  N   UNL     1     -43.735  57.750 -57.034  1.00  0.00    -0.244 N 
HETATM   20  C   UNL     1     -43.893  56.939 -58.123  1.00  0.00     0.086 A 
HETATM   21  C   UNL     1     -44.511  57.780 -59.051  1.00  0.00     0.086 A 
HETATM   22  C   UNL     1     -43.568  55.605 -58.400  1.00  0.00     0.034 A 
HETATM   23  C   UNL     1     -44.829  57.278 -60.322  1.00  0.00     0.034 A 
HETATM   24  N   UNL     1     -44.702  59.045 -58.538  1.00  0.00    -0.240 NA
HETATM   25  C   UNL     1     -44.509  55.949 -60.623  1.00  0.00     0.002 A 
HETATM   26  C   UNL     1     -43.890  55.129 -59.677  1.00  0.00     0.002 A 
HETATM   27  C   UNL     1     -44.214  58.993 -57.316  1.00  0.00     0.234 A 
ENDBRANCH   3  19
TORSDOF 5
ENDMDL
MODEL 2
REMARK VINA RESULT:      -7.8      1.490      2.082
REMARK  5 active torsions:
REMARK  status: ('A' for Active; 'I' for Inactive)
REMARK    1  A    between atoms: C_2  and  C_3 
REMARK    2  A    between atoms: C_6  and  C_7 
REMARK    3  A    between atoms: C_7  and  N_8 
REMARK    4  A    between atoms: C_7  and  C_21 
REMARK       I    between atoms: N_8  and  C_9 
REMARK       I    between atoms: C_9  and  N_10 
REMARK    5  A    between atoms: N_10  and  N_11 
ROOT
HETATM    1  N   UNL     1     -42.532  56.592 -54.447  1.00  0.00    -0.333 N 
HETATM    2  C   UNL     1     -43.003  56.835 -55.695  1.00  0.00     0.335 C 
HETATM    3  N   UNL     1     -42.072  56.974 -56.678  1.00  0.00    -0.244 N 
HETATM    4  O   UNL     1     -44.213  56.963 -55.858  1.00  0.00    -0.246 OA
HETATM    5  H   UNL     1     -43.280  56.488 -53.774  1.00  0.00     0.165 HD
HETATM    6  H   UNL     1     -41.246  56.403 -56.611  1.00  0.00     0.192 HD
ENDROOT
BRANCH   1   7
HETATM    7  C   UNL     1     -41.162  56.509 -53.941  1.00  0.00     0.122 C 
BRANCH   7   8
HETATM    8  C   UNL     1     -40.814  55.041 -53.740  1.00  0.00    -0.035 A 
HETATM    9  C   UNL     1     -40.444  54.249 -54.836  1.00  0.00     0.010 A 
HETATM   10  C   UNL     1     -40.108  52.903 -54.664  1.00  0.00     0.007 A 
HETATM   11  C   UNL     1     -40.145  52.318 -53.394  1.00  0.00    -0.059 A 
HETATM   12  C   UNL     1     -40.517  53.104 -52.297  1.00  0.00     0.007 A 
HETATM   13  C   UNL     1     -40.849  54.448 -52.468  1.00  0.00     0.010 A 
BRANCH  11  14
HETATM   14  C   UNL     1     -39.757  50.874 -53.201  1.00  0.00     0.034 C 
HETATM   15  C   UNL     1     -39.896  50.078 -54.490  1.00  0.00     0.010 C 
ENDBRANCH  11  14
ENDBRANCH   7   8
BRANCH   7  16
HETATM   16  C   UNL     1     -40.986  57.365 -52.656  1.00  0.00     0.005 C 
HETATM   17  C   UNL     1     -40.230  58.670 -52.940  1.00  0.00     0.012 C 
HETATM   18  C   UNL     1     -42.345  57.711 -52.030  1.00  0.00     0.012 C 
ENDBRANCH   7  16
ENDBRANCH   1   7
BRANCH   3  19
HETATM   19  N   UNL     1     -42.519  57.097 -57.954  1.00  0.00    -0.244 N 
HETATM   20  C   UNL     1     -42.533  58.269 -58.657  1.00  0.00     0.086 A 
HETATM   21  C   UNL     1     -43.292  57.948 -59.784  1.00  0.00     0.086 A 
HETATM   22  C   UNL     1     -41.991  59.542 -58.441  1.00  0.00     0.034 A 
HETATM   23  C   UNL     1     -43.529  58.935 -60.753  1.00  0.00     0.034 A 
HETATM   24  N   UNL     1     -43.723  56.639 -59.747  1.00  0.00    -0.240 NA
HETATM   25  C   UNL     1     -43.001  60.216 -60.555  1.00  0.00     0.002 A 
HETATM   26  C   UNL     1     -42.246  60.512 -59.418  1.00  0.00     0.002 A 
HETATM   27  C   UNL     1     -43.242  56.155 -58.620  1.00  0.00     0.234 A 
ENDBRANCH   3  19
TORSDOF 5
ENDMDL
MODEL 3
REMARK VINA RESULT:      -7.6      1.832      2.075
REMARK  5 active torsions:
REMARK  status: ('A' for Active; 'I' for Inactive)
REMARK    1  A    between atoms: C_2  and  C_3 
REMARK    2  A    between atoms: C_6  and  C_7 
REMARK    3  A    between atoms: C_7  and  N_8 
REMARK    4  A    between atoms: C_7  and  C_21 
REMARK       I    between atoms: N_8  and  C_9 
REMARK       I    between atoms: C_9  and  N_10 
REMARK    5  A    between atoms: N_10  and  N_11 
ROOT
HETATM    1  N   UNL     1     -42.643  57.082 -54.007  1.00  0.00    -0.333 N 
HETATM    2  C   UNL     1     -42.950  57.953 -55.000  1.00  0.00     0.335 C 
HETATM    3  N   UNL     1     -41.912  58.648 -55.539  1.00  0.00    -0.244 N 
HETATM    4  O   UNL     1     -44.126  58.100 -55.317  1.00  0.00    -0.246 OA
HETATM    5  H   UNL     1     -43.460  56.595 -53.665  1.00  0.00     0.165 HD
HETATM    6  H   UNL     1     -41.030  58.169 -55.616  1.00  0.00     0.192 HD
ENDROOT
BRANCH   1   7
HETATM    7  C   UNL     1     -41.368  56.790 -53.352  1.00  0.00     0.122 C 
BRANCH   7   8
HETATM    8  C   UNL     1     -41.023  55.329 -53.604  1.00  0.00    -0.035 A 
HETATM    9  C   UNL     1     -40.615  54.913 -54.879  1.00  0.00     0.010 A 
HETATM   10  C   UNL     1     -40.282  53.577 -55.121  1.00  0.00     0.007 A 
HETATM   11  C   UNL     1     -40.360  52.627 -54.096  1.00  0.00    -0.059 A 
HETATM   12  C   UNL     1     -40.770  53.038 -52.822  1.00  0.00     0.007 A 
HETATM   13  C   UNL     1     -41.099  54.372 -52.579  1.00  0.00     0.010 A 
BRANCH  11  14
HETATM   14  C   UNL     1     -39.975  51.192 -54.348  1.00  0.00     0.034 C 
HETATM   15  C   UNL     1     -39.625  50.469 -53.056  1.00  0.00     0.010 C 
ENDBRANCH  11  14
ENDBRANCH   7   8
BRANCH   7  16
HETATM   16  C   UNL     1     -41.417  57.159 -51.842  1.00  0.00     0.005 C 
HETATM   17  C   UNL     1     -40.623  58.439 -51.544  1.00  0.00     0.012 C 
HETATM   18  C   UNL     1     -42.863  57.356 -51.366  1.00  0.00     0.012 C 
ENDBRANCH   7  16
ENDBRANCH   1   7
BRANCH   3  19
HETATM   19  N   UNL     1     -42.173  59.435 -56.614  1.00  0.00    -0.244 N 
HETATM   20  C   UNL     1     -42.104  59.014 -57.913  1.00  0.00     0.086 A 
HETATM   21  C   UNL     1     -42.203  60.207 -58.633  1.00  0.00     0.086 A 
HETATM   22  C   UNL     1     -41.960  57.763 -58.526  1.00  0.00     0.034 A 
HETATM   23  C   UNL     1     -42.162  60.165 -60.035  1.00  0.00     0.034 A 
HETATM   24  N   UNL     1     -42.315  61.296 -57.794  1.00  0.00    -0.240 NA
HETATM   25  C   UNL     1     -42.015  58.926 -60.669  1.00  0.00     0.002 A 
HETATM   26  C   UNL     1     -41.916  57.748 -59.926  1.00  0.00     0.002 A 
HETATM   27  C   UNL     1     -42.286  60.792 -56.578  1.00  0.00     0.234 A 
ENDBRANCH   3  19
TORSDOF 5
ENDMDL
MODEL 4
REMARK VINA RESULT:      -7.5      3.400      7.113
REMARK  5 active torsions:
REMARK  status: ('A' for Active; 'I' for Inactive)
REMARK    1  A    between atoms: C_2  and  C_3 
REMARK    2  A    between atoms: C_6  and  C_7 
REMARK    3  A    between atoms: C_7  and  N_8 
REMARK    4  A    between atoms: C_7  and  C_21 
REMARK       I    between atoms: N_8  and  C_9 
REMARK       I    between atoms: C_9  and  N_10 
REMARK    5  A    between atoms: N_10  and  N_11 
ROOT
HETATM    1  N   UNL     1     -43.510  55.884 -52.572  1.00  0.00    -0.333 N 
HETATM    2  C   UNL     1     -42.824  54.779 -52.186  1.00  0.00     0.335 C 
HETATM    3  N   UNL     1     -41.499  54.751 -52.492  1.00  0.00    -0.244 N 
HETATM    4  O   UNL     1     -43.433  53.865 -51.639  1.00  0.00    -0.246 OA
HETATM    5  H   UNL     1     -44.483  55.840 -52.300  1.00  0.00     0.165 HD
HETATM    6  H   UNL     1     -41.001  55.625 -52.457  1.00  0.00     0.192 HD
ENDROOT
BRANCH   1   7
HETATM    7  C   UNL     1     -43.081  57.059 -53.332  1.00  0.00     0.122 C 
BRANCH   7   8
HETATM    8  C   UNL     1     -42.024  57.794 -52.520  1.00  0.00    -0.035 A 
HETATM    9  C   UNL     1     -40.827  58.198 -53.127  1.00  0.00     0.010 A 
HETATM   10  C   UNL     1     -39.854  58.887 -52.398  1.00  0.00     0.007 A 
HETATM   11  C   UNL     1     -40.053  59.177 -51.043  1.00  0.00    -0.059 A 
HETATM   12  C   UNL     1     -41.245  58.774 -50.432  1.00  0.00     0.007 A 
HETATM   13  C   UNL     1     -42.219  58.088 -51.161  1.00  0.00     0.010 A 
BRANCH  11  14
HETATM   14  C   UNL     1     -39.017  59.944 -50.262  1.00  0.00     0.034 C 
HETATM   15  C   UNL     1     -37.644  59.297 -50.363  1.00  0.00     0.010 C 
ENDBRANCH  11  14
ENDBRANCH   7   8
BRANCH   7  16
HETATM   16  C   UNL     1     -44.295  57.951 -53.715  1.00  0.00     0.005 C 
HETATM   17  C   UNL     1     -43.850  59.338 -54.201  1.00  0.00     0.012 C 
HETATM   18  C   UNL     1     -45.141  57.294 -54.815  1.00  0.00     0.012 C 
ENDBRANCH   7  16
ENDBRANCH   1   7
BRANCH   3  19
HETATM   19  N   UNL     1     -40.765  53.714 -52.012  1.00  0.00    -0.244 N 
HETATM   20  C   UNL     1     -40.471  52.584 -52.722  1.00  0.00     0.086 A 
HETATM   21  C   UNL     1     -39.935  51.736 -51.750  1.00  0.00     0.086 A 
HETATM   22  C   UNL     1     -40.615  52.210 -54.064  1.00  0.00     0.034 A 
HETATM   23  C   UNL     1     -39.516  50.449 -52.121  1.00  0.00     0.034 A 
HETATM   24  N   UNL     1     -39.923  52.335 -50.508  1.00  0.00    -0.240 NA
HETATM   25  C   UNL     1     -39.655  50.053 -53.456  1.00  0.00     0.002 A 
HETATM   26  C   UNL     1     -40.195  50.919 -54.408  1.00  0.00     0.002 A 
HETATM   27  C   UNL     1     -40.440  53.530 -50.703  1.00  0.00     0.234 A 
ENDBRANCH   3  19
TORSDOF 5
ENDMDL
MODEL 5
REMARK VINA RESULT:      -7.4      3.591      8.010
REMARK  5 active torsions:
REMARK  status: ('A' for Active; 'I' for Inactive)
REMARK    1  A    between atoms: C_2  and  C_3 
REMARK    2  A    between atoms: C_6  and  C_7 
REMARK    3  A    between atoms: C_7  and  N_8 
REMARK    4  A    between atoms: C_7  and  C_21 
REMARK       I    between atoms: N_8  and  C_9 
REMARK       I    between atoms: C_9  and  N_10 
REMARK    5  A    between atoms: N_10  and  N_11 
ROOT
HETATM    1  N   UNL     1     -44.096  56.358 -51.775  1.00  0.00    -0.333 N 
HETATM    2  C   UNL     1     -43.229  55.338 -51.558  1.00  0.00     0.335 C 
HETATM    3  N   UNL     1     -41.949  55.530 -51.977  1.00  0.00    -0.244 N 
HETATM    4  O   UNL     1     -43.649  54.302 -51.051  1.00  0.00    -0.246 OA
HETATM    5  H   UNL     1     -45.022  56.149 -51.427  1.00  0.00     0.165 HD
HETATM    6  H   UNL     1     -41.576  56.462 -51.900  1.00  0.00     0.192 HD
ENDROOT
BRANCH   1   7
HETATM    7  C   UNL     1     -43.911  57.642 -52.452  1.00  0.00     0.122 C 
BRANCH   7   8
HETATM    8  C   UNL     1     -44.137  58.755 -51.439  1.00  0.00    -0.035 A 
HETATM    9  C   UNL     1     -43.111  59.667 -51.155  1.00  0.00     0.010 A 
HETATM   10  C   UNL     1     -43.309  60.702 -50.237  1.00  0.00     0.007 A 
HETATM   11  C   UNL     1     -44.534  60.841 -49.575  1.00  0.00    -0.059 A 
HETATM   12  C   UNL     1     -45.561  59.931 -49.853  1.00  0.00     0.007 A 
HETATM   13  C   UNL     1     -45.364  58.899 -50.772  1.00  0.00     0.010 A 
BRANCH  11  14
HETATM   14  C   UNL     1     -44.760  61.972 -48.606  1.00  0.00     0.034 C 
HETATM   15  C   UNL     1     -44.906  61.468 -47.178  1.00  0.00     0.010 C 
ENDBRANCH  11  14
ENDBRANCH   7   8
BRANCH   7  16
HETATM   16  C   UNL     1     -44.827  57.753 -53.703  1.00  0.00     0.005 C 
HETATM   17  C   UNL     1     -44.860  59.183 -54.259  1.00  0.00     0.012 C 
HETATM   18  C   UNL     1     -44.363  56.803 -54.816  1.00  0.00     0.012 C 
ENDBRANCH   7  16
ENDBRANCH   1   7
BRANCH   3  19
HETATM   19  N   UNL     1     -41.035  54.576 -51.664  1.00  0.00    -0.244 N 
HETATM   20  C   UNL     1     -40.700  53.532 -52.479  1.00  0.00     0.086 A 
HETATM   21  C   UNL     1     -39.939  52.713 -51.641  1.00  0.00     0.086 A 
HETATM   22  C   UNL     1     -40.973  53.210 -53.815  1.00  0.00     0.034 A 
HETATM   23  C   UNL     1     -39.416  51.514 -52.148  1.00  0.00     0.034 A 
HETATM   24  N   UNL     1     -39.836  53.245 -50.373  1.00  0.00    -0.240 NA
HETATM   25  C   UNL     1     -39.681  51.171 -53.479  1.00  0.00     0.002 A 
HETATM   26  C   UNL     1     -40.446  52.006 -54.295  1.00  0.00     0.002 A 
HETATM   27  C   UNL     1     -40.518  54.370 -50.421  1.00  0.00     0.234 A 
ENDBRANCH   3  19
TORSDOF 5
ENDMDL
MODEL 6
REMARK VINA RESULT:      -7.3      1.812      2.144
REMARK  5 active torsions:
REMARK  status: ('A' for Active; 'I' for Inactive)
REMARK    1  A    between atoms: C_2  and  C_3 
REMARK    2  A    between atoms: C_6  and  C_7 
REMARK    3  A    between atoms: C_7  and  N_8 
REMARK    4  A    between atoms: C_7  and  C_21 
REMARK       I    between atoms: N_8  and  C_9 
REMARK       I    between atoms: C_9  and  N_10 
REMARK    5  A    between atoms: N_10  and  N_11 
ROOT
HETATM    1  N   UNL     1     -43.989  56.985 -53.585  1.00  0.00    -0.333 N 
HETATM    2  C   UNL     1     -43.899  57.604 -54.789  1.00  0.00     0.335 C 
HETATM    3  N   UNL     1     -42.646  57.917 -55.217  1.00  0.00    -0.244 N 
HETATM    4  O   UNL     1     -44.932  57.886 -55.389  1.00  0.00    -0.246 OA
HETATM    5  H   UNL     1     -44.947  56.774 -53.339  1.00  0.00     0.165 HD
HETATM    6  H   UNL     1     -41.908  57.274 -54.985  1.00  0.00     0.192 HD
ENDROOT
BRANCH   1   7
HETATM    7  C   UNL     1     -42.956  56.638 -52.609  1.00  0.00     0.122 C 
BRANCH   7   8
HETATM    8  C   UNL     1     -42.306  55.333 -53.046  1.00  0.00    -0.035 A 
HETATM    9  C   UNL     1     -42.881  54.568 -54.070  1.00  0.00     0.010 A 
HETATM   10  C   UNL     1     -42.287  53.375 -54.490  1.00  0.00     0.007 A 
HETATM   11  C   UNL     1     -41.110  52.916 -53.888  1.00  0.00    -0.059 A 
HETATM   12  C   UNL     1     -40.533  53.674 -52.863  1.00  0.00     0.007 A 
HETATM   13  C   UNL     1     -41.125  54.867 -52.445  1.00  0.00     0.010 A 
BRANCH  11  14
HETATM   14  C   UNL     1     -40.452  51.644 -54.358  1.00  0.00     0.034 C 
HETATM   15  C   UNL     1     -39.429  51.136 -53.352  1.00  0.00     0.010 C 
ENDBRANCH  11  14
ENDBRANCH   7   8
BRANCH   7  16
HETATM   16  C   UNL     1     -43.542  56.583 -51.170  1.00  0.00     0.005 C 
HETATM   17  C   UNL     1     -44.768  57.494 -51.019  1.00  0.00     0.012 C 
HETATM   18  C   UNL     1     -43.944  55.151 -50.789  1.00  0.00     0.012 C 
ENDBRANCH   7  16
ENDBRANCH   1   7
BRANCH   3  19
HETATM   19  N   UNL     1     -42.519  58.426 -56.469  1.00  0.00    -0.244 N 
HETATM   20  C   UNL     1     -42.549  57.677 -57.613  1.00  0.00     0.086 A 
HETATM   21  C   UNL     1     -42.134  58.583 -58.590  1.00  0.00     0.086 A 
HETATM   22  C   UNL     1     -42.875  56.345 -57.897  1.00  0.00     0.034 A 
HETATM   23  C   UNL     1     -42.036  58.155 -59.923  1.00  0.00     0.034 A 
HETATM   24  N   UNL     1     -41.855  59.820 -58.048  1.00  0.00    -0.240 NA
HETATM   25  C   UNL     1     -42.352  56.826 -60.229  1.00  0.00     0.002 A 
HETATM   26  C   UNL     1     -42.764  55.939 -59.233  1.00  0.00     0.002 A 
HETATM   27  C   UNL     1     -42.093  59.686 -56.759  1.00  0.00     0.234 A 
ENDBRANCH   3  19
TORSDOF 5
ENDMDL
MODEL 7
REMARK VINA RESULT:      -7.2      1.937      7.663
REMARK  5 active torsions:
REMARK  status: ('A' for Active; 'I' for Inactive)
REMARK    1  A    between atoms: C_2  and  C_3 
REMARK    2  A    between atoms: C_6  and  C_7 
REMARK    3  A    between atoms: C_7  and  N_8 
REMARK    4  A    between atoms: C_7  and  C_21 
REMARK       I    between atoms: N_8  and  C_9 
REMARK       I    between atoms: C_9  and  N_10 
REMARK    5  A    between atoms: N_10  and  N_11 
ROOT
HETATM    1  N   UNL     1     -43.463  55.323 -57.162  1.00  0.00    -0.333 N 
HETATM    2  C   UNL     1     -42.986  54.975 -55.941  1.00  0.00     0.335 C 
HETATM    3  N   UNL     1     -41.700  55.327 -55.670  1.00  0.00    -0.244 N 
HETATM    4  O   UNL     1     -43.707  54.333 -55.184  1.00  0.00    -0.246 OA
HETATM    5  H   UNL     1     -44.426  55.040 -57.287  1.00  0.00     0.165 HD
HETATM    6  H   UNL     1     -41.374  56.201 -56.049  1.00  0.00     0.192 HD
ENDROOT
BRANCH   1   7
HETATM    7  C   UNL     1     -42.806  55.975 -58.295  1.00  0.00     0.122 C 
BRANCH   7   8
HETATM    8  C   UNL     1     -42.845  57.480 -58.070  1.00  0.00    -0.035 A 
HETATM    9  C   UNL     1     -41.854  58.300 -58.628  1.00  0.00     0.010 A 
HETATM   10  C   UNL     1     -41.885  59.685 -58.440  1.00  0.00     0.007 A 
HETATM   11  C   UNL     1     -42.901  60.278 -57.682  1.00  0.00    -0.059 A 
HETATM   12  C   UNL     1     -43.891  59.462 -57.121  1.00  0.00     0.007 A 
HETATM   13  C   UNL     1     -43.861  58.080 -57.310  1.00  0.00     0.010 A 
BRANCH  11  14
HETATM   14  C   UNL     1     -42.953  61.773 -57.502  1.00  0.00     0.034 C 
HETATM   15  C   UNL     1     -41.722  62.452 -58.085  1.00  0.00     0.010 C 
ENDBRANCH  11  14
ENDBRANCH   7   8
BRANCH   7  16
HETATM   16  C   UNL     1     -43.447  55.538 -59.642  1.00  0.00     0.005 C 
HETATM   17  C   UNL     1     -44.379  54.331 -59.463  1.00  0.00     0.012 C 
HETATM   18  C   UNL     1     -44.246  56.686 -60.274  1.00  0.00     0.012 C 
ENDBRANCH   7  16
ENDBRANCH   1   7
BRANCH   3  19
HETATM   19  N   UNL     1     -41.237  55.100 -54.414  1.00  0.00    -0.244 N 
HETATM   20  C   UNL     1     -40.712  53.911 -53.989  1.00  0.00     0.086 A 
HETATM   21  C   UNL     1     -40.621  54.087 -52.607  1.00  0.00     0.086 A 
HETATM   22  C   UNL     1     -40.323  52.731 -54.634  1.00  0.00     0.034 A 
HETATM   23  C   UNL     1     -40.118  53.043 -51.816  1.00  0.00     0.034 A 
HETATM   24  N   UNL     1     -41.087  55.327 -52.223  1.00  0.00    -0.240 NA
HETATM   25  C   UNL     1     -39.727  51.852 -52.440  1.00  0.00     0.002 A 
HETATM   26  C   UNL     1     -39.829  51.701 -53.824  1.00  0.00     0.002 A 
HETATM   27  C   UNL     1     -41.458  55.911 -53.343  1.00  0.00     0.234 A 
ENDBRANCH   3  19
TORSDOF 5
ENDMDL
MODEL 8
REMARK VINA RESULT:      -7.0      2.263      6.786
REMARK  5 active torsions:
REMARK  status: ('A' for Active; 'I' for Inactive)
REMARK    1  A    between atoms: C_2  and  C_3 
REMARK    2  A    between atoms: C_6  and  C_7 
REMARK    3  A    between atoms: C_7  and  N_8 
REMARK    4  A    between atoms: C_7  and  C_21 
REMARK       I    between atoms: N_8  and  C_9 
REMARK       I    between atoms: C_9  and  N_10 
REMARK    5  A    between atoms: N_10  and  N_11 
ROOT
HETATM    1  N   UNL     1     -43.824  55.949 -52.934  1.00  0.00    -0.333 N 
HETATM    2  C   UNL     1     -43.057  54.925 -52.484  1.00  0.00     0.335 C 
HETATM    3  N   UNL     1     -41.719  55.027 -52.704  1.00  0.00    -0.244 N 
HETATM    4  O   UNL     1     -43.606  53.961 -51.959  1.00  0.00    -0.246 OA
HETATM    5  H   UNL     1     -44.803  55.810 -52.725  1.00  0.00     0.165 HD
HETATM    6  H   UNL     1     -41.315  55.948 -52.655  1.00  0.00     0.192 HD
ENDROOT
BRANCH   1   7
HETATM    7  C   UNL     1     -43.467  57.151 -53.688  1.00  0.00     0.122 C 
BRANCH   7   8
HETATM    8  C   UNL     1     -43.450  56.800 -55.169  1.00  0.00    -0.035 A 
HETATM    9  C   UNL     1     -42.825  55.623 -55.606  1.00  0.00     0.010 A 
HETATM   10  C   UNL     1     -42.813  55.281 -56.961  1.00  0.00     0.007 A 
HETATM   11  C   UNL     1     -43.418  56.114 -57.909  1.00  0.00    -0.059 A 
HETATM   12  C   UNL     1     -44.041  57.291 -57.479  1.00  0.00     0.007 A 
HETATM   13  C   UNL     1     -44.054  57.631 -56.125  1.00  0.00     0.010 A 
BRANCH  11  14
HETATM   14  C   UNL     1     -43.431  55.734 -59.368  1.00  0.00     0.034 C 
HETATM   15  C   UNL     1     -43.879  56.892 -60.246  1.00  0.00     0.010 C 
ENDBRANCH  11  14
ENDBRANCH   7   8
BRANCH   7  16
HETATM   16  C   UNL     1     -42.124  57.751 -53.182  1.00  0.00     0.005 C 
HETATM   17  C   UNL     1     -41.506  58.709 -54.210  1.00  0.00     0.012 C 
HETATM   18  C   UNL     1     -42.318  58.507 -51.860  1.00  0.00     0.012 C 
ENDBRANCH   7  16
ENDBRANCH   1   7
BRANCH   3  19
HETATM   19  N   UNL     1     -40.918  54.077 -52.158  1.00  0.00    -0.244 N 
HETATM   20  C   UNL     1     -40.568  52.912 -52.781  1.00  0.00     0.086 A 
HETATM   21  C   UNL     1     -39.968  52.177 -51.756  1.00  0.00     0.086 A 
HETATM   22  C   UNL     1     -40.710  52.423 -54.086  1.00  0.00     0.034 A 
HETATM   23  C   UNL     1     -39.479  50.891 -52.032  1.00  0.00     0.034 A 
HETATM   24  N   UNL     1     -39.972  52.874 -50.566  1.00  0.00    -0.240 NA
HETATM   25  C   UNL     1     -39.615  50.381 -53.328  1.00  0.00     0.002 A 
HETATM   26  C   UNL     1     -40.220  51.135 -54.335  1.00  0.00     0.002 A 
HETATM   27  C   UNL     1     -40.561  54.018 -50.845  1.00  0.00     0.234 A 
ENDBRANCH   3  19
TORSDOF 5
ENDMDL
MODEL 9
REMARK VINA RESULT:      -6.9      1.883      2.759
REMARK  5 active torsions:
REMARK  status: ('A' for Active; 'I' for Inactive)
REMARK    1  A    between atoms: C_2  and  C_3 
REMARK    2  A    between atoms: C_6  and  C_7 
REMARK    3  A    between atoms: C_7  and  N_8 
REMARK    4  A    between atoms: C_7  and  C_21 
REMARK       I    between atoms: N_8  and  C_9 
REMARK       I    between atoms: C_9  and  N_10 
REMARK    5  A    between atoms: N_10  and  N_11 
ROOT
HETATM    1  N   UNL     1     -42.410  55.324 -55.885  1.00  0.00    -0.333 N 
HETATM    2  C   UNL     1     -42.674  55.980 -57.043  1.00  0.00     0.335 C 
HETATM    3  N   UNL     1     -42.154  57.231 -57.163  1.00  0.00    -0.244 N 
HETATM    4  O   UNL     1     -43.393  55.441 -57.879  1.00  0.00    -0.246 OA
HETATM    5  H   UNL     1     -42.818  54.399 -55.873  1.00  0.00     0.165 HD
HETATM    6  H   UNL     1     -41.251  57.394 -56.749  1.00  0.00     0.192 HD
ENDROOT
BRANCH   1   7
HETATM    7  C   UNL     1     -41.695  55.756 -54.684  1.00  0.00     0.122 C 
BRANCH   7   8
HETATM    8  C   UNL     1     -41.093  54.528 -54.018  1.00  0.00    -0.035 A 
HETATM    9  C   UNL     1     -40.923  54.494 -52.626  1.00  0.00     0.010 A 
HETATM   10  C   UNL     1     -40.384  53.367 -52.000  1.00  0.00     0.007 A 
HETATM   11  C   UNL     1     -39.994  52.253 -52.752  1.00  0.00    -0.059 A 
HETATM   12  C   UNL     1     -40.159  52.283 -54.141  1.00  0.00     0.007 A 
HETATM   13  C   UNL     1     -40.700  53.407 -54.767  1.00  0.00     0.010 A 
BRANCH  11  14
HETATM   14  C   UNL     1     -39.438  51.026 -52.076  1.00  0.00     0.034 C 
HETATM   15  C   UNL     1     -39.651  49.776 -52.918  1.00  0.00     0.010 C 
ENDBRANCH  11  14
ENDBRANCH   7   8
BRANCH   7  16
HETATM   16  C   UNL     1     -42.625  56.574 -53.743  1.00  0.00     0.005 C 
HETATM   17  C   UNL     1     -42.155  58.028 -53.603  1.00  0.00     0.012 C 
HETATM   18  C   UNL     1     -44.072  56.572 -54.255  1.00  0.00     0.012 C 
ENDBRANCH   7  16
ENDBRANCH   1   7
BRANCH   3  19
HETATM   19  N   UNL     1     -42.300  57.860 -58.357  1.00  0.00    -0.244 N 
HETATM   20  C   UNL     1     -43.303  58.742 -58.647  1.00  0.00     0.086 A 
HETATM   21  C   UNL     1     -43.179  58.914 -60.027  1.00  0.00     0.086 A 
HETATM   22  C   UNL     1     -44.285  59.387 -57.884  1.00  0.00     0.034 A 
HETATM   23  C   UNL     1     -44.070  59.770 -60.693  1.00  0.00     0.034 A 
HETATM   24  N   UNL     1     -42.149  58.154 -60.541  1.00  0.00    -0.240 NA
HETATM   25  C   UNL     1     -45.062  60.421 -59.950  1.00  0.00     0.002 A 
HETATM   26  C   UNL     1     -45.166  60.231 -58.571  1.00  0.00     0.002 A 
HETATM   27  C   UNL     1     -41.643  57.523 -59.502  1.00  0.00     0.234 A 
ENDBRANCH   3  19
TORSDOF 5
ENDMDL
MODEL 10
REMARK VINA RESULT:      -6.9      2.111      7.585
REMARK  5 active torsions:
REMARK  status: ('A' for Active; 'I' for Inactive)
REMARK    1  A    between atoms: C_2  and  C_3 
REMARK    2  A    between atoms: C_6  and  C_7 
REMARK    3  A    between atoms: C_7  and  N_8 
REMARK    4  A    between atoms: C_7  and  C_21 
REMARK       I    between atoms: N_8  and  C_9 
REMARK       I    between atoms: C_9  and  N_10 
REMARK    5  A    between atoms: N_10  and  N_11 
ROOT
HETATM    1  N   UNL     1     -43.490  55.907 -56.357  1.00  0.00    -0.333 N 
HETATM    2  C   UNL     1     -42.971  55.301 -55.260  1.00  0.00     0.335 C 
HETATM    3  N   UNL     1     -41.727  55.700 -54.878  1.00  0.00    -0.244 N 
HETATM    4  O   UNL     1     -43.616  54.412 -54.713  1.00  0.00    -0.246 OA
HETATM    5  H   UNL     1     -44.419  55.570 -56.572  1.00  0.00     0.165 HD
HETATM    6  H   UNL     1     -41.497  56.671 -55.008  1.00  0.00     0.192 HD
ENDROOT
BRANCH   1   7
HETATM    7  C   UNL     1     -42.913  56.899 -57.264  1.00  0.00     0.122 C 
BRANCH   7   8
HETATM    8  C   UNL     1     -43.230  58.285 -56.723  1.00  0.00    -0.035 A 
HETATM    9  C   UNL     1     -44.563  58.698 -56.583  1.00  0.00     0.010 A 
HETATM   10  C   UNL     1     -44.869  59.963 -56.075  1.00  0.00     0.007 A 
HETATM   11  C   UNL     1     -43.849  60.847 -55.706  1.00  0.00    -0.059 A 
HETATM   12  C   UNL     1     -42.517  60.441 -55.847  1.00  0.00     0.007 A 
HETATM   13  C   UNL     1     -42.211  59.177 -56.352  1.00  0.00     0.010 A 
BRANCH  11  14
HETATM   14  C   UNL     1     -44.177  62.202 -55.132  1.00  0.00     0.034 C 
HETATM   15  C   UNL     1     -43.311  62.525 -53.923  1.00  0.00     0.010 C 
ENDBRANCH  11  14
ENDBRANCH   7   8
BRANCH   7  16
HETATM   16  C   UNL     1     -43.407  56.678 -58.722  1.00  0.00     0.005 C 
HETATM   17  C   UNL     1     -42.367  57.143 -59.751  1.00  0.00     0.012 C 
HETATM   18  C   UNL     1     -43.727  55.199 -58.981  1.00  0.00     0.012 C 
ENDBRANCH   7  16
ENDBRANCH   1   7
BRANCH   3  19
HETATM   19  N   UNL     1     -41.235  55.199 -53.717  1.00  0.00    -0.244 N 
HETATM   20  C   UNL     1     -40.690  53.952 -53.584  1.00  0.00     0.086 A 
HETATM   21  C   UNL     1     -40.570  53.810 -52.200  1.00  0.00     0.086 A 
HETATM   22  C   UNL     1     -40.306  52.955 -54.489  1.00  0.00     0.034 A 
HETATM   23  C   UNL     1     -40.040  52.620 -51.679  1.00  0.00     0.034 A 
HETATM   24  N   UNL     1     -41.038  54.923 -51.535  1.00  0.00    -0.240 NA
HETATM   25  C   UNL     1     -39.653  51.608 -52.565  1.00  0.00     0.002 A 
HETATM   26  C   UNL     1     -39.785  51.775 -53.945  1.00  0.00     0.002 A 
HETATM   27  C   UNL     1     -41.440  55.742 -52.485  1.00  0.00     0.234 A 
ENDBRANCH   3  19
TORSDOF 5
ENDMDL
