MODEL 1
REMARK VINA RESULT:      -7.0      0.000      0.000
REMARK  9 active torsions:
REMARK  status: ('A' for Active; 'I' for Inactive)
REMARK    1  A    between atoms: C_2  and  O_3 
REMARK    2  A    between atoms: O_3  and  C_4 
REMARK    3  A    between atoms: C_4  and  C_5 
REMARK    4  A    between atoms: C_7  and  C_8 
REMARK       I    between atoms: C_8  and  N_9 
REMARK    5  A    between atoms: N_9  and  N_10 
REMARK    6  A    between atoms: N_10  and  C_11 
REMARK    7  A    between atoms: C_11  and  N_12 
REMARK    8  A    between atoms: N_12  and  C_13 
REMARK    9  A    between atoms: C_13  and  C_14 
ROOT
HETATM    1  C   UNL     1     -41.762  59.180 -53.678  1.00  0.00     0.293 C 
HETATM    2  N   UNL     1     -42.510  59.593 -54.774  1.00  0.00    -0.262 N 
HETATM    3  O   UNL     1     -40.589  59.536 -53.554  1.00  0.00    -0.264 OA
HETATM    4  H   UNL     1     -43.524  59.519 -54.779  1.00  0.00     0.190 HD
ENDROOT
BRANCH   1   5
HETATM    5  C   UNL     1     -42.473  58.337 -52.737  1.00  0.00     0.145 A 
HETATM    6  O   UNL     1     -41.896  57.147 -52.375  1.00  0.00    -0.307 OA
HETATM    7  C   UNL     1     -42.740  56.522 -51.505  1.00  0.00     0.078 A 
HETATM    8  C   UNL     1     -43.857  57.299 -51.293  1.00  0.00     0.038 A 
HETATM    9  C   UNL     1     -43.687  58.464 -52.081  1.00  0.00     0.045 A 
BRANCH   7  10
HETATM   10  C   UNL     1     -42.309  55.198 -50.985  1.00  0.00     0.240 C 
BRANCH  10  11
HETATM   11  O   UNL     1     -40.936  55.053 -51.347  1.00  0.00    -0.345 OA
BRANCH  11  12
HETATM   12  C   UNL     1     -40.571  53.874 -51.934  1.00  0.00     0.069 A 
HETATM   13  C   UNL     1     -39.859  52.839 -51.326  1.00  0.00     0.038 A 
HETATM   14  C   UNL     1     -39.566  51.673 -52.042  1.00  0.00     0.022 A 
HETATM   15  C   UNL     1     -39.984  51.545 -53.366  1.00  0.00     0.011 A 
HETATM   16  C   UNL     1     -40.694  52.572 -53.980  1.00  0.00     0.022 A 
HETATM   17 BR   UNL     1     -39.587  49.968 -54.329  1.00  0.00    -0.051 Br
HETATM   18  C   UNL     1     -40.988  53.732 -53.261  1.00  0.00     0.038 A 
ENDBRANCH  11  12
ENDBRANCH  10  11
ENDBRANCH   7  10
ENDBRANCH   1   5
BRANCH   2  19
HETATM   19  N   UNL     1     -41.960  60.581 -55.618  1.00  0.00    -0.274 N 
HETATM   20  H   UNL     1     -42.025  61.519 -55.223  1.00  0.00     0.189 HD
BRANCH  19  21
HETATM   21  C   UNL     1     -42.078  60.455 -56.980  1.00  0.00     0.186 C 
HETATM   22  S   UNL     1     -41.403  61.501 -58.100  1.00  0.00    -0.040 SA
BRANCH  21  23
HETATM   23  N   UNL     1     -42.845  59.429 -57.433  1.00  0.00    -0.364 N 
HETATM   24  H   UNL     1     -43.847  59.569 -57.332  1.00  0.00     0.162 HD
BRANCH  23  25
HETATM   25  C   UNL     1     -42.458  58.082 -57.842  1.00  0.00     0.154 C 
BRANCH  25  26
HETATM   26  C   UNL     1     -43.453  57.017 -57.351  1.00  0.00     0.139 C 
HETATM   27  O   UNL     1     -43.605  57.132 -55.920  1.00  0.00    -0.384 OA
HETATM   28  C   UNL     1     -43.425  55.833 -55.342  1.00  0.00     0.168 C 
HETATM   29  C   UNL     1     -42.567  55.059 -56.313  1.00  0.00     0.029 C 
HETATM   30  C   UNL     1     -43.043  55.579 -57.647  1.00  0.00     0.035 C 
ENDBRANCH  25  26
ENDBRANCH  23  25
ENDBRANCH  21  23
ENDBRANCH  19  21
ENDBRANCH   2  19
TORSDOF 9
ENDMDL
MODEL 2
REMARK VINA RESULT:      -6.7      2.417      2.988
REMARK  9 active torsions:
REMARK  status: ('A' for Active; 'I' for Inactive)
REMARK    1  A    between atoms: C_2  and  O_3 
REMARK    2  A    between atoms: O_3  and  C_4 
REMARK    3  A    between atoms: C_4  and  C_5 
REMARK    4  A    between atoms: C_7  and  C_8 
REMARK       I    between atoms: C_8  and  N_9 
REMARK    5  A    between atoms: N_9  and  N_10 
REMARK    6  A    between atoms: N_10  and  C_11 
REMARK    7  A    between atoms: C_11  and  N_12 
REMARK    8  A    between atoms: N_12  and  C_13 
REMARK    9  A    between atoms: C_13  and  C_14 
ROOT
HETATM    1  C   UNL     1     -45.111  58.677 -55.080  1.00  0.00     0.293 C 
HETATM    2  N   UNL     1     -45.613  57.612 -55.817  1.00  0.00    -0.262 N 
HETATM    3  O   UNL     1     -45.481  59.829 -55.316  1.00  0.00    -0.264 OA
HETATM    4  H   UNL     1     -45.516  56.653 -55.494  1.00  0.00     0.190 HD
ENDROOT
BRANCH   1   5
HETATM    5  C   UNL     1     -44.162  58.310 -54.046  1.00  0.00     0.145 A 
HETATM    6  O   UNL     1     -44.069  56.987 -53.697  1.00  0.00    -0.307 OA
HETATM    7  C   UNL     1     -43.137  56.883 -52.708  1.00  0.00     0.078 A 
HETATM    8  C   UNL     1     -42.618  58.124 -52.416  1.00  0.00     0.038 A 
HETATM    9  C   UNL     1     -43.273  59.042 -53.275  1.00  0.00     0.045 A 
BRANCH   7  10
HETATM   10  C   UNL     1     -42.879  55.521 -52.170  1.00  0.00     0.240 C 
BRANCH  10  11
HETATM   11  O   UNL     1     -41.461  55.354 -52.165  1.00  0.00    -0.345 OA
BRANCH  11  12
HETATM   12  C   UNL     1     -40.979  54.133 -52.542  1.00  0.00     0.069 A 
HETATM   13  C   UNL     1     -40.235  53.261 -51.746  1.00  0.00     0.038 A 
HETATM   14  C   UNL     1     -39.819  52.026 -52.256  1.00  0.00     0.022 A 
HETATM   15  C   UNL     1     -40.146  51.666 -53.562  1.00  0.00     0.011 A 
HETATM   16  C   UNL     1     -40.887  52.529 -54.364  1.00  0.00     0.022 A 
HETATM   17 BR   UNL     1     -39.581  49.997 -54.246  1.00  0.00    -0.051 Br
HETATM   18  C   UNL     1     -41.304  53.758 -53.850  1.00  0.00     0.038 A 
ENDBRANCH  11  12
ENDBRANCH  10  11
ENDBRANCH   7  10
ENDBRANCH   1   5
BRANCH   2  19
HETATM   19  N   UNL     1     -46.692  57.861 -56.693  1.00  0.00    -0.274 N 
HETATM   20  H   UNL     1     -47.558  57.417 -56.387  1.00  0.00     0.189 HD
BRANCH  19  21
HETATM   21  C   UNL     1     -46.465  57.951 -58.043  1.00  0.00     0.186 C 
HETATM   22  S   UNL     1     -46.498  59.374 -58.926  1.00  0.00    -0.040 SA
BRANCH  21  23
HETATM   23  N   UNL     1     -46.249  56.784 -58.705  1.00  0.00    -0.364 N 
HETATM   24  H   UNL     1     -46.708  55.973 -58.298  1.00  0.00     0.162 HD
BRANCH  23  25
HETATM   25  C   UNL     1     -45.301  56.476 -59.772  1.00  0.00     0.154 C 
BRANCH  25  26
HETATM   26  C   UNL     1     -43.906  56.128 -59.227  1.00  0.00     0.139 C 
HETATM   27  O   UNL     1     -43.819  56.536 -57.845  1.00  0.00    -0.384 OA
HETATM   28  C   UNL     1     -42.626  57.311 -57.677  1.00  0.00     0.168 C 
HETATM   29  C   UNL     1     -42.312  57.894 -59.034  1.00  0.00     0.029 C 
HETATM   30  C   UNL     1     -42.750  56.791 -59.966  1.00  0.00     0.035 C 
ENDBRANCH  25  26
ENDBRANCH  23  25
ENDBRANCH  21  23
ENDBRANCH  19  21
ENDBRANCH   2  19
TORSDOF 9
ENDMDL
MODEL 3
REMARK VINA RESULT:      -6.6      2.379      2.760
REMARK  9 active torsions:
REMARK  status: ('A' for Active; 'I' for Inactive)
REMARK    1  A    between atoms: C_2  and  O_3 
REMARK    2  A    between atoms: O_3  and  C_4 
REMARK    3  A    between atoms: C_4  and  C_5 
REMARK    4  A    between atoms: C_7  and  C_8 
REMARK       I    between atoms: C_8  and  N_9 
REMARK    5  A    between atoms: N_9  and  N_10 
REMARK    6  A    between atoms: N_10  and  C_11 
REMARK    7  A    between atoms: C_11  and  N_12 
REMARK    8  A    between atoms: N_12  and  C_13 
REMARK    9  A    between atoms: C_13  and  C_14 
ROOT
HETATM    1  C   UNL     1     -41.557  58.724 -54.034  1.00  0.00     0.293 C 
HETATM    2  N   UNL     1     -42.167  57.648 -54.666  1.00  0.00    -0.262 N 
HETATM    3  O   UNL     1     -41.386  59.786 -54.635  1.00  0.00    -0.264 OA
HETATM    4  H   UNL     1     -42.533  56.862 -54.136  1.00  0.00     0.190 HD
ENDROOT
BRANCH   1   5
HETATM    5  C   UNL     1     -41.170  58.483 -52.657  1.00  0.00     0.145 A 
HETATM    6  O   UNL     1     -41.337  57.219 -52.152  1.00  0.00    -0.307 OA
HETATM    7  C   UNL     1     -40.927  57.232 -50.852  1.00  0.00     0.078 A 
HETATM    8  C   UNL     1     -40.488  58.491 -50.510  1.00  0.00     0.038 A 
HETATM    9  C   UNL     1     -40.641  59.295 -51.666  1.00  0.00     0.045 A 
BRANCH   7  10
HETATM   10  C   UNL     1     -41.028  55.952 -50.103  1.00  0.00     0.240 C 
BRANCH  10  11
HETATM   11  O   UNL     1     -41.869  55.099 -50.880  1.00  0.00    -0.345 OA
BRANCH  11  12
HETATM   12  C   UNL     1     -41.267  54.057 -51.527  1.00  0.00     0.069 A 
HETATM   13  C   UNL     1     -40.326  53.182 -50.979  1.00  0.00     0.038 A 
HETATM   14  C   UNL     1     -39.803  52.141 -51.754  1.00  0.00     0.022 A 
HETATM   15  C   UNL     1     -40.218  51.977 -53.074  1.00  0.00     0.011 A 
HETATM   16  C   UNL     1     -41.155  52.845 -53.628  1.00  0.00     0.022 A 
HETATM   17 BR   UNL     1     -39.508  50.570 -54.116  1.00  0.00    -0.051 Br
HETATM   18  C   UNL     1     -41.679  53.880 -52.851  1.00  0.00     0.038 A 
ENDBRANCH  11  12
ENDBRANCH  10  11
ENDBRANCH   7  10
ENDBRANCH   1   5
BRANCH   2  19
HETATM   19  N   UNL     1     -42.759  57.869 -55.929  1.00  0.00    -0.274 N 
HETATM   20  H   UNL     1     -43.233  58.771 -55.988  1.00  0.00     0.189 HD
BRANCH  19  21
HETATM   21  C   UNL     1     -43.305  56.816 -56.618  1.00  0.00     0.186 C 
HETATM   22  S   UNL     1     -42.808  55.223 -56.482  1.00  0.00    -0.040 SA
BRANCH  21  23
HETATM   23  N   UNL     1     -44.286  57.114 -57.509  1.00  0.00    -0.364 N 
HETATM   24  H   UNL     1     -45.106  56.516 -57.456  1.00  0.00     0.162 HD
BRANCH  23  25
HETATM   25  C   UNL     1     -44.261  58.011 -58.663  1.00  0.00     0.154 C 
BRANCH  25  26
HETATM   26  C   UNL     1     -44.473  57.259 -59.987  1.00  0.00     0.139 C 
HETATM   27  O   UNL     1     -45.802  56.697 -60.009  1.00  0.00    -0.384 OA
HETATM   28  C   UNL     1     -45.701  55.312 -60.361  1.00  0.00     0.168 C 
HETATM   29  C   UNL     1     -44.314  54.877 -59.954  1.00  0.00     0.029 C 
HETATM   30  C   UNL     1     -43.496  56.115 -60.232  1.00  0.00     0.035 C 
ENDBRANCH  25  26
ENDBRANCH  23  25
ENDBRANCH  21  23
ENDBRANCH  19  21
ENDBRANCH   2  19
TORSDOF 9
ENDMDL
MODEL 4
REMARK VINA RESULT:      -6.5      2.229      3.498
REMARK  9 active torsions:
REMARK  status: ('A' for Active; 'I' for Inactive)
REMARK    1  A    between atoms: C_2  and  O_3 
REMARK    2  A    between atoms: O_3  and  C_4 
REMARK    3  A    between atoms: C_4  and  C_5 
REMARK    4  A    between atoms: C_7  and  C_8 
REMARK       I    between atoms: C_8  and  N_9 
REMARK    5  A    between atoms: N_9  and  N_10 
REMARK    6  A    between atoms: N_10  and  C_11 
REMARK    7  A    between atoms: C_11  and  N_12 
REMARK    8  A    between atoms: N_12  and  C_13 
REMARK    9  A    between atoms: C_13  and  C_14 
ROOT
HETATM    1  C   UNL     1     -42.221  59.687 -55.921  1.00  0.00     0.293 C 
HETATM    2  N   UNL     1     -43.068  58.687 -56.383  1.00  0.00    -0.262 N 
HETATM    3  O   UNL     1     -41.377  60.184 -56.668  1.00  0.00    -0.264 OA
HETATM    4  H   UNL     1     -43.913  58.435 -55.878  1.00  0.00     0.190 HD
ENDROOT
BRANCH   1   5
HETATM    5  C   UNL     1     -42.431  60.073 -54.539  1.00  0.00     0.145 A 
HETATM    6  O   UNL     1     -42.199  59.136 -53.566  1.00  0.00    -0.307 OA
HETATM    7  C   UNL     1     -42.474  59.711 -52.360  1.00  0.00     0.078 A 
HETATM    8  C   UNL     1     -42.874  61.016 -52.542  1.00  0.00     0.038 A 
HETATM    9  C   UNL     1     -42.846  61.252 -53.938  1.00  0.00     0.045 A 
BRANCH   7  10
HETATM   10  C   UNL     1     -42.293  58.862 -51.154  1.00  0.00     0.240 C 
BRANCH  10  11
HETATM   11  O   UNL     1     -43.177  57.752 -51.310  1.00  0.00    -0.345 OA
BRANCH  11  12
HETATM   12  C   UNL     1     -42.635  56.504 -51.181  1.00  0.00     0.069 A 
HETATM   13  C   UNL     1     -43.235  55.304 -51.563  1.00  0.00     0.038 A 
HETATM   14  C   UNL     1     -42.556  54.093 -51.390  1.00  0.00     0.022 A 
HETATM   15  C   UNL     1     -41.279  54.084 -50.832  1.00  0.00     0.011 A 
HETATM   16  C   UNL     1     -40.673  55.276 -50.447  1.00  0.00     0.022 A 
HETATM   17 BR   UNL     1     -40.366  52.446 -50.599  1.00  0.00    -0.051 Br
HETATM   18  C   UNL     1     -41.352  56.483 -50.626  1.00  0.00     0.038 A 
ENDBRANCH  11  12
ENDBRANCH  10  11
ENDBRANCH   7  10
ENDBRANCH   1   5
BRANCH   2  19
HETATM   19  N   UNL     1     -43.069  58.406 -57.766  1.00  0.00    -0.274 N 
HETATM   20  H   UNL     1     -43.365  59.203 -58.330  1.00  0.00     0.189 HD
BRANCH  19  21
HETATM   21  C   UNL     1     -43.416  57.153 -58.206  1.00  0.00     0.186 C 
HETATM   22  S   UNL     1     -43.604  56.720 -59.813  1.00  0.00    -0.040 SA
BRANCH  21  23
HETATM   23  N   UNL     1     -43.670  56.220 -57.251  1.00  0.00    -0.364 N 
HETATM   24  H   UNL     1     -44.443  56.446 -56.630  1.00  0.00     0.162 HD
BRANCH  23  25
HETATM   25  C   UNL     1     -42.882  55.059 -56.845  1.00  0.00     0.154 C 
BRANCH  25  26
HETATM   26  C   UNL     1     -42.569  55.067 -55.340  1.00  0.00     0.139 C 
HETATM   27  O   UNL     1     -41.777  56.232 -55.024  1.00  0.00    -0.384 OA
HETATM   28  C   UNL     1     -40.633  55.810 -54.272  1.00  0.00     0.168 C 
HETATM   29  C   UNL     1     -40.393  54.368 -54.650  1.00  0.00     0.029 C 
HETATM   30  C   UNL     1     -41.798  53.850 -54.844  1.00  0.00     0.035 C 
ENDBRANCH  25  26
ENDBRANCH  23  25
ENDBRANCH  21  23
ENDBRANCH  19  21
ENDBRANCH   2  19
TORSDOF 9
ENDMDL
MODEL 5
REMARK VINA RESULT:      -6.5      2.516      2.993
REMARK  9 active torsions:
REMARK  status: ('A' for Active; 'I' for Inactive)
REMARK    1  A    between atoms: C_2  and  O_3 
REMARK    2  A    between atoms: O_3  and  C_4 
REMARK    3  A    between atoms: C_4  and  C_5 
REMARK    4  A    between atoms: C_7  and  C_8 
REMARK       I    between atoms: C_8  and  N_9 
REMARK    5  A    between atoms: N_9  and  N_10 
REMARK    6  A    between atoms: N_10  and  C_11 
REMARK    7  A    between atoms: C_11  and  N_12 
REMARK    8  A    between atoms: N_12  and  C_13 
REMARK    9  A    between atoms: C_13  and  C_14 
ROOT
HETATM    1  C   UNL     1     -44.946  58.523 -54.418  1.00  0.00     0.293 C 
HETATM    2  N   UNL     1     -45.266  57.453 -55.244  1.00  0.00    -0.262 N 
HETATM    3  O   UNL     1     -45.410  59.644 -54.640  1.00  0.00    -0.264 OA
HETATM    4  H   UNL     1     -45.100  56.494 -54.953  1.00  0.00     0.190 HD
ENDROOT
BRANCH   1   5
HETATM    5  C   UNL     1     -44.062  58.200 -53.316  1.00  0.00     0.145 A 
HETATM    6  O   UNL     1     -43.760  56.880 -53.098  1.00  0.00    -0.307 OA
HETATM    7  C   UNL     1     -42.936  56.815 -52.013  1.00  0.00     0.078 A 
HETATM    8  C   UNL     1     -42.694  58.081 -51.529  1.00  0.00     0.038 A 
HETATM    9  C   UNL     1     -43.413  58.971 -52.364  1.00  0.00     0.045 A 
BRANCH   7  10
HETATM   10  C   UNL     1     -42.486  55.462 -51.592  1.00  0.00     0.240 C 
BRANCH  10  11
HETATM   11  O   UNL     1     -41.135  55.335 -52.032  1.00  0.00    -0.345 OA
BRANCH  11  12
HETATM   12  C   UNL     1     -40.729  54.095 -52.438  1.00  0.00     0.069 A 
HETATM   13  C   UNL     1     -40.139  53.118 -51.634  1.00  0.00     0.038 A 
HETATM   14  C   UNL     1     -39.788  51.878 -52.179  1.00  0.00     0.022 A 
HETATM   15  C   UNL     1     -40.026  51.617 -53.528  1.00  0.00     0.011 A 
HETATM   16  C   UNL     1     -40.613  52.585 -54.337  1.00  0.00     0.022 A 
HETATM   17 BR   UNL     1     -39.550  49.941 -54.259  1.00  0.00    -0.051 Br
HETATM   18  C   UNL     1     -40.966  53.819 -53.789  1.00  0.00     0.038 A 
ENDBRANCH  11  12
ENDBRANCH  10  11
ENDBRANCH   7  10
ENDBRANCH   1   5
BRANCH   2  19
HETATM   19  N   UNL     1     -46.282  57.639 -56.207  1.00  0.00    -0.274 N 
HETATM   20  H   UNL     1     -47.021  56.939 -56.141  1.00  0.00     0.189 HD
BRANCH  19  21
HETATM   21  C   UNL     1     -45.957  58.105 -57.456  1.00  0.00     0.186 C 
HETATM   22  S   UNL     1     -46.943  59.073 -58.403  1.00  0.00    -0.040 SA
BRANCH  21  23
HETATM   23  N   UNL     1     -44.766  57.699 -57.968  1.00  0.00    -0.364 N 
HETATM   24  H   UNL     1     -44.122  57.304 -57.288  1.00  0.00     0.162 HD
BRANCH  23  25
HETATM   25  C   UNL     1     -44.186  57.935 -59.288  1.00  0.00     0.154 C 
BRANCH  25  26
HETATM   26  C   UNL     1     -43.589  56.655 -59.897  1.00  0.00     0.139 C 
HETATM   27  O   UNL     1     -44.358  56.276 -61.058  1.00  0.00    -0.384 OA
HETATM   28  C   UNL     1     -44.710  54.892 -60.935  1.00  0.00     0.168 C 
HETATM   29  C   UNL     1     -44.700  54.589 -59.456  1.00  0.00     0.029 C 
HETATM   30  C   UNL     1     -43.569  55.454 -58.958  1.00  0.00     0.035 C 
ENDBRANCH  25  26
ENDBRANCH  23  25
ENDBRANCH  21  23
ENDBRANCH  19  21
ENDBRANCH   2  19
TORSDOF 9
ENDMDL
MODEL 6
REMARK VINA RESULT:      -6.5      2.263      3.274
REMARK  9 active torsions:
REMARK  status: ('A' for Active; 'I' for Inactive)
REMARK    1  A    between atoms: C_2  and  O_3 
REMARK    2  A    between atoms: O_3  and  C_4 
REMARK    3  A    between atoms: C_4  and  C_5 
REMARK    4  A    between atoms: C_7  and  C_8 
REMARK       I    between atoms: C_8  and  N_9 
REMARK    5  A    between atoms: N_9  and  N_10 
REMARK    6  A    between atoms: N_10  and  C_11 
REMARK    7  A    between atoms: C_11  and  N_12 
REMARK    8  A    between atoms: N_12  and  C_13 
REMARK    9  A    between atoms: C_13  and  C_14 
ROOT
HETATM    1  C   UNL     1     -44.506  57.545 -55.143  1.00  0.00     0.293 C 
HETATM    2  N   UNL     1     -43.797  56.875 -56.131  1.00  0.00    -0.262 N 
HETATM    3  O   UNL     1     -45.466  58.259 -55.439  1.00  0.00    -0.264 OA
HETATM    4  H   UNL     1     -43.172  56.107 -55.904  1.00  0.00     0.190 HD
ENDROOT
BRANCH   1   5
HETATM    5  C   UNL     1     -44.031  57.319 -53.791  1.00  0.00     0.145 A 
HETATM    6  O   UNL     1     -42.774  56.797 -53.629  1.00  0.00    -0.307 OA
HETATM    7  C   UNL     1     -42.550  56.658 -52.291  1.00  0.00     0.078 A 
HETATM    8  C   UNL     1     -43.648  57.093 -51.583  1.00  0.00     0.038 A 
HETATM    9  C   UNL     1     -44.599  57.519 -52.542  1.00  0.00     0.045 A 
BRANCH   7  10
HETATM   10  C   UNL     1     -41.235  56.097 -51.885  1.00  0.00     0.240 C 
BRANCH  10  11
HETATM   11  O   UNL     1     -41.507  54.826 -51.296  1.00  0.00    -0.345 OA
BRANCH  11  12
HETATM   12  C   UNL     1     -40.980  53.729 -51.917  1.00  0.00     0.069 A 
HETATM   13  C   UNL     1     -40.107  52.801 -51.347  1.00  0.00     0.038 A 
HETATM   14  C   UNL     1     -39.658  51.707 -52.096  1.00  0.00     0.022 A 
HETATM   15  C   UNL     1     -40.080  51.545 -53.414  1.00  0.00     0.011 A 
HETATM   16  C   UNL     1     -40.949  52.466 -53.991  1.00  0.00     0.022 A 
HETATM   17 BR   UNL     1     -39.470  50.067 -54.421  1.00  0.00    -0.051 Br
HETATM   18  C   UNL     1     -41.399  53.553 -53.240  1.00  0.00     0.038 A 
ENDBRANCH  11  12
ENDBRANCH  10  11
ENDBRANCH   7  10
ENDBRANCH   1   5
BRANCH   2  19
HETATM   19  N   UNL     1     -44.324  56.874 -57.441  1.00  0.00    -0.274 N 
HETATM   20  H   UNL     1     -45.301  56.583 -57.472  1.00  0.00     0.189 HD
BRANCH  19  21
HETATM   21  C   UNL     1     -43.521  56.522 -58.497  1.00  0.00     0.186 C 
HETATM   22  S   UNL     1     -43.872  55.317 -59.606  1.00  0.00    -0.040 SA
BRANCH  21  23
HETATM   23  N   UNL     1     -42.335  57.175 -58.606  1.00  0.00    -0.364 N 
HETATM   24  H   UNL     1     -41.557  56.728 -58.129  1.00  0.00     0.162 HD
BRANCH  23  25
HETATM   25  C   UNL     1     -42.049  58.515 -59.115  1.00  0.00     0.154 C 
BRANCH  25  26
HETATM   26  C   UNL     1     -41.726  59.508 -57.986  1.00  0.00     0.139 C 
HETATM   27  O   UNL     1     -42.856  59.598 -57.093  1.00  0.00    -0.384 OA
HETATM   28  C   UNL     1     -43.172  60.983 -56.904  1.00  0.00     0.168 C 
HETATM   29  C   UNL     1     -42.659  61.700 -58.130  1.00  0.00     0.029 C 
HETATM   30  C   UNL     1     -41.408  60.922 -58.456  1.00  0.00     0.035 C 
ENDBRANCH  25  26
ENDBRANCH  23  25
ENDBRANCH  21  23
ENDBRANCH  19  21
ENDBRANCH   2  19
TORSDOF 9
ENDMDL
MODEL 7
REMARK VINA RESULT:      -6.3      1.932      2.488
REMARK  9 active torsions:
REMARK  status: ('A' for Active; 'I' for Inactive)
REMARK    1  A    between atoms: C_2  and  O_3 
REMARK    2  A    between atoms: O_3  and  C_4 
REMARK    3  A    between atoms: C_4  and  C_5 
REMARK    4  A    between atoms: C_7  and  C_8 
REMARK       I    between atoms: C_8  and  N_9 
REMARK    5  A    between atoms: N_9  and  N_10 
REMARK    6  A    between atoms: N_10  and  C_11 
REMARK    7  A    between atoms: C_11  and  N_12 
REMARK    8  A    between atoms: N_12  and  C_13 
REMARK    9  A    between atoms: C_13  and  C_14 
ROOT
HETATM    1  C   UNL     1     -42.176  60.032 -55.409  1.00  0.00     0.293 C 
HETATM    2  N   UNL     1     -42.032  59.720 -56.755  1.00  0.00    -0.262 N 
HETATM    3  O   UNL     1     -42.651  61.116 -55.066  1.00  0.00    -0.264 OA
HETATM    4  H   UNL     1     -41.876  58.765 -57.063  1.00  0.00     0.190 HD
ENDROOT
BRANCH   1   5
HETATM    5  C   UNL     1     -41.742  58.995 -54.493  1.00  0.00     0.145 A 
HETATM    6  O   UNL     1     -42.205  57.720 -54.696  1.00  0.00    -0.307 OA
HETATM    7  C   UNL     1     -41.684  56.927 -53.717  1.00  0.00     0.078 A 
HETATM    8  C   UNL     1     -40.881  57.673 -52.885  1.00  0.00     0.038 A 
HETATM    9  C   UNL     1     -40.914  58.999 -53.381  1.00  0.00     0.045 A 
BRANCH   7  10
HETATM   10  C   UNL     1     -42.066  55.490 -53.743  1.00  0.00     0.240 C 
BRANCH  10  11
HETATM   11  O   UNL     1     -40.940  54.786 -54.263  1.00  0.00    -0.345 OA
BRANCH  11  12
HETATM   12  C   UNL     1     -40.581  53.632 -53.625  1.00  0.00     0.069 A 
HETATM   13  C   UNL     1     -40.145  52.455 -54.237  1.00  0.00     0.038 A 
HETATM   14  C   UNL     1     -39.790  51.349 -53.457  1.00  0.00     0.022 A 
HETATM   15  C   UNL     1     -39.873  51.420 -52.068  1.00  0.00     0.011 A 
HETATM   16  C   UNL     1     -40.307  52.589 -51.449  1.00  0.00     0.022 A 
HETATM   17 BR   UNL     1     -39.392  49.923 -51.019  1.00  0.00    -0.051 Br
HETATM   18  C   UNL     1     -40.656  53.692 -52.230  1.00  0.00     0.038 A 
ENDBRANCH  11  12
ENDBRANCH  10  11
ENDBRANCH   7  10
ENDBRANCH   1   5
BRANCH   2  19
HETATM   19  N   UNL     1     -42.623  60.584 -57.702  1.00  0.00    -0.274 N 
HETATM   20  H   UNL     1     -43.640  60.498 -57.734  1.00  0.00     0.189 HD
BRANCH  19  21
HETATM   21  C   UNL     1     -41.971  60.851 -58.880  1.00  0.00     0.186 C 
HETATM   22  S   UNL     1     -40.853  62.079 -59.098  1.00  0.00    -0.040 SA
BRANCH  21  23
HETATM   23  N   UNL     1     -42.307  60.086 -59.950  1.00  0.00    -0.364 N 
HETATM   24  H   UNL     1     -43.052  60.465 -60.529  1.00  0.00     0.162 HD
BRANCH  23  25
HETATM   25  C   UNL     1     -41.919  58.716 -60.279  1.00  0.00     0.154 C 
BRANCH  25  26
HETATM   26  C   UNL     1     -43.075  57.722 -60.079  1.00  0.00     0.139 C 
HETATM   27  O   UNL     1     -43.894  58.159 -58.973  1.00  0.00    -0.384 OA
HETATM   28  C   UNL     1     -44.074  57.053 -58.080  1.00  0.00     0.168 C 
HETATM   29  C   UNL     1     -42.890  56.142 -58.299  1.00  0.00     0.029 C 
HETATM   30  C   UNL     1     -42.640  56.292 -59.780  1.00  0.00     0.035 C 
ENDBRANCH  25  26
ENDBRANCH  23  25
ENDBRANCH  21  23
ENDBRANCH  19  21
ENDBRANCH   2  19
TORSDOF 9
ENDMDL
MODEL 8
REMARK VINA RESULT:      -6.3     16.171     18.857
REMARK  9 active torsions:
REMARK  status: ('A' for Active; 'I' for Inactive)
REMARK    1  A    between atoms: C_2  and  O_3 
REMARK    2  A    between atoms: O_3  and  C_4 
REMARK    3  A    between atoms: C_4  and  C_5 
REMARK    4  A    between atoms: C_7  and  C_8 
REMARK       I    between atoms: C_8  and  N_9 
REMARK    5  A    between atoms: N_9  and  N_10 
REMARK    6  A    between atoms: N_10  and  C_11 
REMARK    7  A    between atoms: C_11  and  N_12 
REMARK    8  A    between atoms: N_12  and  C_13 
REMARK    9  A    between atoms: C_13  and  C_14 
ROOT
HETATM    1  C   UNL     1     -36.227  42.148 -56.553  1.00  0.00     0.293 C 
HETATM    2  N   UNL     1     -37.255  42.068 -55.622  1.00  0.00    -0.262 N 
HETATM    3  O   UNL     1     -35.106  42.531 -56.214  1.00  0.00    -0.264 OA
HETATM    4  H   UNL     1     -38.101  41.539 -55.813  1.00  0.00     0.190 HD
ENDROOT
BRANCH   1   5
HETATM    5  C   UNL     1     -36.590  41.744 -57.898  1.00  0.00     0.145 A 
HETATM    6  O   UNL     1     -36.279  40.469 -58.294  1.00  0.00    -0.307 OA
HETATM    7  C   UNL     1     -36.695  40.320 -59.583  1.00  0.00     0.078 A 
HETATM    8  C   UNL     1     -37.281  41.485 -60.026  1.00  0.00     0.038 A 
HETATM    9  C   UNL     1     -37.217  42.399 -58.947  1.00  0.00     0.045 A 
BRANCH   7  10
HETATM   10  C   UNL     1     -36.448  39.000 -60.220  1.00  0.00     0.240 C 
BRANCH  10  11
HETATM   11  O   UNL     1     -37.500  38.141 -59.783  1.00  0.00    -0.345 OA
BRANCH  11  12
HETATM   12  C   UNL     1     -38.588  38.026 -60.602  1.00  0.00     0.069 A 
HETATM   13  C   UNL     1     -39.925  38.053 -60.201  1.00  0.00     0.038 A 
HETATM   14  C   UNL     1     -40.945  37.943 -61.153  1.00  0.00     0.022 A 
HETATM   15  C   UNL     1     -40.627  37.804 -62.503  1.00  0.00     0.011 A 
HETATM   16  C   UNL     1     -39.297  37.775 -62.911  1.00  0.00     0.022 A 
HETATM   17 BR   UNL     1     -42.008  37.655 -63.784  1.00  0.00    -0.051 Br
HETATM   18  C   UNL     1     -38.281  37.890 -61.959  1.00  0.00     0.038 A 
ENDBRANCH  11  12
ENDBRANCH  10  11
ENDBRANCH   7  10
ENDBRANCH   1   5
BRANCH   2  19
HETATM   19  N   UNL     1     -36.929  42.240 -54.259  1.00  0.00    -0.274 N 
HETATM   20  H   UNL     1     -36.356  43.068 -54.092  1.00  0.00     0.189 HD
BRANCH  19  21
HETATM   21  C   UNL     1     -36.703  41.141 -53.469  1.00  0.00     0.186 C 
HETATM   22  S   UNL     1     -37.679  40.660 -52.196  1.00  0.00    -0.040 SA
BRANCH  21  23
HETATM   23  N   UNL     1     -35.573  40.431 -53.722  1.00  0.00    -0.364 N 
HETATM   24  H   UNL     1     -35.399  40.242 -54.705  1.00  0.00     0.162 HD
BRANCH  23  25
HETATM   25  C   UNL     1     -34.690  39.719 -52.800  1.00  0.00     0.154 C 
BRANCH  25  26
HETATM   26  C   UNL     1     -33.639  40.648 -52.171  1.00  0.00     0.139 C 
HETATM   27  O   UNL     1     -32.341  40.020 -52.246  1.00  0.00    -0.384 OA
HETATM   28  C   UNL     1     -31.744  40.062 -50.944  1.00  0.00     0.168 C 
HETATM   29  C   UNL     1     -32.888  40.146 -49.962  1.00  0.00     0.029 C 
HETATM   30  C   UNL     1     -33.889  40.993 -50.708  1.00  0.00     0.035 C 
ENDBRANCH  25  26
ENDBRANCH  23  25
ENDBRANCH  21  23
ENDBRANCH  19  21
ENDBRANCH   2  19
TORSDOF 9
ENDMDL
MODEL 9
REMARK VINA RESULT:      -6.3     16.251     18.528
REMARK  9 active torsions:
REMARK  status: ('A' for Active; 'I' for Inactive)
REMARK    1  A    between atoms: C_2  and  O_3 
REMARK    2  A    between atoms: O_3  and  C_4 
REMARK    3  A    between atoms: C_4  and  C_5 
REMARK    4  A    between atoms: C_7  and  C_8 
REMARK       I    between atoms: C_8  and  N_9 
REMARK    5  A    between atoms: N_9  and  N_10 
REMARK    6  A    between atoms: N_10  and  C_11 
REMARK    7  A    between atoms: C_11  and  N_12 
REMARK    8  A    between atoms: N_12  and  C_13 
REMARK    9  A    between atoms: C_13  and  C_14 
ROOT
HETATM    1  C   UNL     1     -36.548  41.929 -53.654  1.00  0.00     0.293 C 
HETATM    2  N   UNL     1     -37.559  41.010 -53.401  1.00  0.00    -0.262 N 
HETATM    3  O   UNL     1     -36.096  42.626 -52.744  1.00  0.00    -0.264 OA
HETATM    4  H   UNL     1     -37.776  40.269 -54.061  1.00  0.00     0.190 HD
ENDROOT
BRANCH   1   5
HETATM    5  C   UNL     1     -36.095  41.973 -55.031  1.00  0.00     0.145 A 
HETATM    6  O   UNL     1     -37.036  41.878 -56.023  1.00  0.00    -0.307 OA
HETATM    7  C   UNL     1     -36.386  41.926 -57.220  1.00  0.00     0.078 A 
HETATM    8  C   UNL     1     -35.031  42.059 -57.015  1.00  0.00     0.038 A 
HETATM    9  C   UNL     1     -34.842  42.091 -55.612  1.00  0.00     0.045 A 
BRANCH   7  10
HETATM   10  C   UNL     1     -37.225  41.831 -58.444  1.00  0.00     0.240 C 
BRANCH  10  11
HETATM   11  O   UNL     1     -36.639  40.813 -59.254  1.00  0.00    -0.345 OA
BRANCH  11  12
HETATM   12  C   UNL     1     -37.489  39.900 -59.814  1.00  0.00     0.069 A 
HETATM   13  C   UNL     1     -38.558  39.272 -59.173  1.00  0.00     0.038 A 
HETATM   14  C   UNL     1     -39.363  38.367 -59.875  1.00  0.00     0.022 A 
HETATM   15  C   UNL     1     -39.095  38.090 -61.215  1.00  0.00     0.011 A 
HETATM   16  C   UNL     1     -38.030  38.712 -61.861  1.00  0.00     0.022 A 
HETATM   17 BR   UNL     1     -40.184  36.868 -62.158  1.00  0.00    -0.051 Br
HETATM   18  C   UNL     1     -37.233  39.617 -61.159  1.00  0.00     0.038 A 
ENDBRANCH  11  12
ENDBRANCH  10  11
ENDBRANCH   7  10
ENDBRANCH   1   5
BRANCH   2  19
HETATM   19  N   UNL     1     -37.904  40.759 -52.056  1.00  0.00    -0.274 N 
HETATM   20  H   UNL     1     -38.056  41.615 -51.521  1.00  0.00     0.189 HD
BRANCH  19  21
HETATM   21  C   UNL     1     -37.349  39.689 -51.399  1.00  0.00     0.186 C 
HETATM   22  S   UNL     1     -38.218  38.502 -50.598  1.00  0.00    -0.040 SA
BRANCH  21  23
HETATM   23  N   UNL     1     -35.992  39.632 -51.364  1.00  0.00    -0.364 N 
HETATM   24  H   UNL     1     -35.555  39.333 -52.232  1.00  0.00     0.162 HD
BRANCH  23  25
HETATM   25  C   UNL     1     -35.082  39.726 -50.225  1.00  0.00     0.154 C 
BRANCH  25  26
HETATM   26  C   UNL     1     -33.884  40.647 -50.515  1.00  0.00     0.139 C 
HETATM   27  O   UNL     1     -33.625  40.659 -51.935  1.00  0.00    -0.384 OA
HETATM   28  C   UNL     1     -32.231  40.396 -52.141  1.00  0.00     0.168 C 
HETATM   29  C   UNL     1     -31.768  39.624 -50.930  1.00  0.00     0.029 C 
HETATM   30  C   UNL     1     -32.588  40.241 -49.823  1.00  0.00     0.035 C 
ENDBRANCH  25  26
ENDBRANCH  23  25
ENDBRANCH  21  23
ENDBRANCH  19  21
ENDBRANCH   2  19
TORSDOF 9
ENDMDL
MODEL 10
REMARK VINA RESULT:      -6.3      2.181      2.719
REMARK  9 active torsions:
REMARK  status: ('A' for Active; 'I' for Inactive)
REMARK    1  A    between atoms: C_2  and  O_3 
REMARK    2  A    between atoms: O_3  and  C_4 
REMARK    3  A    between atoms: C_4  and  C_5 
REMARK    4  A    between atoms: C_7  and  C_8 
REMARK       I    between atoms: C_8  and  N_9 
REMARK    5  A    between atoms: N_9  and  N_10 
REMARK    6  A    between atoms: N_10  and  C_11 
REMARK    7  A    between atoms: C_11  and  N_12 
REMARK    8  A    between atoms: N_12  and  C_13 
REMARK    9  A    between atoms: C_13  and  C_14 
ROOT
HETATM    1  C   UNL     1     -43.269  58.320 -51.457  1.00  0.00     0.293 C 
HETATM    2  N   UNL     1     -44.373  58.722 -52.199  1.00  0.00    -0.262 N 
HETATM    3  O   UNL     1     -42.357  59.113 -51.214  1.00  0.00    -0.264 OA
HETATM    4  H   UNL     1     -45.230  58.178 -52.208  1.00  0.00     0.190 HD
ENDROOT
BRANCH   1   5
HETATM    5  C   UNL     1     -43.304  56.941 -51.010  1.00  0.00     0.145 A 
HETATM    6  O   UNL     1     -42.148  56.392 -50.518  1.00  0.00    -0.307 OA
HETATM    7  C   UNL     1     -42.412  55.099 -50.179  1.00  0.00     0.078 A 
HETATM    8  C   UNL     1     -43.731  54.804 -50.439  1.00  0.00     0.038 A 
HETATM    9  C   UNL     1     -44.307  55.984 -50.971  1.00  0.00     0.045 A 
BRANCH   7  10
HETATM   10  C   UNL     1     -41.283  54.307 -49.624  1.00  0.00     0.240 C 
BRANCH  10  11
HETATM   11  O   UNL     1     -40.218  54.411 -50.568  1.00  0.00    -0.345 OA
BRANCH  11  12
HETATM   12  C   UNL     1     -40.170  53.468 -51.556  1.00  0.00     0.069 A 
HETATM   13  C   UNL     1     -40.560  53.648 -52.884  1.00  0.00     0.038 A 
HETATM   14  C   UNL     1     -40.440  52.597 -53.800  1.00  0.00     0.022 A 
HETATM   15  C   UNL     1     -39.931  51.367 -53.386  1.00  0.00     0.011 A 
HETATM   16  C   UNL     1     -39.539  51.179 -52.064  1.00  0.00     0.022 A 
HETATM   17 BR   UNL     1     -39.770  49.951 -54.627  1.00  0.00    -0.051 Br
HETATM   18  C   UNL     1     -39.657  52.231 -51.154  1.00  0.00     0.038 A 
ENDBRANCH  11  12
ENDBRANCH  10  11
ENDBRANCH   7  10
ENDBRANCH   1   5
BRANCH   2  19
HETATM   19  N   UNL     1     -44.512  60.097 -52.487  1.00  0.00    -0.274 N 
HETATM   20  H   UNL     1     -44.615  60.667 -51.647  1.00  0.00     0.189 HD
BRANCH  19  21
HETATM   21  C   UNL     1     -45.195  60.491 -53.610  1.00  0.00     0.186 C 
HETATM   22  S   UNL     1     -45.726  62.051 -53.909  1.00  0.00    -0.040 SA
BRANCH  21  23
HETATM   23  N   UNL     1     -45.497  59.521 -54.512  1.00  0.00    -0.364 N 
HETATM   24  H   UNL     1     -46.223  58.874 -54.214  1.00  0.00     0.162 HD
BRANCH  23  25
HETATM   25  C   UNL     1     -44.804  59.135 -55.738  1.00  0.00     0.154 C 
BRANCH  25  26
HETATM   26  C   UNL     1     -44.687  57.609 -55.884  1.00  0.00     0.139 C 
HETATM   27  O   UNL     1     -44.478  57.020 -54.582  1.00  0.00    -0.384 OA
HETATM   28  C   UNL     1     -43.351  56.140 -54.661  1.00  0.00     0.168 C 
HETATM   29  C   UNL     1     -42.505  56.645 -55.805  1.00  0.00     0.029 C 
HETATM   30  C   UNL     1     -43.546  57.140 -56.779  1.00  0.00     0.035 C 
ENDBRANCH  25  26
ENDBRANCH  23  25
ENDBRANCH  21  23
ENDBRANCH  19  21
ENDBRANCH   2  19
TORSDOF 9
ENDMDL
