MODEL 1
REMARK VINA RESULT:      -9.4      0.000      0.000
REMARK  3 active torsions:
REMARK  status: ('A' for Active; 'I' for Inactive)
REMARK    1  A    between atoms: C_4  and  N_5 
REMARK       I    between atoms: N_5  and  C_6 
REMARK       I    between atoms: C_6  and  N_7 
REMARK    2  A    between atoms: C_10  and  C_11 
REMARK    3  A    between atoms: C_24  and  O_25 
ROOT
HETATM    1  N   UNL     1     -42.041  57.103 -57.701  1.00  0.00    -0.306 N 
HETATM    2  C   UNL     1     -42.917  56.770 -56.697  1.00  0.00     0.323 C 
HETATM    3  N   UNL     1     -42.411  55.824 -55.795  1.00  0.00    -0.330 N 
HETATM    4  C   UNL     1     -43.344  55.447 -54.738  1.00  0.00     0.155 C 
HETATM    5  C   UNL     1     -42.758  54.489 -53.748  1.00  0.00     0.001 C 
HETATM    6  C   UNL     1     -41.486  54.056 -53.758  1.00  0.00    -0.046 C 
HETATM    7  C   UNL     1     -40.528  54.514 -54.821  1.00  0.00     0.059 C 
HETATM    8  C   UNL     1     -40.987  55.831 -55.442  1.00  0.00     0.132 C 
HETATM    9  O   UNL     1     -44.048  57.239 -56.584  1.00  0.00    -0.247 OA
HETATM   10  H   UNL     1     -41.482  56.344 -58.070  1.00  0.00     0.171 HD
ENDROOT
BRANCH   1  11
HETATM   11  C   UNL     1     -42.092  58.250 -58.519  1.00  0.00     0.070 A 
HETATM   12  C   UNL     1     -41.785  59.525 -58.031  1.00  0.00     0.039 A 
HETATM   13  C   UNL     1     -41.767  60.632 -58.888  1.00  0.00    -0.060 A 
HETATM   14  C   UNL     1     -41.392  61.990 -58.375  1.00  0.00     0.048 C 
HETATM   15  C   UNL     1     -42.061  60.448 -60.244  1.00  0.00     0.009 A 
HETATM   16  C   UNL     1     -42.375  59.179 -60.738  1.00  0.00     0.039 A 
HETATM   17  C   UNL     1     -42.396  58.076 -59.881  1.00  0.00     0.095 A 
BRANCH  17  18
HETATM   18  O   UNL     1     -42.678  56.788 -60.277  1.00  0.00    -0.354 OA
HETATM   19  C   UNL     1     -44.053  56.494 -60.500  1.00  0.00     0.210 C 
ENDBRANCH  17  18
ENDBRANCH   1  11
BRANCH   6  20
HETATM   20  C   UNL     1     -40.920  53.232 -52.742  1.00  0.00    -0.002 A 
HETATM   21  C   UNL     1     -40.399  51.911 -52.894  1.00  0.00     0.003 A 
HETATM   22  C   UNL     1     -39.971  51.495 -51.631  1.00  0.00     0.043 A 
HETATM   23  C   UNL     1     -40.263  51.018 -53.978  1.00  0.00     0.014 A 
HETATM   24  C   UNL     1     -39.409  50.233 -51.402  1.00  0.00     0.030 A 
HETATM   25  N   UNL     1     -40.220  52.530 -50.757  1.00  0.00    -0.364 N 
HETATM   26  C   UNL     1     -39.285  49.368 -52.495  1.00  0.00     0.002 A 
HETATM   27  C   UNL     1     -39.705  49.753 -53.766  1.00  0.00     0.001 A 
HETATM   28  H   UNL     1     -40.007  52.507 -49.770  1.00  0.00     0.165 HD
HETATM   29  C   UNL     1     -40.804  53.581 -51.415  1.00  0.00     0.101 A 
ENDBRANCH   6  20
TORSDOF 3
ENDMDL
MODEL 2
REMARK VINA RESULT:      -9.0      1.287      2.227
REMARK  3 active torsions:
REMARK  status: ('A' for Active; 'I' for Inactive)
REMARK    1  A    between atoms: C_4  and  N_5 
REMARK       I    between atoms: N_5  and  C_6 
REMARK       I    between atoms: C_6  and  N_7 
REMARK    2  A    between atoms: C_10  and  C_11 
REMARK    3  A    between atoms: C_24  and  O_25 
ROOT
HETATM    1  N   UNL     1     -41.932  57.784 -57.662  1.00  0.00    -0.306 N 
HETATM    2  C   UNL     1     -42.776  56.787 -57.239  1.00  0.00     0.323 C 
HETATM    3  N   UNL     1     -42.200  55.916 -56.305  1.00  0.00    -0.330 N 
HETATM    4  C   UNL     1     -43.082  54.839 -55.867  1.00  0.00     0.155 C 
HETATM    5  C   UNL     1     -42.469  53.963 -54.820  1.00  0.00     0.001 C 
HETATM    6  C   UNL     1     -41.262  54.159 -54.264  1.00  0.00    -0.046 C 
HETATM    7  C   UNL     1     -40.402  55.317 -54.686  1.00  0.00     0.059 C 
HETATM    8  C   UNL     1     -41.243  56.425 -55.315  1.00  0.00     0.132 C 
HETATM    9  O   UNL     1     -43.932  56.647 -57.634  1.00  0.00    -0.247 OA
HETATM   10  H   UNL     1     -40.964  57.518 -57.792  1.00  0.00     0.171 HD
ENDROOT
BRANCH   1  11
HETATM   11  C   UNL     1     -42.301  58.994 -58.284  1.00  0.00     0.070 A 
HETATM   12  C   UNL     1     -42.860  59.030 -59.567  1.00  0.00     0.039 A 
HETATM   13  C   UNL     1     -43.291  60.240 -60.124  1.00  0.00    -0.060 A 
HETATM   14  C   UNL     1     -43.932  60.273 -61.479  1.00  0.00     0.048 C 
HETATM   15  C   UNL     1     -43.156  61.418 -59.381  1.00  0.00     0.009 A 
HETATM   16  C   UNL     1     -42.593  61.392 -58.101  1.00  0.00     0.039 A 
HETATM   17  C   UNL     1     -42.160  60.185 -57.548  1.00  0.00     0.095 A 
BRANCH  17  18
HETATM   18  O   UNL     1     -41.610  60.057 -56.293  1.00  0.00    -0.354 OA
HETATM   19  C   UNL     1     -42.474  60.357 -55.202  1.00  0.00     0.210 C 
ENDBRANCH  17  18
ENDBRANCH   1  11
BRANCH   6  20
HETATM   20  C   UNL     1     -40.746  53.377 -53.189  1.00  0.00    -0.002 A 
HETATM   21  C   UNL     1     -40.319  52.015 -53.241  1.00  0.00     0.003 A 
HETATM   22  C   UNL     1     -39.911  51.667 -51.952  1.00  0.00     0.043 A 
HETATM   23  C   UNL     1     -40.254  51.035 -54.255  1.00  0.00     0.014 A 
HETATM   24  C   UNL     1     -39.437  50.390 -51.628  1.00  0.00     0.030 A 
HETATM   25  N   UNL     1     -40.080  52.781 -51.159  1.00  0.00    -0.364 N 
HETATM   26  C   UNL     1     -39.382  49.438 -52.653  1.00  0.00     0.002 A 
HETATM   27  C   UNL     1     -39.784  49.754 -53.948  1.00  0.00     0.001 A 
HETATM   28  H   UNL     1     -39.862  52.817 -50.174  1.00  0.00     0.165 HD
HETATM   29  C   UNL     1     -40.596  53.817 -51.893  1.00  0.00     0.101 A 
ENDBRANCH   6  20
TORSDOF 3
ENDMDL
MODEL 3
REMARK VINA RESULT:      -8.9      2.188      2.585
REMARK  3 active torsions:
REMARK  status: ('A' for Active; 'I' for Inactive)
REMARK    1  A    between atoms: C_4  and  N_5 
REMARK       I    between atoms: N_5  and  C_6 
REMARK       I    between atoms: C_6  and  N_7 
REMARK    2  A    between atoms: C_10  and  C_11 
REMARK    3  A    between atoms: C_24  and  O_25 
ROOT
HETATM    1  N   UNL     1     -44.420  57.038 -56.756  1.00  0.00    -0.306 N 
HETATM    2  C   UNL     1     -43.123  57.307 -56.394  1.00  0.00     0.323 C 
HETATM    3  N   UNL     1     -42.611  56.429 -55.430  1.00  0.00    -0.330 N 
HETATM    4  C   UNL     1     -41.240  56.720 -55.022  1.00  0.00     0.155 C 
HETATM    5  C   UNL     1     -40.692  55.729 -54.043  1.00  0.00     0.001 C 
HETATM    6  C   UNL     1     -41.339  54.632 -53.617  1.00  0.00    -0.046 C 
HETATM    7  C   UNL     1     -42.725  54.320 -54.106  1.00  0.00     0.059 C 
HETATM    8  C   UNL     1     -43.007  55.016 -55.436  1.00  0.00     0.132 C 
HETATM    9  O   UNL     1     -42.455  58.231 -56.854  1.00  0.00    -0.247 OA
HETATM   10  H   UNL     1     -45.034  56.740 -56.010  1.00  0.00     0.171 HD
ENDROOT
BRANCH   1  11
HETATM   11  C   UNL     1     -45.078  57.478 -57.923  1.00  0.00     0.070 A 
HETATM   12  C   UNL     1     -45.946  58.576 -57.918  1.00  0.00     0.039 A 
HETATM   13  C   UNL     1     -46.520  59.037 -59.109  1.00  0.00    -0.060 A 
HETATM   14  C   UNL     1     -47.413  60.242 -59.111  1.00  0.00     0.048 C 
HETATM   15  C   UNL     1     -46.216  58.385 -60.309  1.00  0.00     0.009 A 
HETATM   16  C   UNL     1     -45.354  57.284 -60.322  1.00  0.00     0.039 A 
HETATM   17  C   UNL     1     -44.785  56.823 -59.133  1.00  0.00     0.095 A 
BRANCH  17  18
HETATM   18  O   UNL     1     -43.915  55.759 -59.047  1.00  0.00    -0.354 OA
HETATM   19  C   UNL     1     -44.377  54.534 -59.607  1.00  0.00     0.210 C 
ENDBRANCH  17  18
ENDBRANCH   1  11
BRANCH   6  20
HETATM   20  C   UNL     1     -40.755  53.644 -52.772  1.00  0.00    -0.002 A 
HETATM   21  C   UNL     1     -40.390  52.310 -53.130  1.00  0.00     0.003 A 
HETATM   22  C   UNL     1     -39.875  51.706 -51.980  1.00  0.00     0.043 A 
HETATM   23  C   UNL     1     -40.462  51.547 -54.315  1.00  0.00     0.014 A 
HETATM   24  C   UNL     1     -39.424  50.381 -51.960  1.00  0.00     0.030 A 
HETATM   25  N   UNL     1     -39.923  52.646 -50.974  1.00  0.00    -0.364 N 
HETATM   26  C   UNL     1     -39.506  49.648 -53.149  1.00  0.00     0.002 A 
HETATM   27  C   UNL     1     -40.017  50.221 -54.312  1.00  0.00     0.001 A 
HETATM   28  H   UNL     1     -39.611  52.483 -50.027  1.00  0.00     0.165 HD
HETATM   29  C   UNL     1     -40.464  53.817 -51.437  1.00  0.00     0.101 A 
ENDBRANCH   6  20
TORSDOF 3
ENDMDL
MODEL 4
REMARK VINA RESULT:      -8.8      1.131      2.457
REMARK  3 active torsions:
REMARK  status: ('A' for Active; 'I' for Inactive)
REMARK    1  A    between atoms: C_4  and  N_5 
REMARK       I    between atoms: N_5  and  C_6 
REMARK       I    between atoms: C_6  and  N_7 
REMARK    2  A    between atoms: C_10  and  C_11 
REMARK    3  A    between atoms: C_24  and  O_25 
ROOT
HETATM    1  N   UNL     1     -41.929  57.149 -57.700  1.00  0.00    -0.306 N 
HETATM    2  C   UNL     1     -42.890  56.721 -56.817  1.00  0.00     0.323 C 
HETATM    3  N   UNL     1     -42.398  55.883 -55.807  1.00  0.00    -0.330 N 
HETATM    4  C   UNL     1     -43.416  55.405 -54.877  1.00  0.00     0.155 C 
HETATM    5  C   UNL     1     -42.856  54.568 -53.769  1.00  0.00     0.001 C 
HETATM    6  C   UNL     1     -41.550  54.322 -53.576  1.00  0.00    -0.046 C 
HETATM    7  C   UNL     1     -40.518  54.884 -54.512  1.00  0.00     0.059 C 
HETATM    8  C   UNL     1     -41.056  56.104 -55.255  1.00  0.00     0.132 C 
HETATM    9  O   UNL     1     -44.079  57.025 -56.889  1.00  0.00    -0.247 OA
HETATM   10  H   UNL     1     -41.223  56.468 -57.948  1.00  0.00     0.171 HD
ENDROOT
BRANCH   1  11
HETATM   11  C   UNL     1     -42.017  58.254 -58.571  1.00  0.00     0.070 A 
HETATM   12  C   UNL     1     -41.765  59.561 -58.140  1.00  0.00     0.039 A 
HETATM   13  C   UNL     1     -41.781  60.627 -59.048  1.00  0.00    -0.060 A 
HETATM   14  C   UNL     1     -41.465  62.022 -58.595  1.00  0.00     0.048 C 
HETATM   15  C   UNL     1     -42.053  60.370 -60.395  1.00  0.00     0.009 A 
HETATM   16  C   UNL     1     -42.312  59.067 -60.833  1.00  0.00     0.039 A 
HETATM   17  C   UNL     1     -42.299  58.005 -59.926  1.00  0.00     0.095 A 
BRANCH  17  18
HETATM   18  O   UNL     1     -42.525  56.690 -60.264  1.00  0.00    -0.354 OA
HETATM   19  C   UNL     1     -43.888  56.325 -60.457  1.00  0.00     0.210 C 
ENDBRANCH  17  18
ENDBRANCH   1  11
BRANCH   6  20
HETATM   20  C   UNL     1     -41.033  53.616 -52.451  1.00  0.00    -0.002 A 
HETATM   21  C   UNL     1     -41.033  54.046 -51.089  1.00  0.00     0.003 A 
HETATM   22  C   UNL     1     -40.408  53.043 -50.345  1.00  0.00     0.043 A 
HETATM   23  C   UNL     1     -41.490  55.199 -50.413  1.00  0.00     0.014 A 
HETATM   24  C   UNL     1     -40.221  53.134 -48.960  1.00  0.00     0.030 A 
HETATM   25  N   UNL     1     -40.052  52.047 -51.227  1.00  0.00    -0.364 N 
HETATM   26  C   UNL     1     -40.685  54.287 -48.316  1.00  0.00     0.002 A 
HETATM   27  C   UNL     1     -41.310  55.306 -49.031  1.00  0.00     0.001 A 
HETATM   28  H   UNL     1     -39.582  51.193 -50.963  1.00  0.00     0.165 HD
HETATM   29  C   UNL     1     -40.414  52.388 -52.505  1.00  0.00     0.101 A 
ENDBRANCH   6  20
TORSDOF 3
ENDMDL
MODEL 5
REMARK VINA RESULT:      -8.5      2.355      3.464
REMARK  3 active torsions:
REMARK  status: ('A' for Active; 'I' for Inactive)
REMARK    1  A    between atoms: C_4  and  N_5 
REMARK       I    between atoms: N_5  and  C_6 
REMARK       I    between atoms: C_6  and  N_7 
REMARK    2  A    between atoms: C_10  and  C_11 
REMARK    3  A    between atoms: C_24  and  O_25 
ROOT
HETATM    1  N   UNL     1     -44.600  57.381 -56.286  1.00  0.00    -0.306 N 
HETATM    2  C   UNL     1     -43.231  57.441 -56.203  1.00  0.00     0.323 C 
HETATM    3  N   UNL     1     -42.681  56.560 -55.262  1.00  0.00    -0.330 N 
HETATM    4  C   UNL     1     -41.228  56.633 -55.150  1.00  0.00     0.155 C 
HETATM    5  C   UNL     1     -40.659  55.636 -54.190  1.00  0.00     0.001 C 
HETATM    6  C   UNL     1     -41.373  54.706 -53.535  1.00  0.00    -0.046 C 
HETATM    7  C   UNL     1     -42.861  54.609 -53.721  1.00  0.00     0.059 C 
HETATM    8  C   UNL     1     -43.291  55.243 -55.042  1.00  0.00     0.132 C 
HETATM    9  O   UNL     1     -42.531  58.195 -56.876  1.00  0.00    -0.247 OA
HETATM   10  H   UNL     1     -45.091  57.252 -55.410  1.00  0.00     0.171 HD
ENDROOT
BRANCH   1  11
HETATM   11  C   UNL     1     -45.401  57.842 -57.350  1.00  0.00     0.070 A 
HETATM   12  C   UNL     1     -45.651  57.063 -58.485  1.00  0.00     0.039 A 
HETATM   13  C   UNL     1     -46.516  57.518 -59.487  1.00  0.00    -0.060 A 
HETATM   14  C   UNL     1     -46.820  56.664 -60.681  1.00  0.00     0.048 C 
HETATM   15  C   UNL     1     -47.131  58.766 -59.341  1.00  0.00     0.009 A 
HETATM   16  C   UNL     1     -46.883  59.554 -58.213  1.00  0.00     0.039 A 
HETATM   17  C   UNL     1     -46.016  59.100 -57.216  1.00  0.00     0.095 A 
BRANCH  17  18
HETATM   18  O   UNL     1     -45.722  59.796 -56.064  1.00  0.00    -0.354 OA
HETATM   19  C   UNL     1     -44.975  60.995 -56.237  1.00  0.00     0.210 C 
ENDBRANCH  17  18
ENDBRANCH   1  11
BRANCH   6  20
HETATM   20  C   UNL     1     -40.796  53.695 -52.712  1.00  0.00    -0.002 A 
HETATM   21  C   UNL     1     -40.427  52.371 -53.103  1.00  0.00     0.003 A 
HETATM   22  C   UNL     1     -39.921  51.737 -51.966  1.00  0.00     0.043 A 
HETATM   23  C   UNL     1     -40.487  51.641 -54.309  1.00  0.00     0.014 A 
HETATM   24  C   UNL     1     -39.470  50.412 -51.977  1.00  0.00     0.030 A 
HETATM   25  N   UNL     1     -39.979  52.649 -50.934  1.00  0.00    -0.364 N 
HETATM   26  C   UNL     1     -39.540  49.712 -53.187  1.00  0.00     0.002 A 
HETATM   27  C   UNL     1     -40.041  50.316 -54.338  1.00  0.00     0.001 A 
HETATM   28  H   UNL     1     -39.675  52.461 -49.990  1.00  0.00     0.165 HD
HETATM   29  C   UNL     1     -40.517  53.832 -51.371  1.00  0.00     0.101 A 
ENDBRANCH   6  20
TORSDOF 3
ENDMDL
MODEL 6
REMARK VINA RESULT:      -8.4      1.621      2.081
REMARK  3 active torsions:
REMARK  status: ('A' for Active; 'I' for Inactive)
REMARK    1  A    between atoms: C_4  and  N_5 
REMARK       I    between atoms: N_5  and  C_6 
REMARK       I    between atoms: C_6  and  N_7 
REMARK    2  A    between atoms: C_10  and  C_11 
REMARK    3  A    between atoms: C_24  and  O_25 
ROOT
HETATM    1  N   UNL     1     -43.483  57.198 -57.142  1.00  0.00    -0.306 N 
HETATM    2  C   UNL     1     -42.759  57.638 -56.061  1.00  0.00     0.323 C 
HETATM    3  N   UNL     1     -42.354  56.613 -55.196  1.00  0.00    -0.330 N 
HETATM    4  C   UNL     1     -41.604  57.073 -54.031  1.00  0.00     0.155 C 
HETATM    5  C   UNL     1     -41.123  55.955 -53.159  1.00  0.00     0.001 C 
HETATM    6  C   UNL     1     -41.283  54.649 -53.427  1.00  0.00    -0.046 C 
HETATM    7  C   UNL     1     -42.001  54.202 -54.668  1.00  0.00     0.059 C 
HETATM    8  C   UNL     1     -41.989  55.297 -55.733  1.00  0.00     0.132 C 
HETATM    9  O   UNL     1     -42.486  58.817 -55.846  1.00  0.00    -0.247 OA
HETATM   10  H   UNL     1     -44.131  56.443 -56.961  1.00  0.00     0.171 HD
ENDROOT
BRANCH   1  11
HETATM   11  C   UNL     1     -43.708  57.896 -58.345  1.00  0.00     0.070 A 
HETATM   12  C   UNL     1     -42.658  58.409 -59.115  1.00  0.00     0.039 A 
HETATM   13  C   UNL     1     -42.911  59.026 -60.347  1.00  0.00    -0.060 A 
HETATM   14  C   UNL     1     -41.782  59.533 -61.194  1.00  0.00     0.048 C 
HETATM   15  C   UNL     1     -44.231  59.126 -60.800  1.00  0.00     0.009 A 
HETATM   16  C   UNL     1     -45.286  58.621 -60.034  1.00  0.00     0.039 A 
HETATM   17  C   UNL     1     -45.033  58.009 -58.804  1.00  0.00     0.095 A 
BRANCH  17  18
HETATM   18  O   UNL     1     -46.002  57.470 -57.989  1.00  0.00    -0.354 OA
HETATM   19  C   UNL     1     -46.931  58.396 -57.434  1.00  0.00     0.210 C 
ENDBRANCH  17  18
ENDBRANCH   1  11
BRANCH   6  20
HETATM   20  C   UNL     1     -40.719  53.602 -52.639  1.00  0.00    -0.002 A 
HETATM   21  C   UNL     1     -40.366  52.289 -53.077  1.00  0.00     0.003 A 
HETATM   22  C   UNL     1     -39.871  51.608 -51.963  1.00  0.00     0.043 A 
HETATM   23  C   UNL     1     -40.434  51.603 -54.308  1.00  0.00     0.014 A 
HETATM   24  C   UNL     1     -39.436  50.279 -52.021  1.00  0.00     0.030 A 
HETATM   25  N   UNL     1     -39.919  52.483 -50.899  1.00  0.00    -0.364 N 
HETATM   26  C   UNL     1     -39.513  49.624 -53.255  1.00  0.00     0.002 A 
HETATM   27  C   UNL     1     -40.005  50.274 -54.384  1.00  0.00     0.001 A 
HETATM   28  H   UNL     1     -39.618  52.258 -49.962  1.00  0.00     0.165 HD
HETATM   29  C   UNL     1     -40.441  53.688 -51.294  1.00  0.00     0.101 A 
ENDBRANCH   6  20
TORSDOF 3
ENDMDL
MODEL 7
REMARK VINA RESULT:      -8.4      4.353      5.725
REMARK  3 active torsions:
REMARK  status: ('A' for Active; 'I' for Inactive)
REMARK    1  A    between atoms: C_4  and  N_5 
REMARK       I    between atoms: N_5  and  C_6 
REMARK       I    between atoms: C_6  and  N_7 
REMARK    2  A    between atoms: C_10  and  C_11 
REMARK    3  A    between atoms: C_24  and  O_25 
ROOT
HETATM    1  N   UNL     1     -44.472  58.307 -51.807  1.00  0.00    -0.306 N 
HETATM    2  C   UNL     1     -43.192  58.258 -51.313  1.00  0.00     0.323 C 
HETATM    3  N   UNL     1     -42.677  56.959 -51.200  1.00  0.00    -0.330 N 
HETATM    4  C   UNL     1     -41.326  56.895 -50.654  1.00  0.00     0.155 C 
HETATM    5  C   UNL     1     -40.772  55.505 -50.608  1.00  0.00     0.001 C 
HETATM    6  C   UNL     1     -41.397  54.414 -51.079  1.00  0.00    -0.046 C 
HETATM    7  C   UNL     1     -42.762  54.519 -51.699  1.00  0.00     0.059 C 
HETATM    8  C   UNL     1     -43.033  55.938 -52.193  1.00  0.00     0.132 C 
HETATM    9  O   UNL     1     -42.540  59.247 -50.985  1.00  0.00    -0.247 OA
HETATM   10  H   UNL     1     -45.095  57.573 -51.495  1.00  0.00     0.171 HD
ENDROOT
BRANCH   1  11
HETATM   11  C   UNL     1     -45.115  59.427 -52.373  1.00  0.00     0.070 A 
HETATM   12  C   UNL     1     -44.952  59.776 -53.718  1.00  0.00     0.039 A 
HETATM   13  C   UNL     1     -45.668  60.846 -54.269  1.00  0.00    -0.060 A 
HETATM   14  C   UNL     1     -45.530  61.191 -55.722  1.00  0.00     0.048 C 
HETATM   15  C   UNL     1     -46.551  61.565 -53.456  1.00  0.00     0.009 A 
HETATM   16  C   UNL     1     -46.714  61.227 -52.110  1.00  0.00     0.039 A 
HETATM   17  C   UNL     1     -45.997  60.161 -51.560  1.00  0.00     0.095 A 
BRANCH  17  18
HETATM   18  O   UNL     1     -46.102  59.744 -50.253  1.00  0.00    -0.354 OA
HETATM   19  C   UNL     1     -45.501  60.593 -49.280  1.00  0.00     0.210 C 
ENDBRANCH  17  18
ENDBRANCH   1  11
BRANCH   6  20
HETATM   20  C   UNL     1     -40.805  53.118 -51.126  1.00  0.00    -0.002 A 
HETATM   21  C   UNL     1     -40.465  52.368 -52.293  1.00  0.00     0.003 A 
HETATM   22  C   UNL     1     -39.930  51.154 -51.855  1.00  0.00     0.043 A 
HETATM   23  C   UNL     1     -40.574  52.592 -53.682  1.00  0.00     0.014 A 
HETATM   24  C   UNL     1     -39.495  50.158 -52.737  1.00  0.00     0.030 A 
HETATM   25  N   UNL     1     -39.943  51.180 -50.478  1.00  0.00    -0.364 N 
HETATM   26  C   UNL     1     -39.613  50.407 -54.109  1.00  0.00     0.002 A 
HETATM   27  C   UNL     1     -40.145  51.607 -54.578  1.00  0.00     0.001 A 
HETATM   28  H   UNL     1     -39.609  50.429 -49.891  1.00  0.00     0.165 HD
HETATM   29  C   UNL     1     -40.481  52.357 -50.026  1.00  0.00     0.101 A 
ENDBRANCH   6  20
TORSDOF 3
ENDMDL
MODEL 8
REMARK VINA RESULT:      -8.4      6.133      7.645
REMARK  3 active torsions:
REMARK  status: ('A' for Active; 'I' for Inactive)
REMARK    1  A    between atoms: C_4  and  N_5 
REMARK       I    between atoms: N_5  and  C_6 
REMARK       I    between atoms: C_6  and  N_7 
REMARK    2  A    between atoms: C_10  and  C_11 
REMARK    3  A    between atoms: C_24  and  O_25 
ROOT
HETATM    1  N   UNL     1     -44.045  60.079 -49.847  1.00  0.00    -0.306 N 
HETATM    2  C   UNL     1     -42.882  60.243 -50.559  1.00  0.00     0.323 C 
HETATM    3  N   UNL     1     -42.469  59.092 -51.242  1.00  0.00    -0.330 N 
HETATM    4  C   UNL     1     -41.221  59.250 -51.983  1.00  0.00     0.155 C 
HETATM    5  C   UNL     1     -40.836  58.030 -52.759  1.00  0.00     0.001 C 
HETATM    6  C   UNL     1     -41.574  56.911 -52.847  1.00  0.00    -0.046 C 
HETATM    7  C   UNL     1     -42.889  56.800 -52.127  1.00  0.00     0.059 C 
HETATM    8  C   UNL     1     -43.464  58.181 -51.820  1.00  0.00     0.132 C 
HETATM    9  O   UNL     1     -42.241  61.292 -50.602  1.00  0.00    -0.247 OA
HETATM   10  H   UNL     1     -44.158  59.185 -49.387  1.00  0.00     0.171 HD
ENDROOT
BRANCH   1  11
HETATM   11  C   UNL     1     -44.897  61.099 -49.376  1.00  0.00     0.070 A 
HETATM   12  C   UNL     1     -44.728  61.685 -48.117  1.00  0.00     0.039 A 
HETATM   13  C   UNL     1     -45.540  62.752 -47.712  1.00  0.00    -0.060 A 
HETATM   14  C   UNL     1     -45.330  63.411 -46.382  1.00  0.00     0.048 C 
HETATM   15  C   UNL     1     -46.527  63.226 -48.583  1.00  0.00     0.009 A 
HETATM   16  C   UNL     1     -46.706  62.641 -49.841  1.00  0.00     0.039 A 
HETATM   17  C   UNL     1     -45.897  61.575 -50.242  1.00  0.00     0.095 A 
BRANCH  17  18
HETATM   18  O   UNL     1     -45.987  60.947 -51.464  1.00  0.00    -0.354 OA
HETATM   19  C   UNL     1     -47.100  61.317 -52.272  1.00  0.00     0.210 C 
ENDBRANCH  17  18
ENDBRANCH   1  11
BRANCH   6  20
HETATM   20  C   UNL     1     -41.242  55.804 -53.682  1.00  0.00    -0.002 A 
HETATM   21  C   UNL     1     -40.811  54.508 -53.264  1.00  0.00     0.003 A 
HETATM   22  C   UNL     1     -40.584  53.761 -54.422  1.00  0.00     0.043 A 
HETATM   23  C   UNL     1     -40.573  53.898 -52.013  1.00  0.00     0.014 A 
HETATM   24  C   UNL     1     -40.138  52.435 -54.390  1.00  0.00     0.030 A 
HETATM   25  N   UNL     1     -40.876  54.577 -55.493  1.00  0.00    -0.364 N 
HETATM   26  C   UNL     1     -39.912  51.855 -53.137  1.00  0.00     0.002 A 
HETATM   27  C   UNL     1     -40.126  52.574 -51.964  1.00  0.00     0.001 A 
HETATM   28  H   UNL     1     -40.802  54.296 -56.460  1.00  0.00     0.165 HD
HETATM   29  C   UNL     1     -41.262  55.818 -55.058  1.00  0.00     0.101 A 
ENDBRANCH   6  20
TORSDOF 3
ENDMDL
MODEL 9
REMARK VINA RESULT:      -8.2      2.721      9.388
REMARK  3 active torsions:
REMARK  status: ('A' for Active; 'I' for Inactive)
REMARK    1  A    between atoms: C_4  and  N_5 
REMARK       I    between atoms: N_5  and  C_6 
REMARK       I    between atoms: C_6  and  N_7 
REMARK    2  A    between atoms: C_10  and  C_11 
REMARK    3  A    between atoms: C_24  and  O_25 
ROOT
HETATM    1  N   UNL     1     -41.249  54.463 -53.739  1.00  0.00    -0.306 N 
HETATM    2  C   UNL     1     -42.544  54.896 -53.591  1.00  0.00     0.323 C 
HETATM    3  N   UNL     1     -42.902  55.923 -54.475  1.00  0.00    -0.330 N 
HETATM    4  C   UNL     1     -44.269  56.407 -54.310  1.00  0.00     0.155 C 
HETATM    5  C   UNL     1     -44.650  57.454 -55.309  1.00  0.00     0.001 C 
HETATM    6  C   UNL     1     -43.866  57.878 -56.313  1.00  0.00    -0.046 C 
HETATM    7  C   UNL     1     -42.485  57.314 -56.501  1.00  0.00     0.059 C 
HETATM    8  C   UNL     1     -42.358  55.945 -55.838  1.00  0.00     0.132 C 
HETATM    9  O   UNL     1     -43.332  54.446 -52.763  1.00  0.00    -0.247 OA
HETATM   10  H   UNL     1     -40.564  55.180 -53.939  1.00  0.00     0.171 HD
ENDROOT
BRANCH   1  11
HETATM   11  C   UNL     1     -40.712  53.242 -53.284  1.00  0.00     0.070 A 
HETATM   12  C   UNL     1     -40.551  52.139 -54.131  1.00  0.00     0.039 A 
HETATM   13  C   UNL     1     -39.940  50.968 -53.669  1.00  0.00    -0.060 A 
HETATM   14  C   UNL     1     -39.725  49.803 -54.589  1.00  0.00     0.048 C 
HETATM   15  C   UNL     1     -39.490  50.911 -52.346  1.00  0.00     0.009 A 
HETATM   16  C   UNL     1     -39.652  52.006 -51.491  1.00  0.00     0.039 A 
HETATM   17  C   UNL     1     -40.265  53.173 -51.952  1.00  0.00     0.095 A 
BRANCH  17  18
HETATM   18  O   UNL     1     -40.454  54.305 -51.193  1.00  0.00    -0.354 OA
HETATM   19  C   UNL     1     -39.931  54.259 -49.869  1.00  0.00     0.210 C 
ENDBRANCH  17  18
ENDBRANCH   1  11
BRANCH   6  20
HETATM   20  C   UNL     1     -44.290  58.795 -57.320  1.00  0.00    -0.002 A 
HETATM   21  C   UNL     1     -45.224  58.548 -58.372  1.00  0.00     0.003 A 
HETATM   22  C   UNL     1     -45.314  59.724 -59.120  1.00  0.00     0.043 A 
HETATM   23  C   UNL     1     -45.991  57.434 -58.776  1.00  0.00     0.014 A 
HETATM   24  C   UNL     1     -46.137  59.841 -60.247  1.00  0.00     0.030 A 
HETATM   25  N   UNL     1     -44.472  60.643 -58.534  1.00  0.00    -0.364 N 
HETATM   26  C   UNL     1     -46.887  58.722 -60.624  1.00  0.00     0.002 A 
HETATM   27  C   UNL     1     -46.817  57.534 -59.900  1.00  0.00     0.001 A 
HETATM   28  H   UNL     1     -44.338  61.587 -58.866  1.00  0.00     0.165 HD
HETATM   29  C   UNL     1     -43.839  60.089 -57.452  1.00  0.00     0.101 A 
ENDBRANCH   6  20
TORSDOF 3
ENDMDL
MODEL 10
REMARK VINA RESULT:      -8.2      5.364      9.541
REMARK  3 active torsions:
REMARK  status: ('A' for Active; 'I' for Inactive)
REMARK    1  A    between atoms: C_4  and  N_5 
REMARK       I    between atoms: N_5  and  C_6 
REMARK       I    between atoms: C_6  and  N_7 
REMARK    2  A    between atoms: C_10  and  C_11 
REMARK    3  A    between atoms: C_24  and  O_25 
ROOT
HETATM    1  N   UNL     1     -40.985  54.595 -51.637  1.00  0.00    -0.306 N 
HETATM    2  C   UNL     1     -42.305  54.968 -51.569  1.00  0.00     0.323 C 
HETATM    3  N   UNL     1     -42.496  56.350 -51.441  1.00  0.00    -0.330 N 
HETATM    4  C   UNL     1     -43.895  56.754 -51.345  1.00  0.00     0.155 C 
HETATM    5  C   UNL     1     -44.078  58.238 -51.278  1.00  0.00     0.001 C 
HETATM    6  C   UNL     1     -43.086  59.139 -51.368  1.00  0.00    -0.046 C 
HETATM    7  C   UNL     1     -41.660  58.696 -51.535  1.00  0.00     0.059 C 
HETATM    8  C   UNL     1     -41.588  57.285 -52.115  1.00  0.00     0.132 C 
HETATM    9  O   UNL     1     -43.248  54.180 -51.607  1.00  0.00    -0.247 OA
HETATM   10  H   UNL     1     -40.349  55.111 -51.043  1.00  0.00     0.171 HD
ENDROOT
BRANCH   1  11
HETATM   11  C   UNL     1     -40.478  53.373 -52.124  1.00  0.00     0.070 A 
HETATM   12  C   UNL     1     -40.180  52.300 -51.276  1.00  0.00     0.039 A 
HETATM   13  C   UNL     1     -39.756  51.073 -51.800  1.00  0.00    -0.060 A 
HETATM   14  C   UNL     1     -39.481  49.909 -50.895  1.00  0.00     0.048 C 
HETATM   15  C   UNL     1     -39.631  50.931 -53.186  1.00  0.00     0.009 A 
HETATM   16  C   UNL     1     -39.921  51.999 -54.040  1.00  0.00     0.039 A 
HETATM   17  C   UNL     1     -40.341  53.224 -53.516  1.00  0.00     0.095 A 
BRANCH  17  18
HETATM   18  O   UNL     1     -40.664  54.326 -54.276  1.00  0.00    -0.354 OA
HETATM   19  C   UNL     1     -41.820  54.197 -55.097  1.00  0.00     0.210 C 
ENDBRANCH  17  18
ENDBRANCH   1  11
BRANCH   6  20
HETATM   20  C   UNL     1     -43.295  60.549 -51.415  1.00  0.00    -0.002 A 
HETATM   21  C   UNL     1     -43.790  61.382 -50.366  1.00  0.00     0.003 A 
HETATM   22  C   UNL     1     -43.844  62.683 -50.871  1.00  0.00     0.043 A 
HETATM   23  C   UNL     1     -44.216  61.158 -49.039  1.00  0.00     0.014 A 
HETATM   24  C   UNL     1     -44.297  63.770 -50.113  1.00  0.00     0.030 A 
HETATM   25  N   UNL     1     -43.391  62.632 -52.171  1.00  0.00    -0.364 N 
HETATM   26  C   UNL     1     -44.712  63.519 -48.801  1.00  0.00     0.002 A 
HETATM   27  C   UNL     1     -44.673  62.232 -48.269  1.00  0.00     0.001 A 
HETATM   28  H   UNL     1     -43.319  63.433 -52.781  1.00  0.00     0.165 HD
HETATM   29  C   UNL     1     -43.068  61.345 -52.515  1.00  0.00     0.101 A 
ENDBRANCH   6  20
TORSDOF 3
ENDMDL
