MODEL 1
REMARK VINA RESULT:      -9.1      0.000      0.000
REMARK  5 active torsions:
REMARK  status: ('A' for Active; 'I' for Inactive)
REMARK    1  A    between atoms: C_3  and  C_4 
REMARK    2  A    between atoms: C_8  and  C_9 
REMARK       I    between atoms: C_9  and  N_10 
REMARK    3  A    between atoms: N_10  and  C_11 
REMARK    4  A    between atoms: C_11  and  C_12 
REMARK    5  A    between atoms: C_24  and  O_25 
ROOT
HETATM    1  C   UNL     1     -42.774  55.817 -56.269  1.00  0.00     0.270 C 
HETATM    2  N   UNL     1     -42.479  55.888 -57.616  1.00  0.00    -0.342 N 
HETATM    3  O   UNL     1     -43.683  56.453 -55.744  1.00  0.00    -0.266 OA
HETATM    4  H   UNL     1     -41.681  55.373 -57.960  1.00  0.00     0.164 HD
ENDROOT
BRANCH   1   5
HETATM    5  C   UNL     1     -41.897  54.981 -55.494  1.00  0.00     0.120 A 
HETATM    6  N   UNL     1     -40.567  55.269 -55.372  1.00  0.00    -0.272 N 
HETATM    7  N   UNL     1     -39.857  54.330 -54.724  1.00  0.00    -0.174 NA
HETATM    8  H   UNL     1     -40.086  56.079 -55.755  1.00  0.00     0.189 HD
HETATM    9  C   UNL     1     -40.766  53.400 -54.375  1.00  0.00     0.092 A 
HETATM   10  C   UNL     1     -42.063  53.790 -54.815  1.00  0.00     0.071 A 
BRANCH   9  11
HETATM   11  C   UNL     1     -40.366  52.158 -53.699  1.00  0.00     0.028 A 
HETATM   12  C   UNL     1     -40.352  50.939 -54.396  1.00  0.00     0.017 A 
HETATM   13  C   UNL     1     -39.922  49.762 -53.774  1.00  0.00     0.001 A 
HETATM   14  C   UNL     1     -39.497  49.785 -52.447  1.00  0.00     0.003 A 
HETATM   15  C   UNL     1     -39.513  50.982 -51.735  1.00  0.00     0.037 A 
HETATM   16  C   UNL     1     -39.949  52.152 -52.355  1.00  0.00     0.078 A 
BRANCH  16  17
HETATM   17  O   UNL     1     -39.938  53.284 -51.578  1.00  0.00    -0.360 OA
HETATM   18  H   UNL     1     -38.990  53.527 -51.465  1.00  0.00     0.217 HD
ENDBRANCH  16  17
ENDBRANCH   9  11
ENDBRANCH   1   5
BRANCH   2  19
HETATM   19  C   UNL     1     -42.906  56.993 -58.433  1.00  0.00     0.064 A 
HETATM   20  C   UNL     1     -42.397  58.380 -58.078  1.00  0.00     0.039 A 
HETATM   21  C   UNL     1     -41.916  57.714 -59.326  1.00  0.00     0.039 A 
BRANCH  19  22
HETATM   22  C   UNL     1     -44.350  56.846 -58.888  1.00  0.00     0.011 A 
HETATM   23  C   UNL     1     -44.732  55.880 -59.836  1.00  0.00     0.125 A 
HETATM   24  F   UNL     1     -43.807  55.040 -60.330  1.00  0.00    -0.205 F 
HETATM   25  C   UNL     1     -46.039  55.777 -60.314  1.00  0.00     0.046 A 
HETATM   26  C   UNL     1     -47.008  56.661 -59.850  1.00  0.00     0.045 A 
HETATM   27  C   UNL     1     -46.655  57.630 -58.919  1.00  0.00     0.117 A 
HETATM   28  F   UNL     1     -47.582  58.493 -58.485  1.00  0.00    -0.206 F 
HETATM   29  C   UNL     1     -45.350  57.727 -58.441  1.00  0.00     0.055 A 
ENDBRANCH  19  22
ENDBRANCH   2  19
TORSDOF 5
ENDMDL
MODEL 2
REMARK VINA RESULT:      -8.9      3.505      8.594
REMARK  5 active torsions:
REMARK  status: ('A' for Active; 'I' for Inactive)
REMARK    1  A    between atoms: C_3  and  C_4 
REMARK    2  A    between atoms: C_8  and  C_9 
REMARK       I    between atoms: C_9  and  N_10 
REMARK    3  A    between atoms: N_10  and  C_11 
REMARK    4  A    between atoms: C_11  and  C_12 
REMARK    5  A    between atoms: C_24  and  O_25 
ROOT
HETATM    1  C   UNL     1     -42.384  54.608 -52.017  1.00  0.00     0.270 C 
HETATM    2  N   UNL     1     -41.050  54.721 -51.677  1.00  0.00    -0.342 N 
HETATM    3  O   UNL     1     -43.192  53.954 -51.367  1.00  0.00    -0.266 OA
HETATM    4  H   UNL     1     -40.438  55.235 -52.295  1.00  0.00     0.164 HD
ENDROOT
BRANCH   1   5
HETATM    5  C   UNL     1     -42.760  55.271 -53.237  1.00  0.00     0.120 A 
HETATM    6  N   UNL     1     -44.066  55.571 -53.508  1.00  0.00    -0.272 N 
HETATM    7  N   UNL     1     -44.272  56.074 -54.737  1.00  0.00    -0.174 NA
HETATM    8  H   UNL     1     -44.863  55.408 -52.898  1.00  0.00     0.189 HD
HETATM    9  C   UNL     1     -43.044  56.140 -55.285  1.00  0.00     0.092 A 
HETATM   10  C   UNL     1     -42.067  55.673 -54.362  1.00  0.00     0.071 A 
BRANCH   9  11
HETATM   11  C   UNL     1     -42.852  56.581 -56.674  1.00  0.00     0.028 A 
HETATM   12  C   UNL     1     -42.279  57.832 -56.952  1.00  0.00     0.017 A 
HETATM   13  C   UNL     1     -42.044  58.237 -58.271  1.00  0.00     0.001 A 
HETATM   14  C   UNL     1     -42.376  57.396 -59.331  1.00  0.00     0.003 A 
HETATM   15  C   UNL     1     -42.955  56.156 -59.077  1.00  0.00     0.037 A 
HETATM   16  C   UNL     1     -43.195  55.758 -57.763  1.00  0.00     0.078 A 
BRANCH  16  17
HETATM   17  O   UNL     1     -43.773  54.523 -57.605  1.00  0.00    -0.360 OA
HETATM   18  H   UNL     1     -43.196  54.030 -56.976  1.00  0.00     0.217 HD
ENDBRANCH  16  17
ENDBRANCH   9  11
ENDBRANCH   1   5
BRANCH   2  19
HETATM   19  C   UNL     1     -40.403  53.773 -50.808  1.00  0.00     0.064 A 
HETATM   20  C   UNL     1     -39.409  54.304 -49.789  1.00  0.00     0.039 A 
HETATM   21  C   UNL     1     -40.718  53.752 -49.326  1.00  0.00     0.039 A 
BRANCH  19  22
HETATM   22  C   UNL     1     -40.083  52.468 -51.520  1.00  0.00     0.011 A 
HETATM   23  C   UNL     1     -39.832  52.422 -52.903  1.00  0.00     0.125 A 
HETATM   24  F   UNL     1     -39.841  53.563 -53.612  1.00  0.00    -0.205 F 
HETATM   25  C   UNL     1     -39.605  51.225 -53.582  1.00  0.00     0.046 A 
HETATM   26  C   UNL     1     -39.632  50.024 -52.880  1.00  0.00     0.045 A 
HETATM   27  C   UNL     1     -39.884  50.041 -51.514  1.00  0.00     0.117 A 
HETATM   28  F   UNL     1     -39.928  48.885 -50.840  1.00  0.00    -0.206 F 
HETATM   29  C   UNL     1     -40.107  51.239 -50.838  1.00  0.00     0.055 A 
ENDBRANCH  19  22
ENDBRANCH   2  19
TORSDOF 5
ENDMDL
MODEL 3
REMARK VINA RESULT:      -8.8      3.656      8.687
REMARK  5 active torsions:
REMARK  status: ('A' for Active; 'I' for Inactive)
REMARK    1  A    between atoms: C_3  and  C_4 
REMARK    2  A    between atoms: C_8  and  C_9 
REMARK       I    between atoms: C_9  and  N_10 
REMARK    3  A    between atoms: N_10  and  C_11 
REMARK    4  A    between atoms: C_11  and  C_12 
REMARK    5  A    between atoms: C_24  and  O_25 
ROOT
HETATM    1  C   UNL     1     -42.416  54.473 -51.870  1.00  0.00     0.270 C 
HETATM    2  N   UNL     1     -41.147  54.671 -51.362  1.00  0.00    -0.342 N 
HETATM    3  O   UNL     1     -43.229  53.703 -51.369  1.00  0.00    -0.266 OA
HETATM    4  H   UNL     1     -40.519  55.283 -51.864  1.00  0.00     0.164 HD
ENDROOT
BRANCH   1   5
HETATM    5  C   UNL     1     -42.709  55.197 -53.078  1.00  0.00     0.120 A 
HETATM    6  N   UNL     1     -43.858  55.925 -53.208  1.00  0.00    -0.272 N 
HETATM    7  N   UNL     1     -44.049  56.440 -54.434  1.00  0.00    -0.174 NA
HETATM    8  H   UNL     1     -44.570  56.064 -52.495  1.00  0.00     0.189 HD
HETATM    9  C   UNL     1     -42.961  56.062 -55.132  1.00  0.00     0.092 A 
HETATM   10  C   UNL     1     -42.084  55.306 -54.304  1.00  0.00     0.071 A 
BRANCH   9  11
HETATM   11  C   UNL     1     -42.826  56.375 -56.561  1.00  0.00     0.028 A 
HETATM   12  C   UNL     1     -43.065  55.390 -57.533  1.00  0.00     0.017 A 
HETATM   13  C   UNL     1     -42.990  55.694 -58.897  1.00  0.00     0.001 A 
HETATM   14  C   UNL     1     -42.677  56.987 -59.310  1.00  0.00     0.003 A 
HETATM   15  C   UNL     1     -42.425  57.976 -58.362  1.00  0.00     0.037 A 
HETATM   16  C   UNL     1     -42.494  57.669 -57.004  1.00  0.00     0.078 A 
BRANCH  16  17
HETATM   17  O   UNL     1     -42.226  58.701 -56.140  1.00  0.00    -0.360 OA
HETATM   18  H   UNL     1     -41.350  59.062 -56.410  1.00  0.00     0.217 HD
ENDBRANCH  16  17
ENDBRANCH   9  11
ENDBRANCH   1   5
BRANCH   2  19
HETATM   19  C   UNL     1     -40.519  53.715 -50.487  1.00  0.00     0.064 A 
HETATM   20  C   UNL     1     -39.495  54.228 -49.489  1.00  0.00     0.039 A 
HETATM   21  C   UNL     1     -40.814  53.725 -49.001  1.00  0.00     0.039 A 
BRANCH  19  22
HETATM   22  C   UNL     1     -40.249  52.391 -51.185  1.00  0.00     0.011 A 
HETATM   23  C   UNL     1     -40.214  51.176 -50.478  1.00  0.00     0.125 A 
HETATM   24  F   UNL     1     -40.457  51.176 -49.157  1.00  0.00    -0.205 F 
HETATM   25  C   UNL     1     -39.900  49.963 -51.092  1.00  0.00     0.046 A 
HETATM   26  C   UNL     1     -39.603  49.940 -52.450  1.00  0.00     0.045 A 
HETATM   27  C   UNL     1     -39.625  51.127 -53.171  1.00  0.00     0.117 A 
HETATM   28  F   UNL     1     -39.323  51.110 -54.475  1.00  0.00    -0.206 F 
HETATM   29  C   UNL     1     -39.942  52.337 -52.556  1.00  0.00     0.055 A 
ENDBRANCH  19  22
ENDBRANCH   2  19
TORSDOF 5
ENDMDL
MODEL 4
REMARK VINA RESULT:      -8.7      4.261      5.566
REMARK  5 active torsions:
REMARK  status: ('A' for Active; 'I' for Inactive)
REMARK    1  A    between atoms: C_3  and  C_4 
REMARK    2  A    between atoms: C_8  and  C_9 
REMARK       I    between atoms: C_9  and  N_10 
REMARK    3  A    between atoms: N_10  and  C_11 
REMARK    4  A    between atoms: C_11  and  C_12 
REMARK    5  A    between atoms: C_24  and  O_25 
ROOT
HETATM    1  C   UNL     1     -42.371  56.597 -54.179  1.00  0.00     0.270 C 
HETATM    2  N   UNL     1     -41.748  57.725 -54.674  1.00  0.00    -0.342 N 
HETATM    3  O   UNL     1     -43.519  56.596 -53.746  1.00  0.00    -0.266 OA
HETATM    4  H   UNL     1     -40.783  57.653 -54.962  1.00  0.00     0.164 HD
ENDROOT
BRANCH   1   5
HETATM    5  C   UNL     1     -41.555  55.412 -54.149  1.00  0.00     0.120 A 
HETATM    6  N   UNL     1     -40.650  55.149 -55.138  1.00  0.00    -0.272 N 
HETATM    7  N   UNL     1     -40.056  53.948 -55.036  1.00  0.00    -0.174 NA
HETATM    8  H   UNL     1     -40.435  55.743 -55.934  1.00  0.00     0.189 HD
HETATM    9  C   UNL     1     -40.568  53.413 -53.911  1.00  0.00     0.092 A 
HETATM   10  C   UNL     1     -41.489  54.317 -53.311  1.00  0.00     0.071 A 
BRANCH   9  11
HETATM   11  C   UNL     1     -40.214  52.052 -53.485  1.00  0.00     0.028 A 
HETATM   12  C   UNL     1     -40.277  50.981 -54.392  1.00  0.00     0.017 A 
HETATM   13  C   UNL     1     -39.891  49.692 -54.009  1.00  0.00     0.001 A 
HETATM   14  C   UNL     1     -39.434  49.453 -52.715  1.00  0.00     0.003 A 
HETATM   15  C   UNL     1     -39.373  50.499 -51.797  1.00  0.00     0.037 A 
HETATM   16  C   UNL     1     -39.765  51.781 -52.179  1.00  0.00     0.078 A 
BRANCH  16  17
HETATM   17  O   UNL     1     -39.678  52.750 -51.210  1.00  0.00    -0.360 OA
HETATM   18  H   UNL     1     -40.552  52.758 -50.755  1.00  0.00     0.217 HD
ENDBRANCH  16  17
ENDBRANCH   9  11
ENDBRANCH   1   5
BRANCH   2  19
HETATM   19  C   UNL     1     -42.203  59.052 -54.348  1.00  0.00     0.064 A 
HETATM   20  C   UNL     1     -42.085  60.127 -55.414  1.00  0.00     0.039 A 
HETATM   21  C   UNL     1     -43.435  59.626 -55.017  1.00  0.00     0.039 A 
BRANCH  19  22
HETATM   22  C   UNL     1     -41.896  59.425 -52.905  1.00  0.00     0.011 A 
HETATM   23  C   UNL     1     -40.625  59.214 -52.342  1.00  0.00     0.125 A 
HETATM   24  F   UNL     1     -39.644  58.703 -53.102  1.00  0.00    -0.205 F 
HETATM   25  C   UNL     1     -40.348  59.487 -51.002  1.00  0.00     0.046 A 
HETATM   26  C   UNL     1     -41.357  59.979 -50.180  1.00  0.00     0.045 A 
HETATM   27  C   UNL     1     -42.623  60.189 -50.711  1.00  0.00     0.117 A 
HETATM   28  F   UNL     1     -43.601  60.646 -49.918  1.00  0.00    -0.206 F 
HETATM   29  C   UNL     1     -42.896  59.919 -52.050  1.00  0.00     0.055 A 
ENDBRANCH  19  22
ENDBRANCH   2  19
TORSDOF 5
ENDMDL
MODEL 5
REMARK VINA RESULT:      -8.6      2.056      3.065
REMARK  5 active torsions:
REMARK  status: ('A' for Active; 'I' for Inactive)
REMARK    1  A    between atoms: C_3  and  C_4 
REMARK    2  A    between atoms: C_8  and  C_9 
REMARK       I    between atoms: C_9  and  N_10 
REMARK    3  A    between atoms: N_10  and  C_11 
REMARK    4  A    between atoms: C_11  and  C_12 
REMARK    5  A    between atoms: C_24  and  O_25 
ROOT
HETATM    1  C   UNL     1     -43.774  57.412 -55.458  1.00  0.00     0.270 C 
HETATM    2  N   UNL     1     -44.818  57.168 -56.328  1.00  0.00    -0.342 N 
HETATM    3  O   UNL     1     -43.225  58.504 -55.354  1.00  0.00    -0.266 OA
HETATM    4  H   UNL     1     -45.179  56.227 -56.392  1.00  0.00     0.164 HD
ENDROOT
BRANCH   1   5
HETATM    5  C   UNL     1     -43.323  56.269 -54.709  1.00  0.00     0.120 A 
HETATM    6  N   UNL     1     -43.867  55.956 -53.495  1.00  0.00    -0.272 N 
HETATM    7  N   UNL     1     -43.258  54.939 -52.864  1.00  0.00    -0.174 NA
HETATM    8  H   UNL     1     -44.633  56.441 -53.033  1.00  0.00     0.189 HD
HETATM    9  C   UNL     1     -42.293  54.543 -53.715  1.00  0.00     0.092 A 
HETATM   10  C   UNL     1     -42.323  55.335 -54.897  1.00  0.00     0.071 A 
BRANCH   9  11
HETATM   11  C   UNL     1     -41.346  53.479 -53.352  1.00  0.00     0.028 A 
HETATM   12  C   UNL     1     -40.957  52.517 -54.299  1.00  0.00     0.017 A 
HETATM   13  C   UNL     1     -40.016  51.533 -53.977  1.00  0.00     0.001 A 
HETATM   14  C   UNL     1     -39.449  51.496 -52.706  1.00  0.00     0.003 A 
HETATM   15  C   UNL     1     -39.829  52.433 -51.749  1.00  0.00     0.037 A 
HETATM   16  C   UNL     1     -40.772  53.409 -52.070  1.00  0.00     0.078 A 
BRANCH  16  17
HETATM   17  O   UNL     1     -41.092  54.288 -51.066  1.00  0.00    -0.360 OA
HETATM   18  H   UNL     1     -41.553  53.758 -50.376  1.00  0.00     0.217 HD
ENDBRANCH  16  17
ENDBRANCH   9  11
ENDBRANCH   1   5
BRANCH   2  19
HETATM   19  C   UNL     1     -45.075  58.012 -57.466  1.00  0.00     0.064 A 
HETATM   20  C   UNL     1     -46.508  58.131 -57.955  1.00  0.00     0.039 A 
HETATM   21  C   UNL     1     -45.851  59.303 -57.303  1.00  0.00     0.039 A 
BRANCH  19  22
HETATM   22  C   UNL     1     -43.961  57.938 -58.498  1.00  0.00     0.011 A 
HETATM   23  C   UNL     1     -43.535  56.712 -59.040  1.00  0.00     0.125 A 
HETATM   24  F   UNL     1     -44.148  55.578 -58.665  1.00  0.00    -0.205 F 
HETATM   25  C   UNL     1     -42.469  56.621 -59.936  1.00  0.00     0.046 A 
HETATM   26  C   UNL     1     -41.789  57.775 -60.310  1.00  0.00     0.045 A 
HETATM   27  C   UNL     1     -42.185  58.998 -59.783  1.00  0.00     0.117 A 
HETATM   28  F   UNL     1     -41.521  60.109 -60.129  1.00  0.00    -0.206 F 
HETATM   29  C   UNL     1     -43.252  59.086 -58.892  1.00  0.00     0.055 A 
ENDBRANCH  19  22
ENDBRANCH   2  19
TORSDOF 5
ENDMDL
MODEL 6
REMARK VINA RESULT:      -8.6      2.221      3.147
REMARK  5 active torsions:
REMARK  status: ('A' for Active; 'I' for Inactive)
REMARK    1  A    between atoms: C_3  and  C_4 
REMARK    2  A    between atoms: C_8  and  C_9 
REMARK       I    between atoms: C_9  and  N_10 
REMARK    3  A    between atoms: N_10  and  C_11 
REMARK    4  A    between atoms: C_11  and  C_12 
REMARK    5  A    between atoms: C_24  and  O_25 
ROOT
HETATM    1  C   UNL     1     -41.930  56.760 -54.284  1.00  0.00     0.270 C 
HETATM    2  N   UNL     1     -43.186  56.706 -54.855  1.00  0.00    -0.342 N 
HETATM    3  O   UNL     1     -41.414  57.799 -53.886  1.00  0.00    -0.266 OA
HETATM    4  H   UNL     1     -43.517  55.819 -55.206  1.00  0.00     0.164 HD
ENDROOT
BRANCH   1   5
HETATM    5  C   UNL     1     -41.227  55.505 -54.236  1.00  0.00     0.120 A 
HETATM    6  N   UNL     1     -40.454  55.085 -55.282  1.00  0.00    -0.272 N 
HETATM    7  N   UNL     1     -39.965  53.841 -55.141  1.00  0.00    -0.174 NA
HETATM    8  H   UNL     1     -40.266  55.598 -56.139  1.00  0.00     0.189 HD
HETATM    9  C   UNL     1     -40.408  53.440 -53.934  1.00  0.00     0.092 A 
HETATM   10  C   UNL     1     -41.178  54.470 -53.324  1.00  0.00     0.071 A 
BRANCH   9  11
HETATM   11  C   UNL     1     -40.139  52.083 -53.436  1.00  0.00     0.028 A 
HETATM   12  C   UNL     1     -40.233  50.976 -54.296  1.00  0.00     0.017 A 
HETATM   13  C   UNL     1     -39.927  49.688 -53.843  1.00  0.00     0.001 A 
HETATM   14  C   UNL     1     -39.521  49.487 -52.526  1.00  0.00     0.003 A 
HETATM   15  C   UNL     1     -39.432  50.569 -51.655  1.00  0.00     0.037 A 
HETATM   16  C   UNL     1     -39.744  51.851 -52.106  1.00  0.00     0.078 A 
BRANCH  16  17
HETATM   17  O   UNL     1     -39.635  52.857 -51.179  1.00  0.00    -0.360 OA
HETATM   18  H   UNL     1     -39.908  52.466 -50.318  1.00  0.00     0.217 HD
ENDBRANCH  16  17
ENDBRANCH   9  11
ENDBRANCH   1   5
BRANCH   2  19
HETATM   19  C   UNL     1     -43.818  57.872 -55.417  1.00  0.00     0.064 A 
HETATM   20  C   UNL     1     -45.324  58.005 -55.272  1.00  0.00     0.039 A 
HETATM   21  C   UNL     1     -44.425  58.926 -54.513  1.00  0.00     0.039 A 
BRANCH  19  22
HETATM   22  C   UNL     1     -43.175  58.296 -56.729  1.00  0.00     0.011 A 
HETATM   23  C   UNL     1     -43.214  57.474 -57.870  1.00  0.00     0.125 A 
HETATM   24  F   UNL     1     -43.862  56.300 -57.815  1.00  0.00    -0.205 F 
HETATM   25  C   UNL     1     -42.570  57.818 -59.059  1.00  0.00     0.046 A 
HETATM   26  C   UNL     1     -41.856  59.010 -59.132  1.00  0.00     0.045 A 
HETATM   27  C   UNL     1     -41.798  59.836 -58.016  1.00  0.00     0.117 A 
HETATM   28  F   UNL     1     -41.097  60.975 -58.078  1.00  0.00    -0.206 F 
HETATM   29  C   UNL     1     -42.444  59.491 -56.831  1.00  0.00     0.055 A 
ENDBRANCH  19  22
ENDBRANCH   2  19
TORSDOF 5
ENDMDL
MODEL 7
REMARK VINA RESULT:      -8.5      2.158      3.011
REMARK  5 active torsions:
REMARK  status: ('A' for Active; 'I' for Inactive)
REMARK    1  A    between atoms: C_3  and  C_4 
REMARK    2  A    between atoms: C_8  and  C_9 
REMARK       I    between atoms: C_9  and  N_10 
REMARK    3  A    between atoms: N_10  and  C_11 
REMARK    4  A    between atoms: C_11  and  C_12 
REMARK    5  A    between atoms: C_24  and  O_25 
ROOT
HETATM    1  C   UNL     1     -42.245  57.041 -54.530  1.00  0.00     0.270 C 
HETATM    2  N   UNL     1     -43.511  56.962 -55.074  1.00  0.00    -0.342 N 
HETATM    3  O   UNL     1     -41.531  58.034 -54.628  1.00  0.00    -0.266 OA
HETATM    4  H   UNL     1     -44.014  56.089 -54.995  1.00  0.00     0.164 HD
ENDROOT
BRANCH   1   5
HETATM    5  C   UNL     1     -41.784  55.844 -53.879  1.00  0.00     0.120 A 
HETATM    6  N   UNL     1     -41.286  55.875 -52.607  1.00  0.00    -0.272 N 
HETATM    7  N   UNL     1     -40.781  54.704 -52.184  1.00  0.00    -0.174 NA
HETATM    8  H   UNL     1     -41.228  56.689 -52.000  1.00  0.00     0.189 HD
HETATM    9  C   UNL     1     -40.988  53.857 -53.210  1.00  0.00     0.092 A 
HETATM   10  C   UNL     1     -41.643  54.530 -54.280  1.00  0.00     0.071 A 
BRANCH   9  11
HETATM   11  C   UNL     1     -40.505  52.470 -53.163  1.00  0.00     0.028 A 
HETATM   12  C   UNL     1     -40.490  51.680 -54.324  1.00  0.00     0.017 A 
HETATM   13  C   UNL     1     -39.982  50.376 -54.299  1.00  0.00     0.001 A 
HETATM   14  C   UNL     1     -39.480  49.843 -53.114  1.00  0.00     0.003 A 
HETATM   15  C   UNL     1     -39.496  50.606 -51.949  1.00  0.00     0.037 A 
HETATM   16  C   UNL     1     -40.008  51.902 -51.975  1.00  0.00     0.078 A 
BRANCH  16  17
HETATM   17  O   UNL     1     -39.990  52.579 -50.782  1.00  0.00    -0.360 OA
HETATM   18  H   UNL     1     -40.148  51.904 -50.082  1.00  0.00     0.217 HD
ENDBRANCH  16  17
ENDBRANCH   9  11
ENDBRANCH   1   5
BRANCH   2  19
HETATM   19  C   UNL     1     -43.940  57.832 -56.138  1.00  0.00     0.064 A 
HETATM   20  C   UNL     1     -45.386  58.298 -56.138  1.00  0.00     0.039 A 
HETATM   21  C   UNL     1     -44.294  59.277 -55.850  1.00  0.00     0.039 A 
BRANCH  19  22
HETATM   22  C   UNL     1     -43.294  57.474 -57.468  1.00  0.00     0.011 A 
HETATM   23  C   UNL     1     -42.368  58.327 -58.093  1.00  0.00     0.125 A 
HETATM   24  F   UNL     1     -42.015  59.473 -57.490  1.00  0.00    -0.205 F 
HETATM   25  C   UNL     1     -41.820  58.044 -59.345  1.00  0.00     0.046 A 
HETATM   26  C   UNL     1     -42.199  56.884 -60.013  1.00  0.00     0.045 A 
HETATM   27  C   UNL     1     -43.118  56.028 -59.418  1.00  0.00     0.117 A 
HETATM   28  F   UNL     1     -43.498  54.920 -60.067  1.00  0.00    -0.206 F 
HETATM   29  C   UNL     1     -43.661  56.311 -58.167  1.00  0.00     0.055 A 
ENDBRANCH  19  22
ENDBRANCH   2  19
TORSDOF 5
ENDMDL
MODEL 8
REMARK VINA RESULT:      -8.5      2.268      2.953
REMARK  5 active torsions:
REMARK  status: ('A' for Active; 'I' for Inactive)
REMARK    1  A    between atoms: C_3  and  C_4 
REMARK    2  A    between atoms: C_8  and  C_9 
REMARK       I    between atoms: C_9  and  N_10 
REMARK    3  A    between atoms: N_10  and  C_11 
REMARK    4  A    between atoms: C_11  and  C_12 
REMARK    5  A    between atoms: C_24  and  O_25 
ROOT
HETATM    1  C   UNL     1     -42.869  55.401 -57.075  1.00  0.00     0.270 C 
HETATM    2  N   UNL     1     -42.389  56.657 -57.388  1.00  0.00    -0.342 N 
HETATM    3  O   UNL     1     -43.442  54.678 -57.884  1.00  0.00    -0.266 OA
HETATM    4  H   UNL     1     -41.977  57.211 -56.650  1.00  0.00     0.164 HD
ENDROOT
BRANCH   1   5
HETATM    5  C   UNL     1     -42.706  55.010 -55.700  1.00  0.00     0.120 A 
HETATM    6  N   UNL     1     -43.782  54.873 -54.868  1.00  0.00    -0.272 N 
HETATM    7  N   UNL     1     -43.460  54.626 -53.587  1.00  0.00    -0.174 NA
HETATM    8  H   UNL     1     -44.760  54.984 -55.122  1.00  0.00     0.189 HD
HETATM    9  C   UNL     1     -42.115  54.563 -53.583  1.00  0.00     0.092 A 
HETATM   10  C   UNL     1     -41.608  54.769 -54.897  1.00  0.00     0.071 A 
BRANCH   9  11
HETATM   11  C   UNL     1     -41.364  54.375 -52.334  1.00  0.00     0.028 A 
HETATM   12  C   UNL     1     -40.530  53.258 -52.165  1.00  0.00     0.017 A 
HETATM   13  C   UNL     1     -39.771  53.098 -51.000  1.00  0.00     0.001 A 
HETATM   14  C   UNL     1     -39.833  54.053 -49.987  1.00  0.00     0.003 A 
HETATM   15  C   UNL     1     -40.662  55.163 -50.131  1.00  0.00     0.037 A 
HETATM   16  C   UNL     1     -41.423  55.316 -51.289  1.00  0.00     0.078 A 
BRANCH  16  17
HETATM   17  O   UNL     1     -42.216  56.435 -51.344  1.00  0.00    -0.360 OA
HETATM   18  H   UNL     1     -41.777  57.049 -51.978  1.00  0.00     0.217 HD
ENDBRANCH  16  17
ENDBRANCH   9  11
ENDBRANCH   1   5
BRANCH   2  19
HETATM   19  C   UNL     1     -42.870  57.395 -58.526  1.00  0.00     0.064 A 
HETATM   20  C   UNL     1     -41.971  58.474 -59.107  1.00  0.00     0.039 A 
HETATM   21  C   UNL     1     -42.219  57.222 -59.883  1.00  0.00     0.039 A 
BRANCH  19  22
HETATM   22  C   UNL     1     -44.365  57.664 -58.445  1.00  0.00     0.011 A 
HETATM   23  C   UNL     1     -44.920  58.449 -57.419  1.00  0.00     0.125 A 
HETATM   24  F   UNL     1     -44.111  59.006 -56.504  1.00  0.00    -0.205 F 
HETATM   25  C   UNL     1     -46.296  58.647 -57.291  1.00  0.00     0.046 A 
HETATM   26  C   UNL     1     -47.161  58.047 -58.200  1.00  0.00     0.045 A 
HETATM   27  C   UNL     1     -46.638  57.261 -59.220  1.00  0.00     0.117 A 
HETATM   28  F   UNL     1     -47.469  56.669 -60.086  1.00  0.00    -0.206 F 
HETATM   29  C   UNL     1     -45.264  57.068 -59.346  1.00  0.00     0.055 A 
ENDBRANCH  19  22
ENDBRANCH   2  19
TORSDOF 5
ENDMDL
MODEL 9
REMARK VINA RESULT:      -8.3      4.049      8.066
REMARK  5 active torsions:
REMARK  status: ('A' for Active; 'I' for Inactive)
REMARK    1  A    between atoms: C_3  and  C_4 
REMARK    2  A    between atoms: C_8  and  C_9 
REMARK       I    between atoms: C_9  and  N_10 
REMARK    3  A    between atoms: N_10  and  C_11 
REMARK    4  A    between atoms: C_11  and  C_12 
REMARK    5  A    between atoms: C_24  and  O_25 
ROOT
HETATM    1  C   UNL     1     -41.722  55.353 -54.480  1.00  0.00     0.270 C 
HETATM    2  N   UNL     1     -42.704  55.076 -53.551  1.00  0.00    -0.342 N 
HETATM    3  O   UNL     1     -40.523  55.334 -54.220  1.00  0.00    -0.266 OA
HETATM    4  H   UNL     1     -43.670  55.165 -53.832  1.00  0.00     0.164 HD
ENDROOT
BRANCH   1   5
HETATM    5  C   UNL     1     -42.202  55.728 -55.784  1.00  0.00     0.120 A 
HETATM    6  N   UNL     1     -41.885  56.937 -56.336  1.00  0.00    -0.272 N 
HETATM    7  N   UNL     1     -42.509  57.192 -57.498  1.00  0.00    -0.174 NA
HETATM    8  H   UNL     1     -41.277  57.645 -55.933  1.00  0.00     0.189 HD
HETATM    9  C   UNL     1     -43.242  56.088 -57.737  1.00  0.00     0.092 A 
HETATM   10  C   UNL     1     -43.051  55.135 -56.698  1.00  0.00     0.071 A 
BRANCH   9  11
HETATM   11  C   UNL     1     -44.137  56.005 -58.900  1.00  0.00     0.028 A 
HETATM   12  C   UNL     1     -44.036  54.933 -59.802  1.00  0.00     0.017 A 
HETATM   13  C   UNL     1     -44.918  54.818 -60.882  1.00  0.00     0.001 A 
HETATM   14  C   UNL     1     -45.916  55.771 -61.076  1.00  0.00     0.003 A 
HETATM   15  C   UNL     1     -46.026  56.847 -60.199  1.00  0.00     0.037 A 
HETATM   16  C   UNL     1     -45.141  56.963 -59.128  1.00  0.00     0.078 A 
BRANCH  16  17
HETATM   17  O   UNL     1     -45.319  58.057 -58.318  1.00  0.00    -0.360 OA
HETATM   18  H   UNL     1     -44.592  58.684 -58.544  1.00  0.00     0.217 HD
ENDBRANCH  16  17
ENDBRANCH   9  11
ENDBRANCH   1   5
BRANCH   2  19
HETATM   19  C   UNL     1     -42.458  55.158 -52.134  1.00  0.00     0.064 A 
HETATM   20  C   UNL     1     -43.173  54.170 -51.229  1.00  0.00     0.039 A 
HETATM   21  C   UNL     1     -41.696  54.059 -51.423  1.00  0.00     0.039 A 
BRANCH  19  22
HETATM   22  C   UNL     1     -42.307  56.596 -51.662  1.00  0.00     0.011 A 
HETATM   23  C   UNL     1     -43.361  57.522 -51.761  1.00  0.00     0.125 A 
HETATM   24  F   UNL     1     -44.544  57.122 -52.254  1.00  0.00    -0.205 F 
HETATM   25  C   UNL     1     -43.216  58.861 -51.396  1.00  0.00     0.046 A 
HETATM   26  C   UNL     1     -41.988  59.312 -50.921  1.00  0.00     0.045 A 
HETATM   27  C   UNL     1     -40.929  58.419 -50.820  1.00  0.00     0.117 A 
HETATM   28  F   UNL     1     -39.742  58.855 -50.380  1.00  0.00    -0.206 F 
HETATM   29  C   UNL     1     -41.078  57.082 -51.182  1.00  0.00     0.055 A 
ENDBRANCH  19  22
ENDBRANCH   2  19
TORSDOF 5
ENDMDL
MODEL 10
REMARK VINA RESULT:      -8.3      1.742      2.088
REMARK  5 active torsions:
REMARK  status: ('A' for Active; 'I' for Inactive)
REMARK    1  A    between atoms: C_3  and  C_4 
REMARK    2  A    between atoms: C_8  and  C_9 
REMARK       I    between atoms: C_9  and  N_10 
REMARK    3  A    between atoms: N_10  and  C_11 
REMARK    4  A    between atoms: C_11  and  C_12 
REMARK    5  A    between atoms: C_24  and  O_25 
ROOT
HETATM    1  C   UNL     1     -43.107  57.241 -55.937  1.00  0.00     0.270 C 
HETATM    2  N   UNL     1     -44.399  57.269 -56.424  1.00  0.00    -0.342 N 
HETATM    3  O   UNL     1     -42.260  58.081 -56.224  1.00  0.00    -0.266 OA
HETATM    4  H   UNL     1     -45.020  56.511 -56.182  1.00  0.00     0.164 HD
ENDROOT
BRANCH   1   5
HETATM    5  C   UNL     1     -42.795  56.112 -55.101  1.00  0.00     0.120 A 
HETATM    6  N   UNL     1     -43.390  55.946 -53.882  1.00  0.00    -0.272 N 
HETATM    7  N   UNL     1     -42.904  54.917 -53.168  1.00  0.00    -0.174 NA
HETATM    8  H   UNL     1     -44.106  56.540 -53.473  1.00  0.00     0.189 HD
HETATM    9  C   UNL     1     -41.973  54.362 -53.966  1.00  0.00     0.092 A 
HETATM   10  C   UNL     1     -41.898  55.067 -55.200  1.00  0.00     0.071 A 
BRANCH   9  11
HETATM   11  C   UNL     1     -41.152  53.231 -53.509  1.00  0.00     0.028 A 
HETATM   12  C   UNL     1     -40.843  52.176 -54.382  1.00  0.00     0.017 A 
HETATM   13  C   UNL     1     -40.018  51.122 -53.970  1.00  0.00     0.001 A 
HETATM   14  C   UNL     1     -39.489  51.109 -52.682  1.00  0.00     0.003 A 
HETATM   15  C   UNL     1     -39.793  52.141 -51.797  1.00  0.00     0.037 A 
HETATM   16  C   UNL     1     -40.620  53.186 -52.207  1.00  0.00     0.078 A 
BRANCH  16  17
HETATM   17  O   UNL     1     -40.871  54.157 -51.270  1.00  0.00    -0.360 OA
HETATM   18  H   UNL     1     -39.993  54.423 -50.912  1.00  0.00     0.217 HD
ENDBRANCH  16  17
ENDBRANCH   9  11
ENDBRANCH   1   5
BRANCH   2  19
HETATM   19  C   UNL     1     -44.750  58.006 -57.611  1.00  0.00     0.064 A 
HETATM   20  C   UNL     1     -45.564  59.277 -57.444  1.00  0.00     0.039 A 
HETATM   21  C   UNL     1     -44.137  59.366 -57.878  1.00  0.00     0.039 A 
BRANCH  19  22
HETATM   22  C   UNL     1     -45.068  57.089 -58.782  1.00  0.00     0.011 A 
HETATM   23  C   UNL     1     -44.067  56.350 -59.435  1.00  0.00     0.125 A 
HETATM   24  F   UNL     1     -42.800  56.425 -58.997  1.00  0.00    -0.205 F 
HETATM   25  C   UNL     1     -44.333  55.558 -60.553  1.00  0.00     0.046 A 
HETATM   26  C   UNL     1     -45.629  55.494 -61.055  1.00  0.00     0.045 A 
HETATM   27  C   UNL     1     -46.635  56.221 -60.431  1.00  0.00     0.117 A 
HETATM   28  F   UNL     1     -47.880  56.175 -60.921  1.00  0.00    -0.206 F 
HETATM   29  C   UNL     1     -46.367  57.008 -59.312  1.00  0.00     0.055 A 
ENDBRANCH  19  22
ENDBRANCH   2  19
TORSDOF 5
ENDMDL
