MODEL 1
REMARK VINA RESULT:      -9.0      0.000      0.000
REMARK  3 active torsions:
REMARK  status: ('A' for Active; 'I' for Inactive)
REMARK    1  A    between atoms: C_7  and  C_8 
REMARK    2  A    between atoms: C_17  and  C_18 
REMARK       I    between atoms: C_18  and  N_19 
REMARK    3  A    between atoms: N_19  and  C_20 
ROOT
HETATM    1  C   UNL     1     -41.170  56.697 -52.655  1.00  0.00     0.206 C 
HETATM    2  N   UNL     1     -41.418  58.047 -52.130  1.00  0.00    -0.084 N 
HETATM    3  C   UNL     1     -41.449  58.348 -50.793  1.00  0.00     0.725 A 
HETATM    4  N   UNL     1     -41.593  59.638 -50.635  1.00  0.00    -0.054 NA
HETATM    5  C   UNL     1     -41.600  60.101 -51.924  1.00  0.00     0.275 A 
HETATM    6  N   UNL     1     -41.436  59.175 -52.875  1.00  0.00    -0.149 NA
HETATM    7  N   UNL     1     -41.326  57.358 -49.889  1.00  0.00    -0.192 N 
HETATM    8  C   UNL     1     -41.292  56.013 -50.235  1.00  0.00     0.037 C 
HETATM    9  C   UNL     1     -41.312  55.043 -49.078  1.00  0.00     0.070 C 
HETATM   10  C   UNL     1     -41.239  55.654 -51.542  1.00  0.00     0.063 C 
HETATM   11  H   UNL     1     -41.427  57.587 -48.904  1.00  0.00     0.184 HD
ENDROOT
BRANCH  10  12
HETATM   12  C   UNL     1     -41.384  54.222 -51.911  1.00  0.00     0.256 C 
HETATM   13  N   UNL     1     -40.190  53.583 -52.159  1.00  0.00    -0.323 N 
HETATM   14  H   UNL     1     -39.334  54.095 -52.001  1.00  0.00     0.169 HD
HETATM   15  O   UNL     1     -42.509  53.736 -51.957  1.00  0.00    -0.267 OA
BRANCH  13  16
HETATM   16  C   UNL     1     -40.029  52.252 -52.611  1.00  0.00     0.035 A 
HETATM   17  C   UNL     1     -40.180  51.856 -53.942  1.00  0.00     0.029 A 
HETATM   18  C   UNL     1     -39.994  50.520 -54.314  1.00  0.00     0.002 A 
HETATM   19  C   UNL     1     -39.655  49.568 -53.358  1.00  0.00     0.000 A 
HETATM   20  C   UNL     1     -39.500  49.951 -52.028  1.00  0.00     0.002 A 
HETATM   21  C   UNL     1     -39.684  51.287 -51.656  1.00  0.00     0.029 A 
ENDBRANCH  13  16
ENDBRANCH  10  12
BRANCH   1  22
HETATM   22  C   UNL     1     -42.034  56.413 -53.855  1.00  0.00     0.015 A 
HETATM   23  C   UNL     1     -43.447  56.604 -53.956  1.00  0.00     0.061 A 
HETATM   24  C   UNL     1     -44.400  57.041 -52.903  1.00  0.00     0.073 C 
HETATM   25  N   UNL     1     -43.899  56.352 -55.189  1.00  0.00    -0.178 NA
HETATM   26  N   UNL     1     -42.809  55.964 -55.867  1.00  0.00    -0.284 N 
HETATM   27  C   UNL     1     -42.916  55.670 -57.275  1.00  0.00     0.179 C 
HETATM   28  C   UNL     1     -41.677  55.950 -55.110  1.00  0.00     0.123 A 
ENDBRANCH   1  22
TORSDOF 3
ENDMDL
MODEL 2
REMARK VINA RESULT:      -8.3      1.858      4.260
REMARK  3 active torsions:
REMARK  status: ('A' for Active; 'I' for Inactive)
REMARK    1  A    between atoms: C_7  and  C_8 
REMARK    2  A    between atoms: C_17  and  C_18 
REMARK       I    between atoms: C_18  and  N_19 
REMARK    3  A    between atoms: N_19  and  C_20 
ROOT
HETATM    1  C   UNL     1     -43.279  56.959 -53.338  1.00  0.00     0.206 C 
HETATM    2  N   UNL     1     -44.121  58.079 -53.782  1.00  0.00    -0.084 N 
HETATM    3  C   UNL     1     -44.580  58.220 -55.067  1.00  0.00     0.725 A 
HETATM    4  N   UNL     1     -45.380  59.253 -55.137  1.00  0.00    -0.054 NA
HETATM    5  C   UNL     1     -45.418  59.694 -53.841  1.00  0.00     0.275 A 
HETATM    6  N   UNL     1     -44.713  58.975 -52.961  1.00  0.00    -0.149 NA
HETATM    7  N   UNL     1     -44.189  57.343 -56.009  1.00  0.00    -0.192 N 
HETATM    8  C   UNL     1     -43.236  56.359 -55.783  1.00  0.00     0.037 C 
HETATM    9  C   UNL     1     -42.809  55.574 -57.000  1.00  0.00     0.070 C 
HETATM   10  C   UNL     1     -42.759  56.157 -54.529  1.00  0.00     0.063 C 
HETATM   11  H   UNL     1     -44.477  57.506 -56.971  1.00  0.00     0.184 HD
ENDROOT
BRANCH  10  12
HETATM   12  C   UNL     1     -41.615  55.231 -54.325  1.00  0.00     0.256 C 
HETATM   13  N   UNL     1     -41.969  54.013 -53.790  1.00  0.00    -0.323 N 
HETATM   14  H   UNL     1     -42.951  53.818 -53.656  1.00  0.00     0.169 HD
HETATM   15  O   UNL     1     -40.491  55.605 -54.641  1.00  0.00    -0.267 OA
BRANCH  13  16
HETATM   16  C   UNL     1     -41.085  52.976 -53.410  1.00  0.00     0.035 A 
HETATM   17  C   UNL     1     -40.685  51.941 -54.260  1.00  0.00     0.029 A 
HETATM   18  C   UNL     1     -39.799  50.954 -53.814  1.00  0.00     0.002 A 
HETATM   19  C   UNL     1     -39.304  50.993 -52.514  1.00  0.00     0.000 A 
HETATM   20  C   UNL     1     -39.694  52.021 -51.659  1.00  0.00     0.002 A 
HETATM   21  C   UNL     1     -40.578  53.009 -52.105  1.00  0.00     0.029 A 
ENDBRANCH  13  16
ENDBRANCH  10  12
BRANCH   1  22
HETATM   22  C   UNL     1     -42.225  57.423 -52.368  1.00  0.00     0.015 A 
HETATM   23  C   UNL     1     -41.892  56.821 -51.115  1.00  0.00     0.061 A 
HETATM   24  C   UNL     1     -42.542  55.668 -50.439  1.00  0.00     0.073 C 
HETATM   25  N   UNL     1     -40.842  57.415 -50.538  1.00  0.00    -0.178 NA
HETATM   26  N   UNL     1     -40.523  58.410 -51.378  1.00  0.00    -0.284 N 
HETATM   27  C   UNL     1     -39.374  59.235 -51.099  1.00  0.00     0.179 C 
HETATM   28  C   UNL     1     -41.337  58.481 -52.468  1.00  0.00     0.123 A 
ENDBRANCH   1  22
TORSDOF 3
ENDMDL
MODEL 3
REMARK VINA RESULT:      -7.9      2.197      5.715
REMARK  3 active torsions:
REMARK  status: ('A' for Active; 'I' for Inactive)
REMARK    1  A    between atoms: C_7  and  C_8 
REMARK    2  A    between atoms: C_17  and  C_18 
REMARK       I    between atoms: C_18  and  N_19 
REMARK    3  A    between atoms: N_19  and  C_20 
ROOT
HETATM    1  C   UNL     1     -41.553  55.573 -52.033  1.00  0.00     0.206 C 
HETATM    2  N   UNL     1     -40.984  54.878 -50.870  1.00  0.00    -0.084 N 
HETATM    3  C   UNL     1     -40.433  53.624 -50.931  1.00  0.00     0.725 A 
HETATM    4  N   UNL     1     -39.925  53.310 -49.766  1.00  0.00    -0.054 NA
HETATM    5  C   UNL     1     -40.151  54.438 -49.024  1.00  0.00     0.275 A 
HETATM    6  N   UNL     1     -40.743  55.449 -49.669  1.00  0.00    -0.149 NA
HETATM    7  N   UNL     1     -40.472  52.939 -52.088  1.00  0.00    -0.192 N 
HETATM    8  C   UNL     1     -41.158  53.384 -53.211  1.00  0.00     0.037 C 
HETATM    9  C   UNL     1     -41.224  52.409 -54.362  1.00  0.00     0.070 C 
HETATM   10  C   UNL     1     -41.707  54.625 -53.219  1.00  0.00     0.063 C 
HETATM   11  H   UNL     1     -40.128  51.982 -52.097  1.00  0.00     0.184 HD
ENDROOT
BRANCH  10  12
HETATM   12  C   UNL     1     -42.588  55.025 -54.347  1.00  0.00     0.256 C 
HETATM   13  N   UNL     1     -41.963  55.798 -55.298  1.00  0.00    -0.323 N 
HETATM   14  H   UNL     1     -40.972  55.964 -55.203  1.00  0.00     0.169 HD
HETATM   15  O   UNL     1     -43.754  54.645 -54.347  1.00  0.00    -0.267 OA
BRANCH  13  16
HETATM   16  C   UNL     1     -42.573  56.391 -56.429  1.00  0.00     0.035 A 
HETATM   17  C   UNL     1     -42.968  55.681 -57.565  1.00  0.00     0.029 A 
HETATM   18  C   UNL     1     -43.575  56.338 -58.642  1.00  0.00     0.002 A 
HETATM   19  C   UNL     1     -43.792  57.711 -58.592  1.00  0.00     0.000 A 
HETATM   20  C   UNL     1     -43.405  58.429 -57.463  1.00  0.00     0.002 A 
HETATM   21  C   UNL     1     -42.800  57.773 -56.386  1.00  0.00     0.029 A 
ENDBRANCH  13  16
ENDBRANCH  10  12
BRANCH   1  22
HETATM   22  C   UNL     1     -42.795  56.336 -51.656  1.00  0.00     0.015 A 
HETATM   23  C   UNL     1     -43.927  55.829 -50.944  1.00  0.00     0.061 A 
HETATM   24  C   UNL     1     -44.186  54.439 -50.485  1.00  0.00     0.073 C 
HETATM   25  N   UNL     1     -44.822  56.787 -50.680  1.00  0.00    -0.178 NA
HETATM   26  N   UNL     1     -44.303  57.887 -51.243  1.00  0.00    -0.284 N 
HETATM   27  C   UNL     1     -44.985  59.150 -51.096  1.00  0.00     0.179 C 
HETATM   28  C   UNL     1     -43.113  57.667 -51.868  1.00  0.00     0.123 A 
ENDBRANCH   1  22
TORSDOF 3
ENDMDL
MODEL 4
REMARK VINA RESULT:      -7.7      1.532      3.767
REMARK  3 active torsions:
REMARK  status: ('A' for Active; 'I' for Inactive)
REMARK    1  A    between atoms: C_7  and  C_8 
REMARK    2  A    between atoms: C_17  and  C_18 
REMARK       I    between atoms: C_18  and  N_19 
REMARK    3  A    between atoms: N_19  and  C_20 
ROOT
HETATM    1  C   UNL     1     -42.422  56.398 -52.105  1.00  0.00     0.206 C 
HETATM    2  N   UNL     1     -42.045  57.817 -52.045  1.00  0.00    -0.084 N 
HETATM    3  C   UNL     1     -41.606  58.532 -53.129  1.00  0.00     0.725 A 
HETATM    4  N   UNL     1     -41.441  59.785 -52.792  1.00  0.00    -0.054 NA
HETATM    5  C   UNL     1     -41.840  59.801 -51.483  1.00  0.00     0.275 A 
HETATM    6  N   UNL     1     -42.276  58.635 -50.994  1.00  0.00    -0.149 NA
HETATM    7  N   UNL     1     -41.428  57.906 -54.307  1.00  0.00    -0.192 N 
HETATM    8  C   UNL     1     -41.547  56.530 -54.461  1.00  0.00     0.037 C 
HETATM    9  C   UNL     1     -41.154  55.992 -55.816  1.00  0.00     0.070 C 
HETATM   10  C   UNL     1     -41.996  55.772 -53.431  1.00  0.00     0.063 C 
HETATM   11  H   UNL     1     -41.031  58.433 -55.080  1.00  0.00     0.184 HD
ENDROOT
BRANCH  10  12
HETATM   12  C   UNL     1     -41.950  54.291 -53.541  1.00  0.00     0.256 C 
HETATM   13  N   UNL     1     -40.736  53.741 -53.197  1.00  0.00    -0.323 N 
HETATM   14  H   UNL     1     -40.020  54.355 -52.834  1.00  0.00     0.169 HD
HETATM   15  O   UNL     1     -42.957  53.696 -53.909  1.00  0.00    -0.267 OA
BRANCH  13  16
HETATM   16  C   UNL     1     -40.377  52.376 -53.288  1.00  0.00     0.035 A 
HETATM   17  C   UNL     1     -40.458  51.624 -54.463  1.00  0.00     0.029 A 
HETATM   18  C   UNL     1     -40.075  50.278 -54.477  1.00  0.00     0.002 A 
HETATM   19  C   UNL     1     -39.607  49.672 -53.316  1.00  0.00     0.000 A 
HETATM   20  C   UNL     1     -39.520  50.411 -52.140  1.00  0.00     0.002 A 
HETATM   21  C   UNL     1     -39.901  51.757 -52.125  1.00  0.00     0.029 A 
ENDBRANCH  13  16
ENDBRANCH  10  12
BRANCH   1  22
HETATM   22  C   UNL     1     -41.968  55.662 -50.872  1.00  0.00     0.015 A 
HETATM   23  C   UNL     1     -42.746  54.763 -50.078  1.00  0.00     0.061 A 
HETATM   24  C   UNL     1     -44.181  54.404 -50.222  1.00  0.00     0.073 C 
HETATM   25  N   UNL     1     -42.020  54.197 -49.108  1.00  0.00    -0.178 NA
HETATM   26  N   UNL     1     -40.805  54.747 -49.241  1.00  0.00    -0.284 N 
HETATM   27  C   UNL     1     -39.730  54.313 -48.384  1.00  0.00     0.179 C 
HETATM   28  C   UNL     1     -40.729  55.653 -50.256  1.00  0.00     0.123 A 
ENDBRANCH   1  22
TORSDOF 3
ENDMDL
MODEL 5
REMARK VINA RESULT:      -7.4      2.005      5.644
REMARK  3 active torsions:
REMARK  status: ('A' for Active; 'I' for Inactive)
REMARK    1  A    between atoms: C_7  and  C_8 
REMARK    2  A    between atoms: C_17  and  C_18 
REMARK       I    between atoms: C_18  and  N_19 
REMARK    3  A    between atoms: N_19  and  C_20 
ROOT
HETATM    1  C   UNL     1     -40.810  55.583 -51.471  1.00  0.00     0.206 C 
HETATM    2  N   UNL     1     -40.847  54.627 -50.355  1.00  0.00    -0.084 N 
HETATM    3  C   UNL     1     -40.627  53.281 -50.502  1.00  0.00     0.725 A 
HETATM    4  N   UNL     1     -40.628  52.705 -49.327  1.00  0.00    -0.054 NA
HETATM    5  C   UNL     1     -40.810  53.759 -48.473  1.00  0.00     0.275 A 
HETATM    6  N   UNL     1     -40.889  54.965 -49.047  1.00  0.00    -0.149 NA
HETATM    7  N   UNL     1     -40.443  52.771 -51.733  1.00  0.00    -0.192 N 
HETATM    8  C   UNL     1     -40.586  53.519 -52.895  1.00  0.00     0.037 C 
HETATM    9  C   UNL     1     -40.498  52.740 -54.186  1.00  0.00     0.070 C 
HETATM   10  C   UNL     1     -40.784  54.859 -52.815  1.00  0.00     0.063 C 
HETATM   11  H   UNL     1     -40.357  51.763 -51.832  1.00  0.00     0.184 HD
ENDROOT
BRANCH  10  12
HETATM   12  C   UNL     1     -41.114  55.622 -54.046  1.00  0.00     0.256 C 
HETATM   13  N   UNL     1     -42.389  55.401 -54.516  1.00  0.00    -0.323 N 
HETATM   14  H   UNL     1     -43.007  54.821 -53.966  1.00  0.00     0.169 HD
HETATM   15  O   UNL     1     -40.264  56.364 -54.525  1.00  0.00    -0.267 OA
BRANCH  13  16
HETATM   16  C   UNL     1     -42.944  55.921 -55.709  1.00  0.00     0.035 A 
HETATM   17  C   UNL     1     -42.811  55.316 -56.961  1.00  0.00     0.029 A 
HETATM   18  C   UNL     1     -43.398  55.887 -58.096  1.00  0.00     0.002 A 
HETATM   19  C   UNL     1     -44.126  57.067 -57.988  1.00  0.00     0.000 A 
HETATM   20  C   UNL     1     -44.268  57.678 -56.745  1.00  0.00     0.002 A 
HETATM   21  C   UNL     1     -43.683  57.108 -55.610  1.00  0.00     0.029 A 
ENDBRANCH  13  16
ENDBRANCH  10  12
BRANCH   1  22
HETATM   22  C   UNL     1     -41.884  56.629 -51.326  1.00  0.00     0.015 A 
HETATM   23  C   UNL     1     -41.700  58.046 -51.310  1.00  0.00     0.061 A 
HETATM   24  C   UNL     1     -40.429  58.816 -51.349  1.00  0.00     0.073 C 
HETATM   25  N   UNL     1     -42.865  58.701 -51.268  1.00  0.00    -0.178 NA
HETATM   26  N   UNL     1     -43.787  57.730 -51.215  1.00  0.00    -0.284 N 
HETATM   27  C   UNL     1     -45.187  58.078 -51.225  1.00  0.00     0.179 C 
HETATM   28  C   UNL     1     -43.255  56.476 -51.212  1.00  0.00     0.123 A 
ENDBRANCH   1  22
TORSDOF 3
ENDMDL
MODEL 6
REMARK VINA RESULT:      -7.4      1.668      6.035
REMARK  3 active torsions:
REMARK  status: ('A' for Active; 'I' for Inactive)
REMARK    1  A    between atoms: C_7  and  C_8 
REMARK    2  A    between atoms: C_17  and  C_18 
REMARK       I    between atoms: C_18  and  N_19 
REMARK    3  A    between atoms: N_19  and  C_20 
ROOT
HETATM    1  C   UNL     1     -41.901  53.640 -52.757  1.00  0.00     0.206 C 
HETATM    2  N   UNL     1     -41.002  52.596 -53.269  1.00  0.00    -0.084 N 
HETATM    3  C   UNL     1     -39.979  52.050 -52.537  1.00  0.00     0.725 A 
HETATM    4  N   UNL     1     -39.419  51.083 -53.217  1.00  0.00    -0.054 NA
HETATM    5  C   UNL     1     -40.172  51.041 -54.359  1.00  0.00     0.275 A 
HETATM    6  N   UNL     1     -41.191  51.906 -54.416  1.00  0.00    -0.149 NA
HETATM    7  N   UNL     1     -39.713  52.532 -51.309  1.00  0.00    -0.192 N 
HETATM    8  C   UNL     1     -40.344  53.651 -50.779  1.00  0.00     0.037 C 
HETATM    9  C   UNL     1     -39.802  54.138 -49.456  1.00  0.00     0.070 C 
HETATM   10  C   UNL     1     -41.377  54.223 -51.447  1.00  0.00     0.063 C 
HETATM   11  H   UNL     1     -38.905  52.169 -50.811  1.00  0.00     0.184 HD
ENDROOT
BRANCH  10  12
HETATM   12  C   UNL     1     -41.926  55.518 -50.968  1.00  0.00     0.256 C 
HETATM   13  N   UNL     1     -41.290  56.622 -51.487  1.00  0.00    -0.323 N 
HETATM   14  H   UNL     1     -40.576  56.477 -52.188  1.00  0.00     0.169 HD
HETATM   15  O   UNL     1     -42.870  55.504 -50.186  1.00  0.00    -0.267 OA
BRANCH  13  16
HETATM   16  C   UNL     1     -41.540  57.972 -51.146  1.00  0.00     0.035 A 
HETATM   17  C   UNL     1     -40.640  58.782 -50.448  1.00  0.00     0.029 A 
HETATM   18  C   UNL     1     -40.956  60.113 -50.155  1.00  0.00     0.002 A 
HETATM   19  C   UNL     1     -42.176  60.647 -50.557  1.00  0.00     0.000 A 
HETATM   20  C   UNL     1     -43.080  59.851 -51.255  1.00  0.00     0.002 A 
HETATM   21  C   UNL     1     -42.765  58.521 -51.550  1.00  0.00     0.029 A 
ENDBRANCH  13  16
ENDBRANCH  10  12
BRANCH   1  22
HETATM   22  C   UNL     1     -42.223  54.651 -53.826  1.00  0.00     0.015 A 
HETATM   23  C   UNL     1     -41.318  55.194 -54.790  1.00  0.00     0.061 A 
HETATM   24  C   UNL     1     -39.855  54.963 -54.921  1.00  0.00     0.073 C 
HETATM   25  N   UNL     1     -41.938  55.993 -55.664  1.00  0.00    -0.178 NA
HETATM   26  N   UNL     1     -43.214  56.004 -55.253  1.00  0.00    -0.284 N 
HETATM   27  C   UNL     1     -44.201  56.728 -56.016  1.00  0.00     0.179 C 
HETATM   28  C   UNL     1     -43.431  55.248 -54.141  1.00  0.00     0.123 A 
ENDBRANCH   1  22
TORSDOF 3
ENDMDL
MODEL 7
REMARK VINA RESULT:      -7.2      1.785      4.281
REMARK  3 active torsions:
REMARK  status: ('A' for Active; 'I' for Inactive)
REMARK    1  A    between atoms: C_7  and  C_8 
REMARK    2  A    between atoms: C_17  and  C_18 
REMARK       I    between atoms: C_18  and  N_19 
REMARK    3  A    between atoms: N_19  and  C_20 
ROOT
HETATM    1  C   UNL     1     -43.356  56.182 -52.811  1.00  0.00     0.206 C 
HETATM    2  N   UNL     1     -44.109  57.445 -52.794  1.00  0.00    -0.084 N 
HETATM    3  C   UNL     1     -44.404  58.168 -53.921  1.00  0.00     0.725 A 
HETATM    4  N   UNL     1     -45.162  59.186 -53.605  1.00  0.00    -0.054 NA
HETATM    5  C   UNL     1     -45.347  59.018 -52.259  1.00  0.00     0.275 A 
HETATM    6  N   UNL     1     -44.773  57.935 -51.723  1.00  0.00    -0.149 NA
HETATM    7  N   UNL     1     -43.923  57.763 -55.111  1.00  0.00    -0.192 N 
HETATM    8  C   UNL     1     -43.030  56.708 -55.251  1.00  0.00     0.037 C 
HETATM    9  C   UNL     1     -42.478  56.503 -56.642  1.00  0.00     0.070 C 
HETATM   10  C   UNL     1     -42.716  55.943 -54.176  1.00  0.00     0.063 C 
HETATM   11  H   UNL     1     -44.087  58.351 -55.924  1.00  0.00     0.184 HD
ENDROOT
BRANCH  10  12
HETATM   12  C   UNL     1     -41.630  54.936 -54.291  1.00  0.00     0.256 C 
HETATM   13  N   UNL     1     -41.902  53.744 -53.659  1.00  0.00    -0.323 N 
HETATM   14  H   UNL     1     -42.816  53.620 -53.247  1.00  0.00     0.169 HD
HETATM   15  O   UNL     1     -40.619  55.229 -54.920  1.00  0.00    -0.267 OA
BRANCH  13  16
HETATM   16  C   UNL     1     -41.022  52.643 -53.530  1.00  0.00     0.035 A 
HETATM   17  C   UNL     1     -40.165  52.452 -52.443  1.00  0.00     0.029 A 
HETATM   18  C   UNL     1     -39.330  51.331 -52.382  1.00  0.00     0.002 A 
HETATM   19  C   UNL     1     -39.345  50.390 -53.407  1.00  0.00     0.000 A 
HETATM   20  C   UNL     1     -40.197  50.569 -54.494  1.00  0.00     0.002 A 
HETATM   21  C   UNL     1     -41.033  51.688 -54.555  1.00  0.00     0.029 A 
ENDBRANCH  13  16
ENDBRANCH  10  12
BRANCH   1  22
HETATM   22  C   UNL     1     -42.417  56.094 -51.637  1.00  0.00     0.015 A 
HETATM   23  C   UNL     1     -41.406  57.038 -51.278  1.00  0.00     0.061 A 
HETATM   24  C   UNL     1     -40.987  58.267 -52.002  1.00  0.00     0.073 C 
HETATM   25  N   UNL     1     -40.810  56.719 -50.124  1.00  0.00    -0.178 NA
HETATM   26  N   UNL     1     -41.393  55.567 -49.760  1.00  0.00    -0.284 N 
HETATM   27  C   UNL     1     -41.034  54.955 -48.504  1.00  0.00     0.179 C 
HETATM   28  C   UNL     1     -42.334  55.133 -50.644  1.00  0.00     0.123 A 
ENDBRANCH   1  22
TORSDOF 3
ENDMDL
MODEL 8
REMARK VINA RESULT:      -7.2      2.181      4.900
REMARK  3 active torsions:
REMARK  status: ('A' for Active; 'I' for Inactive)
REMARK    1  A    between atoms: C_7  and  C_8 
REMARK    2  A    between atoms: C_17  and  C_18 
REMARK       I    between atoms: C_18  and  N_19 
REMARK    3  A    between atoms: N_19  and  C_20 
ROOT
HETATM    1  C   UNL     1     -43.757  57.583 -54.215  1.00  0.00     0.206 C 
HETATM    2  N   UNL     1     -44.611  58.551 -54.917  1.00  0.00    -0.084 N 
HETATM    3  C   UNL     1     -45.014  58.403 -56.219  1.00  0.00     0.725 A 
HETATM    4  N   UNL     1     -45.839  59.367 -56.537  1.00  0.00    -0.054 NA
HETATM    5  C   UNL     1     -45.950  60.068 -55.365  1.00  0.00     0.275 A 
HETATM    6  N   UNL     1     -45.266  59.576 -54.327  1.00  0.00    -0.149 NA
HETATM    7  N   UNL     1     -44.554  57.364 -56.940  1.00  0.00    -0.192 N 
HETATM    8  C   UNL     1     -43.584  56.486 -56.474  1.00  0.00     0.037 C 
HETATM    9  C   UNL     1     -43.079  55.480 -57.481  1.00  0.00     0.070 C 
HETATM   10  C   UNL     1     -43.160  56.569 -55.188  1.00  0.00     0.063 C 
HETATM   11  H   UNL     1     -44.802  57.310 -57.925  1.00  0.00     0.184 HD
ENDROOT
BRANCH  10  12
HETATM   12  C   UNL     1     -42.000  55.752 -54.749  1.00  0.00     0.256 C 
HETATM   13  N   UNL     1     -42.346  54.627 -54.034  1.00  0.00    -0.323 N 
HETATM   14  H   UNL     1     -43.327  54.409 -53.934  1.00  0.00     0.169 HD
HETATM   15  O   UNL     1     -40.870  56.121 -55.050  1.00  0.00    -0.267 OA
BRANCH  13  16
HETATM   16  C   UNL     1     -41.454  53.716 -53.420  1.00  0.00     0.035 A 
HETATM   17  C   UNL     1     -41.184  53.692 -52.050  1.00  0.00     0.029 A 
HETATM   18  C   UNL     1     -40.295  52.753 -51.515  1.00  0.00     0.002 A 
HETATM   19  C   UNL     1     -39.670  51.829 -52.345  1.00  0.00     0.000 A 
HETATM   20  C   UNL     1     -39.934  51.841 -53.712  1.00  0.00     0.002 A 
HETATM   21  C   UNL     1     -40.823  52.779 -54.248  1.00  0.00     0.029 A 
ENDBRANCH  13  16
ENDBRANCH  10  12
BRANCH   1  22
HETATM   22  C   UNL     1     -42.763  58.280 -53.324  1.00  0.00     0.015 A 
HETATM   23  C   UNL     1     -41.849  59.310 -53.706  1.00  0.00     0.061 A 
HETATM   24  C   UNL     1     -41.602  59.876 -55.058  1.00  0.00     0.073 C 
HETATM   25  N   UNL     1     -41.171  59.790 -52.658  1.00  0.00    -0.178 NA
HETATM   26  N   UNL     1     -41.604  59.059 -51.621  1.00  0.00    -0.284 N 
HETATM   27  C   UNL     1     -41.124  59.353 -50.294  1.00  0.00     0.179 C 
HETATM   28  C   UNL     1     -42.529  58.122 -51.969  1.00  0.00     0.123 A 
ENDBRANCH   1  22
TORSDOF 3
ENDMDL
MODEL 9
REMARK VINA RESULT:      -7.0      2.224      2.584
REMARK  3 active torsions:
REMARK  status: ('A' for Active; 'I' for Inactive)
REMARK    1  A    between atoms: C_7  and  C_8 
REMARK    2  A    between atoms: C_17  and  C_18 
REMARK       I    between atoms: C_18  and  N_19 
REMARK    3  A    between atoms: N_19  and  C_20 
ROOT
HETATM    1  C   UNL     1     -42.852  57.978 -53.430  1.00  0.00     0.206 C 
HETATM    2  N   UNL     1     -44.080  58.641 -52.969  1.00  0.00    -0.084 N 
HETATM    3  C   UNL     1     -44.644  58.420 -51.738  1.00  0.00     0.725 A 
HETATM    4  N   UNL     1     -45.668  59.218 -51.575  1.00  0.00    -0.054 NA
HETATM    5  C   UNL     1     -45.666  59.953 -52.730  1.00  0.00     0.275 A 
HETATM    6  N   UNL     1     -44.679  59.680 -53.591  1.00  0.00    -0.149 NA
HETATM    7  N   UNL     1     -44.108  57.495 -50.921  1.00  0.00    -0.192 N 
HETATM    8  C   UNL     1     -43.075  56.650 -51.304  1.00  0.00     0.037 C 
HETATM    9  C   UNL     1     -42.714  55.572 -50.310  1.00  0.00     0.070 C 
HETATM   10  C   UNL     1     -42.463  56.831 -52.501  1.00  0.00     0.063 C 
HETATM   11  H   UNL     1     -44.583  57.290 -50.045  1.00  0.00     0.184 HD
ENDROOT
BRANCH  10  12
HETATM   12  C   UNL     1     -41.487  55.820 -52.981  1.00  0.00     0.256 C 
HETATM   13  N   UNL     1     -41.871  54.518 -52.753  1.00  0.00    -0.323 N 
HETATM   14  H   UNL     1     -42.788  54.353 -52.362  1.00  0.00     0.169 HD
HETATM   15  O   UNL     1     -40.459  56.205 -53.527  1.00  0.00    -0.267 OA
BRANCH  13  16
HETATM   16  C   UNL     1     -41.107  53.358 -53.023  1.00  0.00     0.035 A 
HETATM   17  C   UNL     1     -41.109  52.690 -54.250  1.00  0.00     0.029 A 
HETATM   18  C   UNL     1     -40.317  51.553 -54.444  1.00  0.00     0.002 A 
HETATM   19  C   UNL     1     -39.515  51.074 -53.413  1.00  0.00     0.000 A 
HETATM   20  C   UNL     1     -39.503  51.733 -52.187  1.00  0.00     0.002 A 
HETATM   21  C   UNL     1     -40.293  52.871 -51.992  1.00  0.00     0.029 A 
ENDBRANCH  13  16
ENDBRANCH  10  12
BRANCH   1  22
HETATM   22  C   UNL     1     -42.944  57.619 -54.890  1.00  0.00     0.015 A 
HETATM   23  C   UNL     1     -42.512  58.415 -55.996  1.00  0.00     0.061 A 
HETATM   24  C   UNL     1     -41.955  59.794 -55.983  1.00  0.00     0.073 C 
HETATM   25  N   UNL     1     -42.641  57.769 -57.158  1.00  0.00    -0.178 NA
HETATM   26  N   UNL     1     -43.185  56.590 -56.822  1.00  0.00    -0.284 N 
HETATM   27  C   UNL     1     -43.409  55.594 -57.841  1.00  0.00     0.179 C 
HETATM   28  C   UNL     1     -43.417  56.463 -55.486  1.00  0.00     0.123 A 
ENDBRANCH   1  22
TORSDOF 3
ENDMDL
MODEL 10
REMARK VINA RESULT:      -6.8     15.054     17.131
REMARK  3 active torsions:
REMARK  status: ('A' for Active; 'I' for Inactive)
REMARK    1  A    between atoms: C_7  and  C_8 
REMARK    2  A    between atoms: C_17  and  C_18 
REMARK       I    between atoms: C_18  and  N_19 
REMARK    3  A    between atoms: N_19  and  C_20 
ROOT
HETATM    1  C   UNL     1     -36.014  39.086 -52.788  1.00  0.00     0.206 C 
HETATM    2  N   UNL     1     -36.074  38.713 -51.368  1.00  0.00    -0.084 N 
HETATM    3  C   UNL     1     -37.127  39.024 -50.546  1.00  0.00     0.725 A 
HETATM    4  N   UNL     1     -36.942  38.480 -49.370  1.00  0.00    -0.054 NA
HETATM    5  C   UNL     1     -35.768  37.797 -49.535  1.00  0.00     0.275 A 
HETATM    6  N   UNL     1     -35.226  37.857 -50.756  1.00  0.00    -0.149 NA
HETATM    7  N   UNL     1     -38.136  39.778 -51.020  1.00  0.00    -0.192 N 
HETATM    8  C   UNL     1     -38.116  40.372 -52.275  1.00  0.00     0.037 C 
HETATM    9  C   UNL     1     -39.263  41.310 -52.569  1.00  0.00     0.070 C 
HETATM   10  C   UNL     1     -37.112  40.087 -53.141  1.00  0.00     0.063 C 
HETATM   11  H   UNL     1     -38.870  40.063 -50.377  1.00  0.00     0.184 HD
ENDROOT
BRANCH  10  12
HETATM   12  C   UNL     1     -36.999  40.858 -54.406  1.00  0.00     0.256 C 
HETATM   13  N   UNL     1     -37.503  40.205 -55.507  1.00  0.00    -0.323 N 
HETATM   14  H   UNL     1     -37.965  39.318 -55.366  1.00  0.00     0.169 HD
HETATM   15  O   UNL     1     -36.492  41.974 -54.372  1.00  0.00    -0.267 OA
BRANCH  13  16
HETATM   16  C   UNL     1     -37.453  40.657 -56.846  1.00  0.00     0.035 A 
HETATM   17  C   UNL     1     -36.904  41.882 -57.237  1.00  0.00     0.029 A 
HETATM   18  C   UNL     1     -36.882  42.256 -58.585  1.00  0.00     0.002 A 
HETATM   19  C   UNL     1     -37.408  41.409 -59.555  1.00  0.00     0.000 A 
HETATM   20  C   UNL     1     -37.956  40.186 -59.179  1.00  0.00     0.002 A 
HETATM   21  C   UNL     1     -37.977  39.810 -57.832  1.00  0.00     0.029 A 
ENDBRANCH  13  16
ENDBRANCH  10  12
BRANCH   1  22
HETATM   22  C   UNL     1     -34.620  39.497 -53.183  1.00  0.00     0.015 A 
HETATM   23  C   UNL     1     -33.816  40.502 -52.561  1.00  0.00     0.061 A 
HETATM   24  C   UNL     1     -34.179  41.423 -51.452  1.00  0.00     0.073 C 
HETATM   25  N   UNL     1     -32.588  40.556 -53.086  1.00  0.00    -0.178 NA
HETATM   26  N   UNL     1     -32.604  39.633 -54.059  1.00  0.00    -0.284 N 
HETATM   27  C   UNL     1     -31.400  39.369 -54.808  1.00  0.00     0.179 C 
HETATM   28  C   UNL     1     -33.802  38.997 -54.181  1.00  0.00     0.123 A 
ENDBRANCH   1  22
TORSDOF 3
ENDMDL
