MODEL 1
REMARK VINA RESULT:      -8.2      0.000      0.000
REMARK  3 active torsions:
REMARK  status: ('A' for Active; 'I' for Inactive)
REMARK    1  A    between atoms: C_3  and  N_4 
REMARK       I    between atoms: N_4  and  C_5 
REMARK    2  A    between atoms: C_5  and  C_6 
REMARK    3  A    between atoms: C_6  and  C_7 
ROOT
HETATM    1  C   UNL     1     -42.664  54.503 -51.391  1.00  0.00     0.286 C 
HETATM    2  N   UNL     1     -41.790  55.265 -52.395  1.00  0.00    -0.056 N 
HETATM    3  H   UNL     1     -40.847  54.832 -52.410  1.00  0.00     0.278 HD
HETATM    4  H   UNL     1     -42.181  55.146 -53.339  1.00  0.00     0.278 HD
HETATM    5  C   UNL     1     -41.605  56.730 -52.093  1.00  0.00     0.209 C 
HETATM    6  C   UNL     1     -42.977  57.383 -51.840  1.00  0.00     0.115 C 
HETATM    7  N   UNL     1     -43.706  56.692 -50.790  1.00  0.00    -0.353 N 
HETATM    8  C   UNL     1     -43.765  55.327 -50.702  1.00  0.00     0.249 C 
HETATM    9  O   UNL     1     -44.654  54.792 -50.049  1.00  0.00    -0.271 OA
HETATM   10  C   UNL     1     -40.880  57.406 -53.252  1.00  0.00     0.035 C 
HETATM   11  C   UNL     1     -40.696  58.896 -52.959  1.00  0.00     0.002 C 
HETATM   12  C   UNL     1     -42.017  59.586 -52.614  1.00  0.00     0.002 C 
HETATM   13  C   UNL     1     -42.785  58.864 -51.506  1.00  0.00     0.027 C 
HETATM   14  H   UNL     1     -44.511  57.154 -50.366  1.00  0.00     0.163 HD
ENDROOT
BRANCH   1  15
HETATM   15  C   UNL     1     -41.845  53.704 -50.374  1.00  0.00     0.146 C 
BRANCH  15  16
HETATM   16  C   UNL     1     -40.374  53.904 -50.568  1.00  0.00     0.224 C 
HETATM   17  N   UNL     1     -39.552  53.101 -51.273  1.00  0.00    -0.325 N 
HETATM   18  H   UNL     1     -38.591  53.447 -51.240  1.00  0.00     0.169 HD
HETATM   19  O   UNL     1     -39.858  54.825 -49.914  1.00  0.00    -0.273 OA
BRANCH  17  20
HETATM   20  C   UNL     1     -39.669  51.925 -52.042  1.00  0.00     0.073 A 
HETATM   21  C   UNL     1     -39.548  50.612 -51.602  1.00  0.00     0.033 A 
HETATM   22  C   UNL     1     -39.674  49.545 -52.505  1.00  0.00     0.002 A 
HETATM   23  C   UNL     1     -39.930  49.775 -53.856  1.00  0.00     0.003 A 
HETATM   24  C   UNL     1     -40.061  51.080 -54.314  1.00  0.00     0.044 A 
HETATM   25  C   UNL     1     -39.930  52.130 -53.411  1.00  0.00     0.143 A 
HETATM   26  F   UNL     1     -40.041  53.388 -53.868  1.00  0.00    -0.204 F 
ENDBRANCH  17  20
ENDBRANCH  15  16
ENDBRANCH   1  15
TORSDOF 3
ENDMDL
MODEL 2
REMARK VINA RESULT:      -8.0      1.720      2.099
REMARK  3 active torsions:
REMARK  status: ('A' for Active; 'I' for Inactive)
REMARK    1  A    between atoms: C_3  and  N_4 
REMARK       I    between atoms: N_4  and  C_5 
REMARK    2  A    between atoms: C_5  and  C_6 
REMARK    3  A    between atoms: C_6  and  C_7 
ROOT
HETATM    1  C   UNL     1     -41.732  55.213 -52.068  1.00  0.00     0.286 C 
HETATM    2  N   UNL     1     -40.870  56.344 -51.494  1.00  0.00    -0.056 N 
HETATM    3  H   UNL     1     -40.350  55.982 -50.672  1.00  0.00     0.278 HD
HETATM    4  H   UNL     1     -40.164  56.615 -52.191  1.00  0.00     0.278 HD
HETATM    5  C   UNL     1     -41.638  57.558 -51.037  1.00  0.00     0.209 C 
HETATM    6  C   UNL     1     -42.600  58.011 -52.152  1.00  0.00     0.115 C 
HETATM    7  N   UNL     1     -43.476  56.929 -52.566  1.00  0.00    -0.353 N 
HETATM    8  C   UNL     1     -43.033  55.648 -52.762  1.00  0.00     0.249 C 
HETATM    9  O   UNL     1     -43.692  54.868 -53.440  1.00  0.00    -0.271 OA
HETATM   10  C   UNL     1     -40.664  58.671 -50.665  1.00  0.00     0.035 C 
HETATM   11  C   UNL     1     -41.434  59.911 -50.209  1.00  0.00     0.002 C 
HETATM   12  C   UNL     1     -42.470  60.362 -51.241  1.00  0.00     0.002 C 
HETATM   13  C   UNL     1     -43.398  59.227 -51.676  1.00  0.00     0.027 C 
HETATM   14  H   UNL     1     -44.304  57.153 -53.118  1.00  0.00     0.163 HD
ENDROOT
BRANCH   1  15
HETATM   15  C   UNL     1     -41.985  54.087 -51.061  1.00  0.00     0.146 C 
BRANCH  15  16
HETATM   16  C   UNL     1     -40.713  53.608 -50.435  1.00  0.00     0.224 C 
HETATM   17  N   UNL     1     -39.907  52.642 -50.920  1.00  0.00    -0.325 N 
HETATM   18  H   UNL     1     -39.110  52.489 -50.299  1.00  0.00     0.169 HD
HETATM   19  O   UNL     1     -40.457  54.060 -49.307  1.00  0.00    -0.273 OA
BRANCH  17  20
HETATM   20  C   UNL     1     -39.871  51.800 -52.051  1.00  0.00     0.073 A 
HETATM   21  C   UNL     1     -40.065  52.162 -53.379  1.00  0.00     0.033 A 
HETATM   22  C   UNL     1     -40.015  51.193 -54.394  1.00  0.00     0.002 A 
HETATM   23  C   UNL     1     -39.763  49.855 -54.097  1.00  0.00     0.003 A 
HETATM   24  C   UNL     1     -39.560  49.475 -52.776  1.00  0.00     0.044 A 
HETATM   25  C   UNL     1     -39.616  50.443 -51.778  1.00  0.00     0.143 A 
HETATM   26  F   UNL     1     -39.436  50.062 -50.502  1.00  0.00    -0.204 F 
ENDBRANCH  17  20
ENDBRANCH  15  16
ENDBRANCH   1  15
TORSDOF 3
ENDMDL
MODEL 3
REMARK VINA RESULT:      -7.9      2.316      5.930
REMARK  3 active torsions:
REMARK  status: ('A' for Active; 'I' for Inactive)
REMARK    1  A    between atoms: C_3  and  N_4 
REMARK       I    between atoms: N_4  and  C_5 
REMARK    2  A    between atoms: C_5  and  C_6 
REMARK    3  A    between atoms: C_6  and  C_7 
ROOT
HETATM    1  C   UNL     1     -40.764  54.812 -51.528  1.00  0.00     0.286 C 
HETATM    2  N   UNL     1     -40.504  54.154 -52.888  1.00  0.00    -0.056 N 
HETATM    3  H   UNL     1     -41.196  54.516 -53.570  1.00  0.00     0.278 HD
HETATM    4  H   UNL     1     -39.578  54.443 -53.229  1.00  0.00     0.278 HD
HETATM    5  C   UNL     1     -40.612  52.650 -52.897  1.00  0.00     0.209 C 
HETATM    6  C   UNL     1     -39.768  52.064 -51.749  1.00  0.00     0.115 C 
HETATM    7  N   UNL     1     -40.147  52.636 -50.468  1.00  0.00    -0.353 N 
HETATM    8  C   UNL     1     -40.390  53.972 -50.295  1.00  0.00     0.249 C 
HETATM    9  O   UNL     1     -40.349  54.462 -49.171  1.00  0.00    -0.271 OA
HETATM   10  C   UNL     1     -40.154  52.111 -54.247  1.00  0.00     0.035 C 
HETATM   11  C   UNL     1     -40.251  50.585 -54.263  1.00  0.00     0.002 C 
HETATM   12  C   UNL     1     -39.501  49.944 -53.094  1.00  0.00     0.002 C 
HETATM   13  C   UNL     1     -39.901  50.540 -51.743  1.00  0.00     0.027 C 
HETATM   14  H   UNL     1     -39.838  52.172 -49.614  1.00  0.00     0.163 HD
ENDROOT
BRANCH   1  15
HETATM   15  C   UNL     1     -42.178  55.387 -51.403  1.00  0.00     0.146 C 
BRANCH  15  16
HETATM   16  C   UNL     1     -43.203  54.461 -51.979  1.00  0.00     0.224 C 
HETATM   17  N   UNL     1     -43.735  54.539 -53.216  1.00  0.00    -0.325 N 
HETATM   18  H   UNL     1     -44.425  53.799 -53.361  1.00  0.00     0.169 HD
HETATM   19  O   UNL     1     -43.689  53.630 -51.195  1.00  0.00    -0.273 OA
BRANCH  17  20
HETATM   20  C   UNL     1     -43.585  55.360 -54.353  1.00  0.00     0.073 A 
HETATM   21  C   UNL     1     -43.899  56.709 -54.468  1.00  0.00     0.033 A 
HETATM   22  C   UNL     1     -43.707  57.382 -55.685  1.00  0.00     0.002 A 
HETATM   23  C   UNL     1     -43.192  56.719 -56.798  1.00  0.00     0.003 A 
HETATM   24  C   UNL     1     -42.865  55.372 -56.700  1.00  0.00     0.044 A 
HETATM   25  C   UNL     1     -43.064  54.714 -55.491  1.00  0.00     0.143 A 
HETATM   26  F   UNL     1     -42.762  53.407 -55.413  1.00  0.00    -0.204 F 
ENDBRANCH  17  20
ENDBRANCH  15  16
ENDBRANCH   1  15
TORSDOF 3
ENDMDL
MODEL 4
REMARK VINA RESULT:      -7.9      2.055      6.821
REMARK  3 active torsions:
REMARK  status: ('A' for Active; 'I' for Inactive)
REMARK    1  A    between atoms: C_3  and  N_4 
REMARK       I    between atoms: N_4  and  C_5 
REMARK    2  A    between atoms: C_5  and  C_6 
REMARK    3  A    between atoms: C_6  and  C_7 
ROOT
HETATM    1  C   UNL     1     -40.779  54.009 -50.959  1.00  0.00     0.286 C 
HETATM    2  N   UNL     1     -40.431  53.664 -52.412  1.00  0.00    -0.056 N 
HETATM    3  H   UNL     1     -41.102  54.150 -53.039  1.00  0.00     0.278 HD
HETATM    4  H   UNL     1     -39.500  54.040 -52.634  1.00  0.00     0.278 HD
HETATM    5  C   UNL     1     -40.490  52.196 -52.748  1.00  0.00     0.209 C 
HETATM    6  C   UNL     1     -39.684  51.395 -51.708  1.00  0.00     0.115 C 
HETATM    7  N   UNL     1     -40.144  51.670 -50.357  1.00  0.00    -0.353 N 
HETATM    8  C   UNL     1     -40.438  52.932 -49.916  1.00  0.00     0.249 C 
HETATM    9  O   UNL     1     -40.468  53.170 -48.713  1.00  0.00    -0.271 OA
HETATM   10  C   UNL     1     -39.950  51.969 -54.156  1.00  0.00     0.035 C 
HETATM   11  C   UNL     1     -39.996  50.480 -54.502  1.00  0.00     0.002 C 
HETATM   12  C   UNL     1     -39.283  49.619 -53.458  1.00  0.00     0.002 C 
HETATM   13  C   UNL     1     -39.768  49.903 -52.035  1.00  0.00     0.027 C 
HETATM   14  H   UNL     1     -39.861  51.040 -49.606  1.00  0.00     0.163 HD
ENDROOT
BRANCH   1  15
HETATM   15  C   UNL     1     -42.215  54.513 -50.793  1.00  0.00     0.146 C 
BRANCH  15  16
HETATM   16  C   UNL     1     -42.706  55.202 -52.028  1.00  0.00     0.224 C 
HETATM   17  N   UNL     1     -42.639  56.526 -52.276  1.00  0.00    -0.325 N 
HETATM   18  H   UNL     1     -43.057  56.746 -53.182  1.00  0.00     0.169 HD
HETATM   19  O   UNL     1     -43.341  54.497 -52.829  1.00  0.00    -0.273 OA
BRANCH  17  20
HETATM   20  C   UNL     1     -42.141  57.673 -51.625  1.00  0.00     0.073 A 
HETATM   21  C   UNL     1     -40.876  57.851 -51.077  1.00  0.00     0.033 A 
HETATM   22  C   UNL     1     -40.541  59.057 -50.440  1.00  0.00     0.002 A 
HETATM   23  C   UNL     1     -41.461  60.100 -50.350  1.00  0.00     0.003 A 
HETATM   24  C   UNL     1     -42.728  59.943 -50.898  1.00  0.00     0.044 A 
HETATM   25  C   UNL     1     -43.050  58.743 -51.522  1.00  0.00     0.143 A 
HETATM   26  F   UNL     1     -44.285  58.596 -52.032  1.00  0.00    -0.204 F 
ENDBRANCH  17  20
ENDBRANCH  15  16
ENDBRANCH   1  15
TORSDOF 3
ENDMDL
MODEL 5
REMARK VINA RESULT:      -7.8      2.256      2.811
REMARK  3 active torsions:
REMARK  status: ('A' for Active; 'I' for Inactive)
REMARK    1  A    between atoms: C_3  and  N_4 
REMARK       I    between atoms: N_4  and  C_5 
REMARK    2  A    between atoms: C_5  and  C_6 
REMARK    3  A    between atoms: C_6  and  C_7 
ROOT
HETATM    1  C   UNL     1     -43.664  54.499 -53.797  1.00  0.00     0.286 C 
HETATM    2  N   UNL     1     -44.407  55.704 -54.385  1.00  0.00    -0.056 N 
HETATM    3  H   UNL     1     -44.262  55.716 -55.413  1.00  0.00     0.278 HD
HETATM    4  H   UNL     1     -45.417  55.582 -54.235  1.00  0.00     0.278 HD
HETATM    5  C   UNL     1     -43.964  57.044 -53.856  1.00  0.00     0.209 C 
HETATM    6  C   UNL     1     -43.948  57.013 -52.316  1.00  0.00     0.115 C 
HETATM    7  N   UNL     1     -43.125  55.924 -51.818  1.00  0.00    -0.353 N 
HETATM    8  C   UNL     1     -43.154  54.665 -52.356  1.00  0.00     0.249 C 
HETATM    9  O   UNL     1     -42.740  53.710 -51.706  1.00  0.00    -0.271 OA
HETATM   10  C   UNL     1     -44.895  58.134 -54.374  1.00  0.00     0.035 C 
HETATM   11  C   UNL     1     -44.459  59.498 -53.835  1.00  0.00     0.002 C 
HETATM   12  C   UNL     1     -44.341  59.506 -52.309  1.00  0.00     0.002 C 
HETATM   13  C   UNL     1     -43.472  58.365 -51.782  1.00  0.00     0.027 C 
HETATM   14  H   UNL     1     -42.842  55.933 -50.838  1.00  0.00     0.163 HD
ENDROOT
BRANCH   1  15
HETATM   15  C   UNL     1     -42.564  53.968 -54.721  1.00  0.00     0.146 C 
BRANCH  15  16
HETATM   16  C   UNL     1     -41.208  54.434 -54.290  1.00  0.00     0.224 C 
HETATM   17  N   UNL     1     -40.232  53.659 -53.774  1.00  0.00    -0.325 N 
HETATM   18  H   UNL     1     -39.408  54.219 -53.546  1.00  0.00     0.169 HD
HETATM   19  O   UNL     1     -41.025  55.662 -54.298  1.00  0.00    -0.273 OA
BRANCH  17  20
HETATM   20  C   UNL     1     -40.049  52.293 -53.475  1.00  0.00     0.073 A 
HETATM   21  C   UNL     1     -40.174  51.215 -54.344  1.00  0.00     0.033 A 
HETATM   22  C   UNL     1     -39.976  49.904 -53.882  1.00  0.00     0.002 A 
HETATM   23  C   UNL     1     -39.643  49.654 -52.552  1.00  0.00     0.003 A 
HETATM   24  C   UNL     1     -39.507  50.720 -51.671  1.00  0.00     0.044 A 
HETATM   25  C   UNL     1     -39.710  52.014 -52.138  1.00  0.00     0.143 A 
HETATM   26  F   UNL     1     -39.594  53.035 -51.272  1.00  0.00    -0.204 F 
ENDBRANCH  17  20
ENDBRANCH  15  16
ENDBRANCH   1  15
TORSDOF 3
ENDMDL
MODEL 6
REMARK VINA RESULT:      -7.8      1.947      2.484
REMARK  3 active torsions:
REMARK  status: ('A' for Active; 'I' for Inactive)
REMARK    1  A    between atoms: C_3  and  N_4 
REMARK       I    between atoms: N_4  and  C_5 
REMARK    2  A    between atoms: C_5  and  C_6 
REMARK    3  A    between atoms: C_6  and  C_7 
ROOT
HETATM    1  C   UNL     1     -42.896  54.778 -53.550  1.00  0.00     0.286 C 
HETATM    2  N   UNL     1     -42.420  56.159 -54.019  1.00  0.00    -0.056 N 
HETATM    3  H   UNL     1     -42.007  56.064 -54.966  1.00  0.00     0.278 HD
HETATM    4  H   UNL     1     -43.234  56.779 -54.116  1.00  0.00     0.278 HD
HETATM    5  C   UNL     1     -41.380  56.804 -53.140  1.00  0.00     0.209 C 
HETATM    6  C   UNL     1     -41.850  56.772 -51.673  1.00  0.00     0.115 C 
HETATM    7  N   UNL     1     -42.166  55.419 -51.249  1.00  0.00    -0.353 N 
HETATM    8  C   UNL     1     -42.868  54.540 -52.031  1.00  0.00     0.249 C 
HETATM    9  O   UNL     1     -43.418  53.570 -51.522  1.00  0.00    -0.271 OA
HETATM   10  C   UNL     1     -41.130  58.234 -53.606  1.00  0.00     0.035 C 
HETATM   11  C   UNL     1     -40.082  58.902 -52.713  1.00  0.00     0.002 C 
HETATM   12  C   UNL     1     -40.451  58.826 -51.230  1.00  0.00     0.002 C 
HETATM   13  C   UNL     1     -40.780  57.403 -50.779  1.00  0.00     0.027 C 
HETATM   14  H   UNL     1     -42.260  55.227 -50.252  1.00  0.00     0.163 HD
ENDROOT
BRANCH   1  15
HETATM   15  C   UNL     1     -42.226  53.628 -54.308  1.00  0.00     0.146 C 
BRANCH  15  16
HETATM   16  C   UNL     1     -40.738  53.781 -54.343  1.00  0.00     0.224 C 
HETATM   17  N   UNL     1     -39.854  53.104 -53.582  1.00  0.00    -0.325 N 
HETATM   18  H   UNL     1     -38.898  53.403 -53.785  1.00  0.00     0.169 HD
HETATM   19  O   UNL     1     -40.302  54.704 -55.050  1.00  0.00    -0.273 OA
BRANCH  17  20
HETATM   20  C   UNL     1     -39.901  52.099 -52.594  1.00  0.00     0.073 A 
HETATM   21  C   UNL     1     -40.150  52.260 -51.236  1.00  0.00     0.033 A 
HETATM   22  C   UNL     1     -40.142  51.150 -50.376  1.00  0.00     0.002 A 
HETATM   23  C   UNL     1     -39.895  49.867 -50.862  1.00  0.00     0.003 A 
HETATM   24  C   UNL     1     -39.650  49.686 -52.218  1.00  0.00     0.044 A 
HETATM   25  C   UNL     1     -39.655  50.793 -53.060  1.00  0.00     0.143 A 
HETATM   26  F   UNL     1     -39.399  50.608 -54.366  1.00  0.00    -0.204 F 
ENDBRANCH  17  20
ENDBRANCH  15  16
ENDBRANCH   1  15
TORSDOF 3
ENDMDL
MODEL 7
REMARK VINA RESULT:      -7.7      2.348      2.759
REMARK  3 active torsions:
REMARK  status: ('A' for Active; 'I' for Inactive)
REMARK    1  A    between atoms: C_3  and  N_4 
REMARK       I    between atoms: N_4  and  C_5 
REMARK    2  A    between atoms: C_5  and  C_6 
REMARK    3  A    between atoms: C_6  and  C_7 
ROOT
HETATM    1  C   UNL     1     -41.808  56.001 -53.936  1.00  0.00     0.286 C 
HETATM    2  N   UNL     1     -40.804  57.013 -53.371  1.00  0.00    -0.056 N 
HETATM    3  H   UNL     1     -39.946  56.504 -53.083  1.00  0.00     0.278 HD
HETATM    4  H   UNL     1     -40.522  57.660 -54.119  1.00  0.00     0.278 HD
HETATM    5  C   UNL     1     -41.288  57.788 -52.173  1.00  0.00     0.209 C 
HETATM    6  C   UNL     1     -42.676  58.387 -52.471  1.00  0.00     0.115 C 
HETATM    7  N   UNL     1     -43.618  57.360 -52.881  1.00  0.00    -0.353 N 
HETATM    8  C   UNL     1     -43.293  56.361 -53.759  1.00  0.00     0.249 C 
HETATM    9  O   UNL     1     -44.178  55.750 -54.348  1.00  0.00    -0.271 OA
HETATM   10  C   UNL     1     -40.281  58.878 -51.825  1.00  0.00     0.035 C 
HETATM   11  C   UNL     1     -40.769  59.677 -50.616  1.00  0.00     0.002 C 
HETATM   12  C   UNL     1     -42.181  60.229 -50.817  1.00  0.00     0.002 C 
HETATM   13  C   UNL     1     -43.177  59.150 -51.243  1.00  0.00     0.027 C 
HETATM   14  H   UNL     1     -44.614  57.581 -52.878  1.00  0.00     0.163 HD
ENDROOT
BRANCH   1  15
HETATM   15  C   UNL     1     -41.525  54.565 -53.487  1.00  0.00     0.146 C 
BRANCH  15  16
HETATM   16  C   UNL     1     -40.578  53.871 -54.416  1.00  0.00     0.224 C 
HETATM   17  N   UNL     1     -39.923  52.720 -54.164  1.00  0.00    -0.325 N 
HETATM   18  H   UNL     1     -39.324  52.464 -54.952  1.00  0.00     0.169 HD
HETATM   19  O   UNL     1     -40.284  54.487 -55.453  1.00  0.00    -0.273 OA
BRANCH  17  20
HETATM   20  C   UNL     1     -39.852  51.782 -53.113  1.00  0.00     0.073 A 
HETATM   21  C   UNL     1     -39.901  52.038 -51.748  1.00  0.00     0.033 A 
HETATM   22  C   UNL     1     -39.797  50.987 -50.824  1.00  0.00     0.002 A 
HETATM   23  C   UNL     1     -39.653  49.668 -51.251  1.00  0.00     0.003 A 
HETATM   24  C   UNL     1     -39.609  49.391 -52.611  1.00  0.00     0.044 A 
HETATM   25  C   UNL     1     -39.708  50.441 -53.518  1.00  0.00     0.143 A 
HETATM   26  F   UNL     1     -39.646  50.164 -54.832  1.00  0.00    -0.204 F 
ENDBRANCH  17  20
ENDBRANCH  15  16
ENDBRANCH   1  15
TORSDOF 3
ENDMDL
MODEL 8
REMARK VINA RESULT:      -7.6      3.114      3.569
REMARK  3 active torsions:
REMARK  status: ('A' for Active; 'I' for Inactive)
REMARK    1  A    between atoms: C_3  and  N_4 
REMARK       I    between atoms: N_4  and  C_5 
REMARK    2  A    between atoms: C_5  and  C_6 
REMARK    3  A    between atoms: C_6  and  C_7 
ROOT
HETATM    1  C   UNL     1     -43.655  55.058 -53.711  1.00  0.00     0.286 C 
HETATM    2  N   UNL     1     -43.589  54.748 -55.211  1.00  0.00    -0.056 N 
HETATM    3  H   UNL     1     -43.016  53.893 -55.348  1.00  0.00     0.278 HD
HETATM    4  H   UNL     1     -44.534  54.523 -55.549  1.00  0.00     0.278 HD
HETATM    5  C   UNL     1     -42.980  55.835 -56.059  1.00  0.00     0.209 C 
HETATM    6  C   UNL     1     -43.651  57.182 -55.731  1.00  0.00     0.115 C 
HETATM    7  N   UNL     1     -43.570  57.481 -54.311  1.00  0.00    -0.353 N 
HETATM    8  C   UNL     1     -43.804  56.544 -53.341  1.00  0.00     0.249 C 
HETATM    9  O   UNL     1     -44.080  56.898 -52.200  1.00  0.00    -0.271 OA
HETATM   10  C   UNL     1     -43.141  55.485 -57.534  1.00  0.00     0.035 C 
HETATM   11  C   UNL     1     -42.535  56.588 -58.404  1.00  0.00     0.002 C 
HETATM   12  C   UNL     1     -43.100  57.969 -58.066  1.00  0.00     0.002 C 
HETATM   13  C   UNL     1     -43.012  58.289 -56.573  1.00  0.00     0.027 C 
HETATM   14  H   UNL     1     -43.760  58.434 -54.000  1.00  0.00     0.163 HD
ENDROOT
BRANCH   1  15
HETATM   15  C   UNL     1     -42.528  54.395 -52.914  1.00  0.00     0.146 C 
BRANCH  15  16
HETATM   16  C   UNL     1     -41.190  54.643 -53.536  1.00  0.00     0.224 C 
HETATM   17  N   UNL     1     -40.234  53.717 -53.753  1.00  0.00    -0.325 N 
HETATM   18  H   UNL     1     -39.406  54.143 -54.176  1.00  0.00     0.169 HD
HETATM   19  O   UNL     1     -40.901  55.831 -53.751  1.00  0.00    -0.273 OA
BRANCH  17  20
HETATM   20  C   UNL     1     -40.079  52.329 -53.558  1.00  0.00     0.073 A 
HETATM   21  C   UNL     1     -40.298  51.317 -54.485  1.00  0.00     0.033 A 
HETATM   22  C   UNL     1     -40.116  49.972 -54.125  1.00  0.00     0.002 A 
HETATM   23  C   UNL     1     -39.706  49.623 -52.839  1.00  0.00     0.003 A 
HETATM   24  C   UNL     1     -39.475  50.621 -51.901  1.00  0.00     0.044 A 
HETATM   25  C   UNL     1     -39.663  51.950 -52.268  1.00  0.00     0.143 A 
HETATM   26  F   UNL     1     -39.455  52.906 -51.347  1.00  0.00    -0.204 F 
ENDBRANCH  17  20
ENDBRANCH  15  16
ENDBRANCH   1  15
TORSDOF 3
ENDMDL
MODEL 9
REMARK VINA RESULT:      -7.6      2.479      3.984
REMARK  3 active torsions:
REMARK  status: ('A' for Active; 'I' for Inactive)
REMARK    1  A    between atoms: C_3  and  N_4 
REMARK       I    between atoms: N_4  and  C_5 
REMARK    2  A    between atoms: C_5  and  C_6 
REMARK    3  A    between atoms: C_6  and  C_7 
ROOT
HETATM    1  C   UNL     1     -41.482  57.414 -52.619  1.00  0.00     0.286 C 
HETATM    2  N   UNL     1     -42.802  57.258 -51.853  1.00  0.00    -0.056 N 
HETATM    3  H   UNL     1     -43.300  56.423 -52.217  1.00  0.00     0.278 HD
HETATM    4  H   UNL     1     -42.595  57.068 -50.864  1.00  0.00     0.278 HD
HETATM    5  C   UNL     1     -43.746  58.428 -51.969  1.00  0.00     0.209 C 
HETATM    6  C   UNL     1     -42.992  59.734 -51.653  1.00  0.00     0.115 C 
HETATM    7  N   UNL     1     -41.820  59.886 -52.498  1.00  0.00    -0.353 N 
HETATM    8  C   UNL     1     -40.963  58.854 -52.772  1.00  0.00     0.249 C 
HETATM    9  O   UNL     1     -39.827  59.089 -53.171  1.00  0.00    -0.271 OA
HETATM   10  C   UNL     1     -44.925  58.230 -51.023  1.00  0.00     0.035 C 
HETATM   11  C   UNL     1     -45.884  59.417 -51.126  1.00  0.00     0.002 C 
HETATM   12  C   UNL     1     -45.177  60.756 -50.906  1.00  0.00     0.002 C 
HETATM   13  C   UNL     1     -43.946  60.922 -51.798  1.00  0.00     0.027 C 
HETATM   14  H   UNL     1     -41.374  60.801 -52.557  1.00  0.00     0.163 HD
ENDROOT
BRANCH   1  15
HETATM   15  C   UNL     1     -41.480  56.675 -53.960  1.00  0.00     0.146 C 
BRANCH  15  16
HETATM   16  C   UNL     1     -42.584  55.667 -54.038  1.00  0.00     0.224 C 
HETATM   17  N   UNL     1     -42.466  54.344 -53.799  1.00  0.00    -0.325 N 
HETATM   18  H   UNL     1     -43.362  53.871 -53.935  1.00  0.00     0.169 HD
HETATM   19  O   UNL     1     -43.667  56.078 -54.484  1.00  0.00    -0.273 OA
BRANCH  17  20
HETATM   20  C   UNL     1     -41.445  53.454 -53.409  1.00  0.00     0.073 A 
HETATM   21  C   UNL     1     -40.713  52.599 -54.225  1.00  0.00     0.033 A 
HETATM   22  C   UNL     1     -39.736  51.754 -53.674  1.00  0.00     0.002 A 
HETATM   23  C   UNL     1     -39.474  51.758 -52.305  1.00  0.00     0.003 A 
HETATM   24  C   UNL     1     -40.191  52.610 -51.475  1.00  0.00     0.044 A 
HETATM   25  C   UNL     1     -41.160  53.439 -52.031  1.00  0.00     0.143 A 
HETATM   26  F   UNL     1     -41.860  54.246 -51.215  1.00  0.00    -0.204 F 
ENDBRANCH  17  20
ENDBRANCH  15  16
ENDBRANCH   1  15
TORSDOF 3
ENDMDL
MODEL 10
REMARK VINA RESULT:      -7.5      1.596      2.124
REMARK  3 active torsions:
REMARK  status: ('A' for Active; 'I' for Inactive)
REMARK    1  A    between atoms: C_3  and  N_4 
REMARK       I    between atoms: N_4  and  C_5 
REMARK    2  A    between atoms: C_5  and  C_6 
REMARK    3  A    between atoms: C_6  and  C_7 
ROOT
HETATM    1  C   UNL     1     -42.916  54.998 -51.221  1.00  0.00     0.286 C 
HETATM    2  N   UNL     1     -43.496  56.346 -51.668  1.00  0.00    -0.056 N 
HETATM    3  H   UNL     1     -43.877  56.242 -52.628  1.00  0.00     0.278 HD
HETATM    4  H   UNL     1     -44.292  56.586 -51.063  1.00  0.00     0.278 HD
HETATM    5  C   UNL     1     -42.508  57.483 -51.699  1.00  0.00     0.209 C 
HETATM    6  C   UNL     1     -41.748  57.545 -50.361  1.00  0.00     0.115 C 
HETATM    7  N   UNL     1     -41.115  56.274 -50.053  1.00  0.00    -0.353 N 
HETATM    8  C   UNL     1     -41.742  55.070 -50.230  1.00  0.00     0.249 C 
HETATM    9  O   UNL     1     -41.337  54.074 -49.640  1.00  0.00    -0.271 OA
HETATM   10  C   UNL     1     -43.241  58.792 -51.977  1.00  0.00     0.035 C 
HETATM   11  C   UNL     1     -42.247  59.954 -52.001  1.00  0.00     0.002 C 
HETATM   12  C   UNL     1     -41.399  60.018 -50.729  1.00  0.00     0.002 C 
HETATM   13  C   UNL     1     -40.727  58.683 -50.405  1.00  0.00     0.027 C 
HETATM   14  H   UNL     1     -40.397  56.247 -49.329  1.00  0.00     0.163 HD
ENDROOT
BRANCH   1  15
HETATM   15  C   UNL     1     -42.601  54.066 -52.394  1.00  0.00     0.146 C 
BRANCH  15  16
HETATM   16  C   UNL     1     -41.242  54.333 -52.963  1.00  0.00     0.224 C 
HETATM   17  N   UNL     1     -40.220  53.455 -53.017  1.00  0.00    -0.325 N 
HETATM   18  H   UNL     1     -39.394  53.886 -53.437  1.00  0.00     0.169 HD
HETATM   19  O   UNL     1     -41.012  55.507 -53.296  1.00  0.00    -0.273 OA
BRANCH  17  20
HETATM   20  C   UNL     1     -39.995  52.111 -52.655  1.00  0.00     0.073 A 
HETATM   21  C   UNL     1     -39.780  51.604 -51.379  1.00  0.00     0.033 A 
HETATM   22  C   UNL     1     -39.550  50.232 -51.189  1.00  0.00     0.002 A 
HETATM   23  C   UNL     1     -39.541  49.350 -52.267  1.00  0.00     0.003 A 
HETATM   24  C   UNL     1     -39.760  49.837 -53.550  1.00  0.00     0.044 A 
HETATM   25  C   UNL     1     -39.982  51.199 -53.727  1.00  0.00     0.143 A 
HETATM   26  F   UNL     1     -40.176  51.661 -54.974  1.00  0.00    -0.204 F 
ENDBRANCH  17  20
ENDBRANCH  15  16
ENDBRANCH   1  15
TORSDOF 3
ENDMDL
