MODEL 1
REMARK VINA RESULT:      -7.9      0.000      0.000
REMARK  6 active torsions:
REMARK  status: ('A' for Active; 'I' for Inactive)
REMARK    1  A    between atoms: N_2  and  C_4 
REMARK    2  A    between atoms: C_4  and  C_5 
REMARK    3  A    between atoms: C_5  and  N_6 
REMARK    4  A    between atoms: C_5  and  C_21 
REMARK       I    between atoms: N_6  and  C_7 
REMARK       I    between atoms: C_7  and  N_8 
REMARK    5  A    between atoms: N_8  and  C_9 
REMARK    6  A    between atoms: C_12  and  C_13 
ROOT
HETATM    1  N   UNL     1     -41.901  54.265 -52.343  1.00  0.00    -0.333 N 
HETATM    2  C   UNL     1     -43.235  54.394 -52.110  1.00  0.00     0.322 C 
HETATM    3  N   UNL     1     -43.923  55.299 -52.849  1.00  0.00    -0.287 N 
HETATM    4  O   UNL     1     -43.835  53.657 -51.330  1.00  0.00    -0.247 OA
HETATM    5  H   UNL     1     -41.486  55.053 -52.839  1.00  0.00     0.165 HD
HETATM    6  H   UNL     1     -44.917  55.363 -52.677  1.00  0.00     0.172 HD
ENDROOT
BRANCH   1   7
HETATM    7  C   UNL     1     -40.994  53.425 -51.573  1.00  0.00     0.145 C 
BRANCH   7   8
HETATM    8  C   UNL     1     -39.845  54.154 -50.809  1.00  0.00     0.263 C 
BRANCH   8   9
HETATM    9  N   UNL     1     -40.194  54.661 -49.407  1.00  0.00    -0.076 N 
HETATM   10  C   UNL     1     -40.524  53.581 -48.421  1.00  0.00     0.269 C 
HETATM   11  H   UNL     1     -39.320  55.089 -49.075  1.00  0.00     0.279 HD
HETATM   12  C   UNL     1     -41.195  55.778 -49.382  1.00  0.00     0.269 C 
ENDBRANCH   8   9
ENDBRANCH   7   8
BRANCH   7  13
HETATM   13  C   UNL     1     -40.459  52.262 -52.396  1.00  0.00    -0.034 A 
HETATM   14  C   UNL     1     -40.594  52.277 -53.796  1.00  0.00     0.009 A 
HETATM   15  C   UNL     1     -40.154  51.200 -54.568  1.00  0.00     0.001 A 
HETATM   16  C   UNL     1     -39.565  50.097 -53.956  1.00  0.00     0.000 A 
HETATM   17  C   UNL     1     -39.409  50.072 -52.573  1.00  0.00     0.001 A 
HETATM   18  C   UNL     1     -39.851  51.147 -51.798  1.00  0.00     0.009 A 
ENDBRANCH   7  13
ENDBRANCH   1   7
BRANCH   3  19
HETATM   19  C   UNL     1     -43.411  56.067 -53.855  1.00  0.00     0.175 A 
HETATM   20  S   UNL     1     -42.780  57.567 -53.358  1.00  0.00    -0.061 SA
HETATM   21  C   UNL     1     -42.464  57.949 -55.003  1.00  0.00     0.086 A 
HETATM   22  C   UNL     1     -42.842  56.888 -55.805  1.00  0.00     0.078 A 
HETATM   23  N   UNL     1     -43.383  55.799 -55.138  1.00  0.00    -0.223 NA
BRANCH  22  24
HETATM   24  C   UNL     1     -42.679  56.886 -57.243  1.00  0.00     0.011 A 
HETATM   25  C   UNL     1     -42.106  57.961 -57.915  1.00  0.00     0.130 A 
HETATM   26  N   UNL     1     -41.929  58.009 -59.256  1.00  0.00    -0.272 NA
HETATM   27  C   UNL     1     -42.329  56.928 -59.961  1.00  0.00     0.116 A 
HETATM   28  C   UNL     1     -42.913  55.811 -59.387  1.00  0.00     0.020 A 
HETATM   29  C   UNL     1     -43.099  55.795 -58.006  1.00  0.00     0.017 A 
ENDBRANCH  22  24
ENDBRANCH   3  19
TORSDOF 6
ENDMDL
MODEL 2
REMARK VINA RESULT:      -7.9      2.674      6.666
REMARK  6 active torsions:
REMARK  status: ('A' for Active; 'I' for Inactive)
REMARK    1  A    between atoms: N_2  and  C_4 
REMARK    2  A    between atoms: C_4  and  C_5 
REMARK    3  A    between atoms: C_5  and  N_6 
REMARK    4  A    between atoms: C_5  and  C_21 
REMARK       I    between atoms: N_6  and  C_7 
REMARK       I    between atoms: C_7  and  N_8 
REMARK    5  A    between atoms: N_8  and  C_9 
REMARK    6  A    between atoms: C_12  and  C_13 
ROOT
HETATM    1  N   UNL     1     -42.488  56.917 -52.208  1.00  0.00    -0.333 N 
HETATM    2  C   UNL     1     -42.055  57.549 -51.085  1.00  0.00     0.322 C 
HETATM    3  N   UNL     1     -41.405  56.810 -50.151  1.00  0.00    -0.287 N 
HETATM    4  O   UNL     1     -42.152  58.766 -50.942  1.00  0.00    -0.247 OA
HETATM    5  H   UNL     1     -42.545  55.903 -52.121  1.00  0.00     0.165 HD
HETATM    6  H   UNL     1     -41.071  57.303 -49.334  1.00  0.00     0.172 HD
ENDROOT
BRANCH   1   7
HETATM    7  C   UNL     1     -43.292  57.530 -53.257  1.00  0.00     0.145 C 
BRANCH   7   8
HETATM    8  C   UNL     1     -44.780  57.844 -52.904  1.00  0.00     0.263 C 
BRANCH   8   9
HETATM    9  N   UNL     1     -45.028  59.170 -52.181  1.00  0.00    -0.076 N 
HETATM   10  C   UNL     1     -45.712  59.036 -50.855  1.00  0.00     0.269 C 
HETATM   11  H   UNL     1     -44.083  59.520 -51.977  1.00  0.00     0.279 HD
HETATM   12  C   UNL     1     -45.650  60.237 -53.035  1.00  0.00     0.269 C 
ENDBRANCH   8   9
ENDBRANCH   7   8
BRANCH   7  13
HETATM   13  C   UNL     1     -43.185  56.773 -54.572  1.00  0.00    -0.034 A 
HETATM   14  C   UNL     1     -43.011  55.377 -54.561  1.00  0.00     0.009 A 
HETATM   15  C   UNL     1     -42.862  54.667 -55.755  1.00  0.00     0.001 A 
HETATM   16  C   UNL     1     -42.892  55.337 -56.975  1.00  0.00     0.000 A 
HETATM   17  C   UNL     1     -43.079  56.716 -57.004  1.00  0.00     0.001 A 
HETATM   18  C   UNL     1     -43.225  57.429 -55.812  1.00  0.00     0.009 A 
ENDBRANCH   7  13
ENDBRANCH   1   7
BRANCH   3  19
HETATM   19  C   UNL     1     -41.092  55.485 -50.255  1.00  0.00     0.175 A 
HETATM   20  S   UNL     1     -40.891  54.680 -48.770  1.00  0.00    -0.061 SA
HETATM   21  C   UNL     1     -40.458  53.257 -49.630  1.00  0.00     0.086 A 
HETATM   22  C   UNL     1     -40.525  53.500 -50.989  1.00  0.00     0.078 A 
HETATM   23  N   UNL     1     -40.899  54.787 -51.348  1.00  0.00    -0.223 NA
BRANCH  22  24
HETATM   24  C   UNL     1     -40.245  52.491 -51.988  1.00  0.00     0.011 A 
HETATM   25  C   UNL     1     -39.684  51.264 -51.649  1.00  0.00     0.130 A 
HETATM   26  N   UNL     1     -39.404  50.286 -52.543  1.00  0.00    -0.272 NA
HETATM   27  C   UNL     1     -39.711  50.537 -53.834  1.00  0.00     0.116 A 
HETATM   28  C   UNL     1     -40.267  51.728 -54.273  1.00  0.00     0.020 A 
HETATM   29  C   UNL     1     -40.530  52.723 -53.335  1.00  0.00     0.017 A 
ENDBRANCH  22  24
ENDBRANCH   3  19
TORSDOF 6
ENDMDL
MODEL 3
REMARK VINA RESULT:      -7.6      2.552      7.377
REMARK  6 active torsions:
REMARK  status: ('A' for Active; 'I' for Inactive)
REMARK    1  A    between atoms: N_2  and  C_4 
REMARK    2  A    between atoms: C_4  and  C_5 
REMARK    3  A    between atoms: C_5  and  N_6 
REMARK    4  A    between atoms: C_5  and  C_21 
REMARK       I    between atoms: N_6  and  C_7 
REMARK       I    between atoms: C_7  and  N_8 
REMARK    5  A    between atoms: N_8  and  C_9 
REMARK    6  A    between atoms: C_12  and  C_13 
ROOT
HETATM    1  N   UNL     1     -42.606  57.696 -55.069  1.00  0.00    -0.333 N 
HETATM    2  C   UNL     1     -41.708  58.458 -54.390  1.00  0.00     0.322 C 
HETATM    3  N   UNL     1     -41.082  57.901 -53.322  1.00  0.00    -0.287 N 
HETATM    4  O   UNL     1     -41.385  59.581 -54.769  1.00  0.00    -0.247 OA
HETATM    5  H   UNL     1     -42.943  56.885 -54.550  1.00  0.00     0.165 HD
HETATM    6  H   UNL     1     -40.401  58.475 -52.845  1.00  0.00     0.172 HD
ENDROOT
BRANCH   1   7
HETATM    7  C   UNL     1     -43.442  58.165 -56.165  1.00  0.00     0.145 C 
BRANCH   7   8
HETATM    8  C   UNL     1     -44.985  58.026 -55.976  1.00  0.00     0.263 C 
BRANCH   8   9
HETATM    9  N   UNL     1     -45.717  59.290 -55.514  1.00  0.00    -0.076 N 
HETATM   10  C   UNL     1     -45.761  60.389 -56.532  1.00  0.00     0.269 C 
HETATM   11  H   UNL     1     -46.689  58.981 -55.390  1.00  0.00     0.279 HD
HETATM   12  C   UNL     1     -45.302  59.787 -54.160  1.00  0.00     0.269 C 
ENDBRANCH   8   9
ENDBRANCH   7   8
BRANCH   7  13
HETATM   13  C   UNL     1     -42.997  57.597 -57.504  1.00  0.00    -0.034 A 
HETATM   14  C   UNL     1     -42.235  58.390 -58.380  1.00  0.00     0.009 A 
HETATM   15  C   UNL     1     -41.856  57.908 -59.635  1.00  0.00     0.001 A 
HETATM   16  C   UNL     1     -42.224  56.624 -60.029  1.00  0.00     0.000 A 
HETATM   17  C   UNL     1     -42.964  55.819 -59.168  1.00  0.00     0.001 A 
HETATM   18  C   UNL     1     -43.348  56.301 -57.914  1.00  0.00     0.009 A 
ENDBRANCH   7  13
ENDBRANCH   1   7
BRANCH   3  19
HETATM   19  C   UNL     1     -41.229  56.614 -52.890  1.00  0.00     0.175 A 
HETATM   20  S   UNL     1     -42.236  56.429 -51.530  1.00  0.00    -0.061 SA
HETATM   21  C   UNL     1     -41.877  54.749 -51.526  1.00  0.00     0.086 A 
HETATM   22  C   UNL     1     -41.034  54.454 -52.582  1.00  0.00     0.078 A 
HETATM   23  N   UNL     1     -40.667  55.533 -53.372  1.00  0.00    -0.223 NA
BRANCH  22  24
HETATM   24  C   UNL     1     -40.566  53.115 -52.871  1.00  0.00     0.011 A 
HETATM   25  C   UNL     1     -39.907  52.349 -51.915  1.00  0.00     0.130 A 
HETATM   26  N   UNL     1     -39.452  51.092 -52.132  1.00  0.00    -0.272 NA
HETATM   27  C   UNL     1     -39.678  50.568 -53.356  1.00  0.00     0.116 A 
HETATM   28  C   UNL     1     -40.321  51.250 -54.377  1.00  0.00     0.020 A 
HETATM   29  C   UNL     1     -40.764  52.548 -54.131  1.00  0.00     0.017 A 
ENDBRANCH  22  24
ENDBRANCH   3  19
TORSDOF 6
ENDMDL
MODEL 4
REMARK VINA RESULT:      -7.4      2.280      7.915
REMARK  6 active torsions:
REMARK  status: ('A' for Active; 'I' for Inactive)
REMARK    1  A    between atoms: N_2  and  C_4 
REMARK    2  A    between atoms: C_4  and  C_5 
REMARK    3  A    between atoms: C_5  and  N_6 
REMARK    4  A    between atoms: C_5  and  C_21 
REMARK       I    between atoms: N_6  and  C_7 
REMARK       I    between atoms: C_7  and  N_8 
REMARK    5  A    between atoms: N_8  and  C_9 
REMARK    6  A    between atoms: C_12  and  C_13 
ROOT
HETATM    1  N   UNL     1     -43.796  56.975 -55.945  1.00  0.00    -0.333 N 
HETATM    2  C   UNL     1     -44.802  57.105 -55.039  1.00  0.00     0.322 C 
HETATM    3  N   UNL     1     -44.596  56.620 -53.789  1.00  0.00    -0.287 N 
HETATM    4  O   UNL     1     -45.833  57.724 -55.293  1.00  0.00    -0.247 OA
HETATM    5  H   UNL     1     -43.098  56.274 -55.697  1.00  0.00     0.165 HD
HETATM    6  H   UNL     1     -45.346  56.747 -53.124  1.00  0.00     0.172 HD
ENDROOT
BRANCH   1   7
HETATM    7  C   UNL     1     -43.885  57.339 -57.352  1.00  0.00     0.145 C 
BRANCH   7   8
HETATM    8  C   UNL     1     -43.582  56.211 -58.388  1.00  0.00     0.263 C 
BRANCH   8   9
HETATM    9  N   UNL     1     -44.803  55.595 -59.077  1.00  0.00    -0.076 N 
HETATM   10  C   UNL     1     -44.517  54.331 -59.831  1.00  0.00     0.269 C 
HETATM   11  H   UNL     1     -45.416  55.326 -58.298  1.00  0.00     0.279 HD
HETATM   12  C   UNL     1     -45.617  56.565 -59.883  1.00  0.00     0.269 C 
ENDBRANCH   8   9
ENDBRANCH   7   8
BRANCH   7  13
HETATM   13  C   UNL     1     -43.093  58.601 -57.664  1.00  0.00    -0.034 A 
HETATM   14  C   UNL     1     -42.784  58.918 -58.999  1.00  0.00     0.009 A 
HETATM   15  C   UNL     1     -42.017  60.044 -59.307  1.00  0.00     0.001 A 
HETATM   16  C   UNL     1     -41.556  60.874 -58.289  1.00  0.00     0.000 A 
HETATM   17  C   UNL     1     -41.867  60.585 -56.964  1.00  0.00     0.001 A 
HETATM   18  C   UNL     1     -42.631  59.456 -56.653  1.00  0.00     0.009 A 
ENDBRANCH   7  13
ENDBRANCH   1   7
BRANCH   3  19
HETATM   19  C   UNL     1     -43.442  56.053 -53.330  1.00  0.00     0.175 A 
HETATM   20  S   UNL     1     -42.470  57.079 -52.382  1.00  0.00    -0.061 SA
HETATM   21  C   UNL     1     -41.293  55.831 -52.285  1.00  0.00     0.086 A 
HETATM   22  C   UNL     1     -41.745  54.716 -52.966  1.00  0.00     0.078 A 
HETATM   23  N   UNL     1     -42.990  54.845 -53.563  1.00  0.00    -0.223 NA
BRANCH  22  24
HETATM   24  C   UNL     1     -40.994  53.481 -53.049  1.00  0.00     0.011 A 
HETATM   25  C   UNL     1     -40.320  52.961 -51.949  1.00  0.00     0.130 A 
HETATM   26  N   UNL     1     -39.605  51.811 -51.972  1.00  0.00    -0.272 NA
HETATM   27  C   UNL     1     -39.572  51.140 -53.143  1.00  0.00     0.116 A 
HETATM   28  C   UNL     1     -40.206  51.576 -54.296  1.00  0.00     0.020 A 
HETATM   29  C   UNL     1     -40.921  52.771 -54.248  1.00  0.00     0.017 A 
ENDBRANCH  22  24
ENDBRANCH   3  19
TORSDOF 6
ENDMDL
MODEL 5
REMARK VINA RESULT:      -7.4      2.205      7.632
REMARK  6 active torsions:
REMARK  status: ('A' for Active; 'I' for Inactive)
REMARK    1  A    between atoms: N_2  and  C_4 
REMARK    2  A    between atoms: C_4  and  C_5 
REMARK    3  A    between atoms: C_5  and  N_6 
REMARK    4  A    between atoms: C_5  and  C_21 
REMARK       I    between atoms: N_6  and  C_7 
REMARK       I    between atoms: C_7  and  N_8 
REMARK    5  A    between atoms: N_8  and  C_9 
REMARK    6  A    between atoms: C_12  and  C_13 
ROOT
HETATM    1  N   UNL     1     -43.246  57.080 -55.955  1.00  0.00    -0.333 N 
HETATM    2  C   UNL     1     -44.403  57.183 -55.248  1.00  0.00     0.322 C 
HETATM    3  N   UNL     1     -44.456  56.591 -54.029  1.00  0.00    -0.287 N 
HETATM    4  O   UNL     1     -45.348  57.866 -55.637  1.00  0.00    -0.247 OA
HETATM    5  H   UNL     1     -42.629  56.331 -55.641  1.00  0.00     0.165 HD
HETATM    6  H   UNL     1     -45.316  56.698 -53.509  1.00  0.00     0.172 HD
ENDROOT
BRANCH   1   7
HETATM    7  C   UNL     1     -43.052  57.559 -57.317  1.00  0.00     0.145 C 
BRANCH   7   8
HETATM    8  C   UNL     1     -43.202  59.096 -57.546  1.00  0.00     0.263 C 
BRANCH   8   9
HETATM    9  N   UNL     1     -42.033  59.780 -58.260  1.00  0.00    -0.076 N 
HETATM   10  C   UNL     1     -41.667  61.123 -57.704  1.00  0.00     0.269 C 
HETATM   11  H   UNL     1     -41.233  59.166 -58.066  1.00  0.00     0.279 HD
HETATM   12  C   UNL     1     -42.144  59.797 -59.757  1.00  0.00     0.269 C 
ENDBRANCH   8   9
ENDBRANCH   7   8
BRANCH   7  13
HETATM   13  C   UNL     1     -43.878  56.769 -58.321  1.00  0.00    -0.034 A 
HETATM   14  C   UNL     1     -43.517  55.446 -58.634  1.00  0.00     0.009 A 
HETATM   15  C   UNL     1     -44.230  54.717 -59.588  1.00  0.00     0.001 A 
HETATM   16  C   UNL     1     -45.318  55.294 -60.238  1.00  0.00     0.000 A 
HETATM   17  C   UNL     1     -45.699  56.597 -59.928  1.00  0.00     0.001 A 
HETATM   18  C   UNL     1     -44.985  57.329 -58.977  1.00  0.00     0.009 A 
ENDBRANCH   7  13
ENDBRANCH   1   7
BRANCH   3  19
HETATM   19  C   UNL     1     -43.428  55.938 -53.411  1.00  0.00     0.175 A 
HETATM   20  S   UNL     1     -42.751  56.764 -52.086  1.00  0.00    -0.061 SA
HETATM   21  C   UNL     1     -41.590  55.508 -51.929  1.00  0.00     0.086 A 
HETATM   22  C   UNL     1     -41.825  54.539 -52.888  1.00  0.00     0.078 A 
HETATM   23  N   UNL     1     -42.892  54.788 -53.738  1.00  0.00    -0.223 NA
BRANCH  22  24
HETATM   24  C   UNL     1     -41.034  53.333 -53.004  1.00  0.00     0.011 A 
HETATM   25  C   UNL     1     -40.248  52.871 -51.953  1.00  0.00     0.130 A 
HETATM   26  N   UNL     1     -39.492  51.749 -52.008  1.00  0.00    -0.272 NA
HETATM   27  C   UNL     1     -39.532  51.046 -53.161  1.00  0.00     0.116 A 
HETATM   28  C   UNL     1     -40.279  51.424 -54.265  1.00  0.00     0.020 A 
HETATM   29  C   UNL     1     -41.035  52.591 -54.186  1.00  0.00     0.017 A 
ENDBRANCH  22  24
ENDBRANCH   3  19
TORSDOF 6
ENDMDL
MODEL 6
REMARK VINA RESULT:      -7.3      2.481      3.107
REMARK  6 active torsions:
REMARK  status: ('A' for Active; 'I' for Inactive)
REMARK    1  A    between atoms: N_2  and  C_4 
REMARK    2  A    between atoms: C_4  and  C_5 
REMARK    3  A    between atoms: C_5  and  N_6 
REMARK    4  A    between atoms: C_5  and  C_21 
REMARK       I    between atoms: N_6  and  C_7 
REMARK       I    between atoms: C_7  and  N_8 
REMARK    5  A    between atoms: N_8  and  C_9 
REMARK    6  A    between atoms: C_12  and  C_13 
ROOT
HETATM    1  N   UNL     1     -43.138  56.789 -52.595  1.00  0.00    -0.333 N 
HETATM    2  C   UNL     1     -44.282  57.278 -52.048  1.00  0.00     0.322 C 
HETATM    3  N   UNL     1     -45.088  58.034 -52.835  1.00  0.00    -0.287 N 
HETATM    4  O   UNL     1     -44.642  56.979 -50.912  1.00  0.00    -0.247 OA
HETATM    5  H   UNL     1     -42.844  57.267 -53.447  1.00  0.00     0.165 HD
HETATM    6  H   UNL     1     -45.945  58.369 -52.417  1.00  0.00     0.172 HD
ENDROOT
BRANCH   1   7
HETATM    7  C   UNL     1     -42.110  56.054 -51.870  1.00  0.00     0.145 C 
BRANCH   7   8
HETATM    8  C   UNL     1     -41.092  56.904 -51.047  1.00  0.00     0.263 C 
BRANCH   8   9
HETATM    9  N   UNL     1     -41.055  58.400 -51.374  1.00  0.00    -0.076 N 
HETATM   10  C   UNL     1     -40.178  58.760 -52.534  1.00  0.00     0.269 C 
HETATM   11  H   UNL     1     -42.017  58.611 -51.670  1.00  0.00     0.279 HD
HETATM   12  C   UNL     1     -40.821  59.289 -50.188  1.00  0.00     0.269 C 
ENDBRANCH   8   9
ENDBRANCH   7   8
BRANCH   7  13
HETATM   13  C   UNL     1     -41.396  55.047 -52.758  1.00  0.00    -0.034 A 
HETATM   14  C   UNL     1     -41.025  55.409 -54.066  1.00  0.00     0.009 A 
HETATM   15  C   UNL     1     -40.412  54.486 -54.916  1.00  0.00     0.001 A 
HETATM   16  C   UNL     1     -40.153  53.192 -54.472  1.00  0.00     0.000 A 
HETATM   17  C   UNL     1     -40.498  52.822 -53.176  1.00  0.00     0.001 A 
HETATM   18  C   UNL     1     -41.115  53.742 -52.324  1.00  0.00     0.009 A 
ENDBRANCH   7  13
ENDBRANCH   1   7
BRANCH   3  19
HETATM   19  C   UNL     1     -44.886  58.310 -54.156  1.00  0.00     0.175 A 
HETATM   20  S   UNL     1     -45.081  59.947 -54.582  1.00  0.00    -0.061 SA
HETATM   21  C   UNL     1     -44.805  59.526 -56.224  1.00  0.00     0.086 A 
HETATM   22  C   UNL     1     -44.559  58.168 -56.318  1.00  0.00     0.078 A 
HETATM   23  N   UNL     1     -44.600  57.470 -55.120  1.00  0.00    -0.223 NA
BRANCH  22  24
HETATM   24  C   UNL     1     -44.261  57.503 -57.568  1.00  0.00     0.011 A 
HETATM   25  C   UNL     1     -44.946  57.808 -58.740  1.00  0.00     0.130 A 
HETATM   26  N   UNL     1     -44.705  57.218 -59.934  1.00  0.00    -0.272 NA
HETATM   27  C   UNL     1     -43.725  56.289 -59.967  1.00  0.00     0.116 A 
HETATM   28  C   UNL     1     -42.989  55.912 -58.855  1.00  0.00     0.020 A 
HETATM   29  C   UNL     1     -43.269  56.523 -57.635  1.00  0.00     0.017 A 
ENDBRANCH  22  24
ENDBRANCH   3  19
TORSDOF 6
ENDMDL
MODEL 7
REMARK VINA RESULT:      -7.1      3.034      4.316
REMARK  6 active torsions:
REMARK  status: ('A' for Active; 'I' for Inactive)
REMARK    1  A    between atoms: N_2  and  C_4 
REMARK    2  A    between atoms: C_4  and  C_5 
REMARK    3  A    between atoms: C_5  and  N_6 
REMARK    4  A    between atoms: C_5  and  C_21 
REMARK       I    between atoms: N_6  and  C_7 
REMARK       I    between atoms: C_7  and  N_8 
REMARK    5  A    between atoms: N_8  and  C_9 
REMARK    6  A    between atoms: C_12  and  C_13 
ROOT
HETATM    1  N   UNL     1     -42.485  57.052 -54.938  1.00  0.00    -0.333 N 
HETATM    2  C   UNL     1     -43.827  56.885 -55.078  1.00  0.00     0.322 C 
HETATM    3  N   UNL     1     -44.398  57.288 -56.241  1.00  0.00    -0.287 N 
HETATM    4  O   UNL     1     -44.504  56.301 -54.235  1.00  0.00    -0.247 OA
HETATM    5  H   UNL     1     -42.077  57.723 -55.589  1.00  0.00     0.165 HD
HETATM    6  H   UNL     1     -45.393  57.133 -56.335  1.00  0.00     0.172 HD
ENDROOT
BRANCH   1   7
HETATM    7  C   UNL     1     -41.729  56.778 -53.724  1.00  0.00     0.145 C 
BRANCH   7   8
HETATM    8  C   UNL     1     -40.659  57.836 -53.311  1.00  0.00     0.263 C 
BRANCH   8   9
HETATM    9  N   UNL     1     -41.036  58.741 -52.135  1.00  0.00    -0.076 N 
HETATM   10  C   UNL     1     -39.893  59.092 -51.231  1.00  0.00     0.269 C 
HETATM   11  H   UNL     1     -41.322  59.621 -52.583  1.00  0.00     0.279 HD
HETATM   12  C   UNL     1     -42.248  58.295 -51.371  1.00  0.00     0.269 C 
ENDBRANCH   8   9
ENDBRANCH   7   8
BRANCH   7  13
HETATM   13  C   UNL     1     -41.145  55.373 -53.723  1.00  0.00    -0.034 A 
HETATM   14  C   UNL     1     -40.653  54.821 -54.920  1.00  0.00     0.009 A 
HETATM   15  C   UNL     1     -40.157  53.516 -54.954  1.00  0.00     0.001 A 
HETATM   16  C   UNL     1     -40.134  52.747 -53.793  1.00  0.00     0.000 A 
HETATM   17  C   UNL     1     -40.601  53.283 -52.597  1.00  0.00     0.001 A 
HETATM   18  C   UNL     1     -41.102  54.587 -52.561  1.00  0.00     0.009 A 
ENDBRANCH   7  13
ENDBRANCH   1   7
BRANCH   3  19
HETATM   19  C   UNL     1     -43.740  57.804 -57.320  1.00  0.00     0.175 A 
HETATM   20  S   UNL     1     -43.575  56.735 -58.634  1.00  0.00    -0.061 SA
HETATM   21  C   UNL     1     -42.657  57.931 -59.457  1.00  0.00     0.086 A 
HETATM   22  C   UNL     1     -42.567  59.067 -58.673  1.00  0.00     0.078 A 
HETATM   23  N   UNL     1     -43.200  58.992 -57.441  1.00  0.00    -0.223 NA
BRANCH  22  24
HETATM   24  C   UNL     1     -41.880  60.268 -59.095  1.00  0.00     0.011 A 
HETATM   25  C   UNL     1     -41.857  60.666 -60.428  1.00  0.00     0.130 A 
HETATM   26  N   UNL     1     -41.231  61.780 -60.876  1.00  0.00    -0.272 NA
HETATM   27  C   UNL     1     -40.611  62.542 -59.949  1.00  0.00     0.116 A 
HETATM   28  C   UNL     1     -40.573  62.231 -58.599  1.00  0.00     0.020 A 
HETATM   29  C   UNL     1     -41.211  61.069 -58.168  1.00  0.00     0.017 A 
ENDBRANCH  22  24
ENDBRANCH   3  19
TORSDOF 6
ENDMDL
MODEL 8
REMARK VINA RESULT:      -7.1      3.060      4.153
REMARK  6 active torsions:
REMARK  status: ('A' for Active; 'I' for Inactive)
REMARK    1  A    between atoms: N_2  and  C_4 
REMARK    2  A    between atoms: C_4  and  C_5 
REMARK    3  A    between atoms: C_5  and  N_6 
REMARK    4  A    between atoms: C_5  and  C_21 
REMARK       I    between atoms: N_6  and  C_7 
REMARK       I    between atoms: C_7  and  N_8 
REMARK    5  A    between atoms: N_8  and  C_9 
REMARK    6  A    between atoms: C_12  and  C_13 
ROOT
HETATM    1  N   UNL     1     -42.239  57.797 -54.185  1.00  0.00    -0.333 N 
HETATM    2  C   UNL     1     -41.587  58.952 -54.485  1.00  0.00     0.322 C 
HETATM    3  N   UNL     1     -41.921  59.589 -55.635  1.00  0.00    -0.287 N 
HETATM    4  O   UNL     1     -40.789  59.472 -53.708  1.00  0.00    -0.247 OA
HETATM    5  H   UNL     1     -42.705  57.362 -54.981  1.00  0.00     0.165 HD
HETATM    6  H   UNL     1     -41.442  60.458 -55.828  1.00  0.00     0.172 HD
ENDROOT
BRANCH   1   7
HETATM    7  C   UNL     1     -41.934  56.933 -53.054  1.00  0.00     0.145 C 
BRANCH   7   8
HETATM    8  C   UNL     1     -41.086  57.560 -51.903  1.00  0.00     0.263 C 
BRANCH   8   9
HETATM    9  N   UNL     1     -41.875  58.309 -50.826  1.00  0.00    -0.076 N 
HETATM   10  C   UNL     1     -43.286  58.641 -51.208  1.00  0.00     0.269 C 
HETATM   11  H   UNL     1     -41.944  57.632 -50.055  1.00  0.00     0.279 HD
HETATM   12  C   UNL     1     -41.156  59.486 -50.234  1.00  0.00     0.269 C 
ENDBRANCH   8   9
ENDBRANCH   7   8
BRANCH   7  13
HETATM   13  C   UNL     1     -41.357  55.597 -53.498  1.00  0.00    -0.034 A 
HETATM   14  C   UNL     1     -41.255  54.540 -52.575  1.00  0.00     0.009 A 
HETATM   15  C   UNL     1     -40.685  53.320 -52.946  1.00  0.00     0.001 A 
HETATM   16  C   UNL     1     -40.217  53.134 -54.244  1.00  0.00     0.000 A 
HETATM   17  C   UNL     1     -40.325  54.163 -55.174  1.00  0.00     0.001 A 
HETATM   18  C   UNL     1     -40.892  55.386 -54.805  1.00  0.00     0.009 A 
ENDBRANCH   7  13
ENDBRANCH   1   7
BRANCH   3  19
HETATM   19  C   UNL     1     -42.899  59.206 -56.508  1.00  0.00     0.175 A 
HETATM   20  S   UNL     1     -44.188  60.305 -56.663  1.00  0.00    -0.061 SA
HETATM   21  C   UNL     1     -44.968  59.200 -57.721  1.00  0.00     0.086 A 
HETATM   22  C   UNL     1     -44.171  58.084 -57.895  1.00  0.00     0.078 A 
HETATM   23  N   UNL     1     -42.972  58.093 -57.197  1.00  0.00    -0.223 NA
BRANCH  22  24
HETATM   24  C   UNL     1     -44.534  56.977 -58.753  1.00  0.00     0.011 A 
HETATM   25  C   UNL     1     -45.722  56.973 -59.477  1.00  0.00     0.130 A 
HETATM   26  N   UNL     1     -46.109  55.965 -60.294  1.00  0.00    -0.272 NA
HETATM   27  C   UNL     1     -45.264  54.917 -60.408  1.00  0.00     0.116 A 
HETATM   28  C   UNL     1     -44.060  54.824 -59.727  1.00  0.00     0.020 A 
HETATM   29  C   UNL     1     -43.695  55.868 -58.879  1.00  0.00     0.017 A 
ENDBRANCH  22  24
ENDBRANCH   3  19
TORSDOF 6
ENDMDL
MODEL 9
REMARK VINA RESULT:      -6.8      3.214      6.925
REMARK  6 active torsions:
REMARK  status: ('A' for Active; 'I' for Inactive)
REMARK    1  A    between atoms: N_2  and  C_4 
REMARK    2  A    between atoms: C_4  and  C_5 
REMARK    3  A    between atoms: C_5  and  N_6 
REMARK    4  A    between atoms: C_5  and  C_21 
REMARK       I    between atoms: N_6  and  C_7 
REMARK       I    between atoms: C_7  and  N_8 
REMARK    5  A    between atoms: N_8  and  C_9 
REMARK    6  A    between atoms: C_12  and  C_13 
ROOT
HETATM    1  N   UNL     1     -43.178  57.797 -52.526  1.00  0.00    -0.333 N 
HETATM    2  C   UNL     1     -44.387  57.449 -53.041  1.00  0.00     0.322 C 
HETATM    3  N   UNL     1     -44.441  56.366 -53.857  1.00  0.00    -0.287 N 
HETATM    4  O   UNL     1     -45.425  58.020 -52.714  1.00  0.00    -0.247 OA
HETATM    5  H   UNL     1     -42.382  57.398 -53.023  1.00  0.00     0.165 HD
HETATM    6  H   UNL     1     -45.353  56.109 -54.210  1.00  0.00     0.172 HD
ENDROOT
BRANCH   1   7
HETATM    7  C   UNL     1     -42.920  58.985 -51.725  1.00  0.00     0.145 C 
BRANCH   7   8
HETATM    8  C   UNL     1     -43.532  60.325 -52.243  1.00  0.00     0.263 C 
BRANCH   8   9
HETATM    9  N   UNL     1     -42.708  61.068 -53.298  1.00  0.00    -0.076 N 
HETATM   10  C   UNL     1     -42.946  62.548 -53.342  1.00  0.00     0.269 C 
HETATM   11  H   UNL     1     -41.737  60.948 -52.983  1.00  0.00     0.279 HD
HETATM   12  C   UNL     1     -42.743  60.447 -54.664  1.00  0.00     0.269 C 
ENDBRANCH   8   9
ENDBRANCH   7   8
BRANCH   7  13
HETATM   13  C   UNL     1     -41.443  59.143 -51.400  1.00  0.00    -0.034 A 
HETATM   14  C   UNL     1     -41.055  59.712 -50.174  1.00  0.00     0.009 A 
HETATM   15  C   UNL     1     -39.705  59.912 -49.874  1.00  0.00     0.001 A 
HETATM   16  C   UNL     1     -38.724  59.539 -50.788  1.00  0.00     0.000 A 
HETATM   17  C   UNL     1     -39.089  58.960 -52.000  1.00  0.00     0.001 A 
HETATM   18  C   UNL     1     -40.439  58.762 -52.304  1.00  0.00     0.009 A 
ENDBRANCH   7  13
ENDBRANCH   1   7
BRANCH   3  19
HETATM   19  C   UNL     1     -43.394  55.550 -54.174  1.00  0.00     0.175 A 
HETATM   20  S   UNL     1     -42.881  55.642 -55.794  1.00  0.00    -0.061 SA
HETATM   21  C   UNL     1     -41.743  54.396 -55.477  1.00  0.00     0.086 A 
HETATM   22  C   UNL     1     -41.825  54.021 -54.149  1.00  0.00     0.078 A 
HETATM   23  N   UNL     1     -42.776  54.695 -53.396  1.00  0.00    -0.223 NA
BRANCH  22  24
HETATM   24  C   UNL     1     -40.975  53.009 -53.558  1.00  0.00     0.011 A 
HETATM   25  C   UNL     1     -40.560  53.087 -52.233  1.00  0.00     0.130 A 
HETATM   26  N   UNL     1     -39.767  52.168 -51.631  1.00  0.00    -0.272 NA
HETATM   27  C   UNL     1     -39.383  51.113 -52.382  1.00  0.00     0.116 A 
HETATM   28  C   UNL     1     -39.739  50.946 -53.711  1.00  0.00     0.020 A 
HETATM   29  C   UNL     1     -40.541  51.916 -54.310  1.00  0.00     0.017 A 
ENDBRANCH  22  24
ENDBRANCH   3  19
TORSDOF 6
ENDMDL
MODEL 10
REMARK VINA RESULT:      -6.6      1.860      2.507
REMARK  6 active torsions:
REMARK  status: ('A' for Active; 'I' for Inactive)
REMARK    1  A    between atoms: N_2  and  C_4 
REMARK    2  A    between atoms: C_4  and  C_5 
REMARK    3  A    between atoms: C_5  and  N_6 
REMARK    4  A    between atoms: C_5  and  C_21 
REMARK       I    between atoms: N_6  and  C_7 
REMARK       I    between atoms: C_7  and  N_8 
REMARK    5  A    between atoms: N_8  and  C_9 
REMARK    6  A    between atoms: C_12  and  C_13 
ROOT
HETATM    1  N   UNL     1     -42.423  55.673 -53.170  1.00  0.00    -0.333 N 
HETATM    2  C   UNL     1     -43.673  55.146 -53.260  1.00  0.00     0.322 C 
HETATM    3  N   UNL     1     -44.519  55.673 -54.180  1.00  0.00    -0.287 N 
HETATM    4  O   UNL     1     -44.015  54.161 -52.608  1.00  0.00    -0.247 OA
HETATM    5  H   UNL     1     -42.328  56.596 -53.591  1.00  0.00     0.165 HD
HETATM    6  H   UNL     1     -45.436  55.252 -54.247  1.00  0.00     0.172 HD
ENDROOT
BRANCH   1   7
HETATM    7  C   UNL     1     -41.429  55.303 -52.172  1.00  0.00     0.145 C 
BRANCH   7   8
HETATM    8  C   UNL     1     -40.424  56.417 -51.740  1.00  0.00     0.263 C 
BRANCH   8   9
HETATM    9  N   UNL     1     -40.923  57.857 -51.885  1.00  0.00    -0.076 N 
HETATM   10  C   UNL     1     -40.257  58.638 -52.976  1.00  0.00     0.269 C 
HETATM   11  H   UNL     1     -41.904  57.750 -52.172  1.00  0.00     0.279 HD
HETATM   12  C   UNL     1     -40.989  58.624 -50.596  1.00  0.00     0.269 C 
ENDBRANCH   8   9
ENDBRANCH   7   8
BRANCH   7  13
HETATM   13  C   UNL     1     -40.702  54.019 -52.541  1.00  0.00    -0.034 A 
HETATM   14  C   UNL     1     -40.597  53.640 -53.892  1.00  0.00     0.009 A 
HETATM   15  C   UNL     1     -39.977  52.441 -54.252  1.00  0.00     0.001 A 
HETATM   16  C   UNL     1     -39.446  51.608 -53.271  1.00  0.00     0.000 A 
HETATM   17  C   UNL     1     -39.527  51.975 -51.931  1.00  0.00     0.001 A 
HETATM   18  C   UNL     1     -40.150  53.172 -51.568  1.00  0.00     0.009 A 
ENDBRANCH   7  13
ENDBRANCH   1   7
BRANCH   3  19
HETATM   19  C   UNL     1     -44.216  56.660 -55.073  1.00  0.00     0.175 A 
HETATM   20  S   UNL     1     -44.721  58.219 -54.614  1.00  0.00    -0.061 SA
HETATM   21  C   UNL     1     -44.145  58.819 -56.117  1.00  0.00     0.086 A 
HETATM   22  C   UNL     1     -43.588  57.784 -56.846  1.00  0.00     0.078 A 
HETATM   23  N   UNL     1     -43.625  56.539 -56.236  1.00  0.00    -0.223 NA
BRANCH  22  24
HETATM   24  C   UNL     1     -42.987  57.969 -58.149  1.00  0.00     0.011 A 
HETATM   25  C   UNL     1     -42.845  56.913 -59.043  1.00  0.00     0.130 A 
HETATM   26  N   UNL     1     -42.292  57.031 -60.274  1.00  0.00    -0.272 NA
HETATM   27  C   UNL     1     -41.876  58.264 -60.637  1.00  0.00     0.116 A 
HETATM   28  C   UNL     1     -41.970  59.378 -59.818  1.00  0.00     0.020 A 
HETATM   29  C   UNL     1     -42.527  59.224 -58.550  1.00  0.00     0.017 A 
ENDBRANCH  22  24
ENDBRANCH   3  19
TORSDOF 6
ENDMDL
