MODEL 1
REMARK VINA RESULT:      -6.6      0.000      0.000
REMARK  6 active torsions:
REMARK  status: ('A' for Active; 'I' for Inactive)
REMARK    1  A    between atoms: N_4  and  C_5 
REMARK    2  A    between atoms: C_5  and  C_6 
REMARK    3  A    between atoms: C_6  and  C_7 
REMARK    4  A    between atoms: C_7  and  N_8 
REMARK       I    between atoms: N_8  and  C_9 
REMARK       I    between atoms: C_9  and  N_10 
REMARK    5  A    between atoms: N_10  and  C_11 
REMARK    6  A    between atoms: C_12  and  O_13 
ROOT
HETATM    1  N   UNL     1     -43.182  55.284 -55.851  1.00  0.00    -0.343 N 
HETATM    2  C   UNL     1     -42.035  54.846 -55.223  1.00  0.00     0.320 C 
HETATM    3  N   UNL     1     -42.343  53.926 -54.240  1.00  0.00    -0.306 N 
HETATM    4  O   UNL     1     -40.921  55.285 -55.481  1.00  0.00    -0.247 OA
HETATM    5  H   UNL     1     -43.922  54.595 -55.931  1.00  0.00     0.164 HD
HETATM    6  H   UNL     1     -43.164  54.194 -53.715  1.00  0.00     0.171 HD
ENDROOT
BRANCH   1   7
HETATM    7  C   UNL     1     -43.131  56.286 -56.895  1.00  0.00     0.126 C 
BRANCH   7   8
HETATM    8  C   UNL     1     -43.567  57.685 -56.452  1.00  0.00     0.041 C 
BRANCH   8   9
HETATM    9  C   UNL     1     -42.448  58.542 -55.868  1.00  0.00     0.152 C 
BRANCH   9  10
HETATM   10  N   UNL     1     -42.312  58.399 -54.432  1.00  0.00    -0.279 N 
HETATM   11  N   UNL     1     -43.317  57.860 -53.710  1.00  0.00    -0.176 NA
HETATM   12  C   UNL     1     -42.862  57.906 -52.448  1.00  0.00     0.074 A 
HETATM   13  C   UNL     1     -43.701  57.417 -51.327  1.00  0.00     0.074 C 
HETATM   14  C   UNL     1     -41.561  58.460 -52.384  1.00  0.00     0.077 A 
HETATM   15  C   UNL     1     -41.234  58.764 -53.681  1.00  0.00     0.138 A 
HETATM   16 CL   UNL     1     -40.617  58.695 -50.999  1.00  0.00    -0.081 Cl
ENDBRANCH   9  10
ENDBRANCH   8   9
ENDBRANCH   7   8
ENDBRANCH   1   7
BRANCH   3  17
HETATM   17  C   UNL     1     -41.353  53.180 -53.561  1.00  0.00     0.071 A 
HETATM   18  C   UNL     1     -40.857  53.555 -52.292  1.00  0.00     0.095 A 
HETATM   19  C   UNL     1     -39.902  52.745 -51.666  1.00  0.00     0.041 A 
HETATM   20  C   UNL     1     -39.428  51.592 -52.298  1.00  0.00     0.026 A 
HETATM   21  C   UNL     1     -39.888  51.258 -53.568  1.00  0.00     0.036 A 
HETATM   22 CL   UNL     1     -39.285  49.849 -54.351  1.00  0.00    -0.084 Cl
HETATM   23  C   UNL     1     -40.835  52.053 -54.210  1.00  0.00     0.056 A 
BRANCH  18  24
HETATM   24  O   UNL     1     -41.273  54.765 -51.797  1.00  0.00    -0.354 OA
HETATM   25  C   UNL     1     -40.901  55.091 -50.466  1.00  0.00     0.210 C 
ENDBRANCH  18  24
ENDBRANCH   3  17
TORSDOF 6
ENDMDL
MODEL 2
REMARK VINA RESULT:      -6.6      2.196      2.998
REMARK  6 active torsions:
REMARK  status: ('A' for Active; 'I' for Inactive)
REMARK    1  A    between atoms: N_4  and  C_5 
REMARK    2  A    between atoms: C_5  and  C_6 
REMARK    3  A    between atoms: C_6  and  C_7 
REMARK    4  A    between atoms: C_7  and  N_8 
REMARK       I    between atoms: N_8  and  C_9 
REMARK       I    between atoms: C_9  and  N_10 
REMARK    5  A    between atoms: N_10  and  C_11 
REMARK    6  A    between atoms: C_12  and  O_13 
ROOT
HETATM    1  N   UNL     1     -41.719  55.113 -56.207  1.00  0.00    -0.343 N 
HETATM    2  C   UNL     1     -41.859  54.326 -55.083  1.00  0.00     0.320 C 
HETATM    3  N   UNL     1     -40.630  54.105 -54.492  1.00  0.00    -0.306 N 
HETATM    4  O   UNL     1     -42.930  53.850 -54.728  1.00  0.00    -0.247 OA
HETATM    5  H   UNL     1     -40.979  55.805 -56.162  1.00  0.00     0.164 HD
HETATM    6  H   UNL     1     -39.908  53.927 -55.175  1.00  0.00     0.171 HD
ENDROOT
BRANCH   1   7
HETATM    7  C   UNL     1     -42.859  55.456 -57.031  1.00  0.00     0.126 C 
BRANCH   7   8
HETATM    8  C   UNL     1     -43.054  56.958 -57.247  1.00  0.00     0.041 C 
BRANCH   8   9
HETATM    9  C   UNL     1     -44.009  57.623 -56.261  1.00  0.00     0.152 C 
BRANCH   9  10
HETATM   10  N   UNL     1     -43.591  57.484 -54.881  1.00  0.00    -0.279 N 
HETATM   11  N   UNL     1     -42.349  57.864 -54.512  1.00  0.00    -0.176 NA
HETATM   12  C   UNL     1     -42.304  57.576 -53.201  1.00  0.00     0.074 A 
HETATM   13  C   UNL     1     -41.072  57.830 -52.416  1.00  0.00     0.074 C 
HETATM   14  C   UNL     1     -43.528  57.030 -52.747  1.00  0.00     0.077 A 
HETATM   15  C   UNL     1     -44.338  56.988 -53.854  1.00  0.00     0.138 A 
HETATM   16 CL   UNL     1     -43.906  56.536 -51.173  1.00  0.00    -0.081 Cl
ENDBRANCH   9  10
ENDBRANCH   8   9
ENDBRANCH   7   8
ENDBRANCH   1   7
BRANCH   3  17
HETATM   17  C   UNL     1     -40.496  53.484 -53.229  1.00  0.00     0.071 A 
HETATM   18  C   UNL     1     -39.950  52.190 -53.073  1.00  0.00     0.095 A 
HETATM   19  C   UNL     1     -39.816  51.657 -51.786  1.00  0.00     0.041 A 
HETATM   20  C   UNL     1     -40.238  52.385 -50.670  1.00  0.00     0.026 A 
HETATM   21  C   UNL     1     -40.819  53.638 -50.839  1.00  0.00     0.036 A 
HETATM   22 CL   UNL     1     -41.358  54.521 -49.464  1.00  0.00    -0.084 Cl
HETATM   23  C   UNL     1     -40.965  54.185 -52.112  1.00  0.00     0.056 A 
BRANCH  18  24
HETATM   24  O   UNL     1     -39.680  51.490 -54.221  1.00  0.00    -0.354 OA
HETATM   25  C   UNL     1     -40.232  50.186 -54.337  1.00  0.00     0.210 C 
ENDBRANCH  18  24
ENDBRANCH   3  17
TORSDOF 6
ENDMDL
MODEL 3
REMARK VINA RESULT:      -6.5      2.634      4.030
REMARK  6 active torsions:
REMARK  status: ('A' for Active; 'I' for Inactive)
REMARK    1  A    between atoms: N_4  and  C_5 
REMARK    2  A    between atoms: C_5  and  C_6 
REMARK    3  A    between atoms: C_6  and  C_7 
REMARK    4  A    between atoms: C_7  and  N_8 
REMARK       I    between atoms: N_8  and  C_9 
REMARK       I    between atoms: C_9  and  N_10 
REMARK    5  A    between atoms: N_10  and  C_11 
REMARK    6  A    between atoms: C_12  and  O_13 
ROOT
HETATM    1  N   UNL     1     -42.412  56.388 -53.631  1.00  0.00    -0.343 N 
HETATM    2  C   UNL     1     -42.255  55.052 -53.330  1.00  0.00     0.320 C 
HETATM    3  N   UNL     1     -40.917  54.709 -53.334  1.00  0.00    -0.306 N 
HETATM    4  O   UNL     1     -43.198  54.289 -53.157  1.00  0.00    -0.247 OA
HETATM    5  H   UNL     1     -41.670  56.996 -53.303  1.00  0.00     0.164 HD
HETATM    6  H   UNL     1     -40.418  55.140 -54.098  1.00  0.00     0.171 HD
ENDROOT
BRANCH   1   7
HETATM    7  C   UNL     1     -43.726  56.987 -53.731  1.00  0.00     0.126 C 
BRANCH   7   8
HETATM    8  C   UNL     1     -43.856  58.050 -54.825  1.00  0.00     0.041 C 
BRANCH   8   9
HETATM    9  C   UNL     1     -42.582  58.294 -55.627  1.00  0.00     0.152 C 
BRANCH   9  10
HETATM   10  N   UNL     1     -42.645  57.761 -56.973  1.00  0.00    -0.279 N 
HETATM   11  N   UNL     1     -42.075  58.438 -57.992  1.00  0.00    -0.176 NA
HETATM   12  C   UNL     1     -42.344  57.679 -59.067  1.00  0.00     0.074 A 
HETATM   13  C   UNL     1     -41.897  58.100 -60.417  1.00  0.00     0.074 C 
HETATM   14  C   UNL     1     -43.069  56.515 -58.714  1.00  0.00     0.077 A 
HETATM   15  C   UNL     1     -43.244  56.597 -57.355  1.00  0.00     0.138 A 
HETATM   16 CL   UNL     1     -43.604  55.290 -59.751  1.00  0.00    -0.081 Cl
ENDBRANCH   9  10
ENDBRANCH   8   9
ENDBRANCH   7   8
ENDBRANCH   1   7
BRANCH   3  17
HETATM   17  C   UNL     1     -40.454  53.451 -52.884  1.00  0.00     0.071 A 
HETATM   18  C   UNL     1     -40.173  53.187 -51.525  1.00  0.00     0.095 A 
HETATM   19  C   UNL     1     -39.753  51.905 -51.151  1.00  0.00     0.041 A 
HETATM   20  C   UNL     1     -39.593  50.904 -52.114  1.00  0.00     0.026 A 
HETATM   21  C   UNL     1     -39.826  51.189 -53.456  1.00  0.00     0.036 A 
HETATM   22 CL   UNL     1     -39.606  49.959 -54.639  1.00  0.00    -0.084 Cl
HETATM   23  C   UNL     1     -40.240  52.459 -53.848  1.00  0.00     0.056 A 
BRANCH  18  24
HETATM   24  O   UNL     1     -40.229  54.252 -50.663  1.00  0.00    -0.354 OA
HETATM   25  C   UNL     1     -39.905  54.010 -49.301  1.00  0.00     0.210 C 
ENDBRANCH  18  24
ENDBRANCH   3  17
TORSDOF 6
ENDMDL
MODEL 4
REMARK VINA RESULT:      -6.4      4.047      5.560
REMARK  6 active torsions:
REMARK  status: ('A' for Active; 'I' for Inactive)
REMARK    1  A    between atoms: N_4  and  C_5 
REMARK    2  A    between atoms: C_5  and  C_6 
REMARK    3  A    between atoms: C_6  and  C_7 
REMARK    4  A    between atoms: C_7  and  N_8 
REMARK       I    between atoms: N_8  and  C_9 
REMARK       I    between atoms: C_9  and  N_10 
REMARK    5  A    between atoms: N_10  and  C_11 
REMARK    6  A    between atoms: C_12  and  O_13 
ROOT
HETATM    1  N   UNL     1     -42.149  55.817 -56.903  1.00  0.00    -0.343 N 
HETATM    2  C   UNL     1     -42.146  54.852 -55.918  1.00  0.00     0.320 C 
HETATM    3  N   UNL     1     -40.857  54.606 -55.486  1.00  0.00    -0.306 N 
HETATM    4  O   UNL     1     -43.157  54.267 -55.551  1.00  0.00    -0.247 OA
HETATM    5  H   UNL     1     -41.436  56.532 -56.811  1.00  0.00     0.164 HD
HETATM    6  H   UNL     1     -40.200  54.581 -56.253  1.00  0.00     0.171 HD
ENDROOT
BRANCH   1   7
HETATM    7  C   UNL     1     -43.378  56.226 -57.550  1.00  0.00     0.126 C 
BRANCH   7   8
HETATM    8  C   UNL     1     -43.329  56.190 -59.080  1.00  0.00     0.041 C 
BRANCH   8   9
HETATM    9  C   UNL     1     -44.451  55.388 -59.732  1.00  0.00     0.152 C 
BRANCH   9  10
HETATM   10  N   UNL     1     -45.573  56.207 -60.143  1.00  0.00    -0.279 N 
HETATM   11  N   UNL     1     -46.438  55.747 -61.072  1.00  0.00    -0.176 NA
HETATM   12  C   UNL     1     -47.313  56.755 -61.218  1.00  0.00     0.074 A 
HETATM   13  C   UNL     1     -48.430  56.648 -62.188  1.00  0.00     0.074 C 
HETATM   14  C   UNL     1     -47.003  57.841 -60.365  1.00  0.00     0.077 A 
HETATM   15  C   UNL     1     -45.877  57.454 -59.682  1.00  0.00     0.138 A 
HETATM   16 CL   UNL     1     -47.843  59.303 -60.223  1.00  0.00    -0.081 Cl
ENDBRANCH   9  10
ENDBRANCH   8   9
ENDBRANCH   7   8
ENDBRANCH   1   7
BRANCH   3  17
HETATM   17  C   UNL     1     -40.574  53.797 -54.362  1.00  0.00     0.071 A 
HETATM   18  C   UNL     1     -40.640  54.286 -53.039  1.00  0.00     0.095 A 
HETATM   19  C   UNL     1     -40.381  53.413 -51.975  1.00  0.00     0.041 A 
HETATM   20  C   UNL     1     -40.041  52.080 -52.219  1.00  0.00     0.026 A 
HETATM   21  C   UNL     1     -39.933  51.621 -53.529  1.00  0.00     0.036 A 
HETATM   22 CL   UNL     1     -39.492  49.984 -53.825  1.00  0.00    -0.084 Cl
HETATM   23  C   UNL     1     -40.181  52.474 -54.601  1.00  0.00     0.056 A 
BRANCH  18  24
HETATM   24  O   UNL     1     -40.852  55.633 -52.886  1.00  0.00    -0.354 OA
HETATM   25  C   UNL     1     -42.079  56.040 -52.298  1.00  0.00     0.210 C 
ENDBRANCH  18  24
ENDBRANCH   3  17
TORSDOF 6
ENDMDL
MODEL 5
REMARK VINA RESULT:      -6.4      3.563      4.852
REMARK  6 active torsions:
REMARK  status: ('A' for Active; 'I' for Inactive)
REMARK    1  A    between atoms: N_4  and  C_5 
REMARK    2  A    between atoms: C_5  and  C_6 
REMARK    3  A    between atoms: C_6  and  C_7 
REMARK    4  A    between atoms: C_7  and  N_8 
REMARK       I    between atoms: N_8  and  C_9 
REMARK       I    between atoms: C_9  and  N_10 
REMARK    5  A    between atoms: N_10  and  C_11 
REMARK    6  A    between atoms: C_12  and  O_13 
ROOT
HETATM    1  N   UNL     1     -42.067  56.054 -56.731  1.00  0.00    -0.343 N 
HETATM    2  C   UNL     1     -42.081  55.023 -55.816  1.00  0.00     0.320 C 
HETATM    3  N   UNL     1     -40.804  54.762 -55.361  1.00  0.00    -0.306 N 
HETATM    4  O   UNL     1     -43.096  54.402 -55.523  1.00  0.00    -0.247 OA
HETATM    5  H   UNL     1     -41.367  56.770 -56.567  1.00  0.00     0.164 HD
HETATM    6  H   UNL     1     -40.122  54.799 -56.105  1.00  0.00     0.171 HD
ENDROOT
BRANCH   1   7
HETATM    7  C   UNL     1     -43.280  56.493 -57.388  1.00  0.00     0.126 C 
BRANCH   7   8
HETATM    8  C   UNL     1     -43.628  55.715 -58.659  1.00  0.00     0.041 C 
BRANCH   8   9
HETATM    9  C   UNL     1     -42.779  56.073 -59.875  1.00  0.00     0.152 C 
BRANCH   9  10
HETATM   10  N   UNL     1     -42.870  57.473 -60.241  1.00  0.00    -0.279 N 
HETATM   11  N   UNL     1     -44.074  58.023 -60.506  1.00  0.00    -0.176 NA
HETATM   12  C   UNL     1     -43.780  59.294 -60.823  1.00  0.00     0.074 A 
HETATM   13  C   UNL     1     -44.854  60.242 -61.207  1.00  0.00     0.074 C 
HETATM   14  C   UNL     1     -42.389  59.542 -60.739  1.00  0.00     0.077 A 
HETATM   15  C   UNL     1     -41.831  58.348 -60.358  1.00  0.00     0.138 A 
HETATM   16 CL   UNL     1     -41.591  61.002 -61.047  1.00  0.00    -0.081 Cl
ENDBRANCH   9  10
ENDBRANCH   8   9
ENDBRANCH   7   8
ENDBRANCH   1   7
BRANCH   3  17
HETATM   17  C   UNL     1     -40.546  53.880 -54.286  1.00  0.00     0.071 A 
HETATM   18  C   UNL     1     -40.699  54.263 -52.935  1.00  0.00     0.095 A 
HETATM   19  C   UNL     1     -40.460  53.321 -51.928  1.00  0.00     0.041 A 
HETATM   20  C   UNL     1     -40.053  52.024 -52.253  1.00  0.00     0.026 A 
HETATM   21  C   UNL     1     -39.859  51.672 -53.585  1.00  0.00     0.036 A 
HETATM   22 CL   UNL     1     -39.337  50.080 -53.979  1.00  0.00    -0.084 Cl
HETATM   23  C   UNL     1     -40.088  52.595 -54.602  1.00  0.00     0.056 A 
BRANCH  18  24
HETATM   24  O   UNL     1     -40.974  55.585 -52.694  1.00  0.00    -0.354 OA
HETATM   25  C   UNL     1     -42.222  55.895 -52.091  1.00  0.00     0.210 C 
ENDBRANCH  18  24
ENDBRANCH   3  17
TORSDOF 6
ENDMDL
MODEL 6
REMARK VINA RESULT:      -6.3      3.222      4.631
REMARK  6 active torsions:
REMARK  status: ('A' for Active; 'I' for Inactive)
REMARK    1  A    between atoms: N_4  and  C_5 
REMARK    2  A    between atoms: C_5  and  C_6 
REMARK    3  A    between atoms: C_6  and  C_7 
REMARK    4  A    between atoms: C_7  and  N_8 
REMARK       I    between atoms: N_8  and  C_9 
REMARK       I    between atoms: C_9  and  N_10 
REMARK    5  A    between atoms: N_10  and  C_11 
REMARK    6  A    between atoms: C_12  and  O_13 
ROOT
HETATM    1  N   UNL     1     -42.768  56.337 -54.555  1.00  0.00    -0.343 N 
HETATM    2  C   UNL     1     -41.673  55.626 -54.111  1.00  0.00     0.320 C 
HETATM    3  N   UNL     1     -42.075  54.510 -53.403  1.00  0.00    -0.306 N 
HETATM    4  O   UNL     1     -40.519  56.000 -54.280  1.00  0.00    -0.247 OA
HETATM    5  H   UNL     1     -43.580  55.777 -54.792  1.00  0.00     0.164 HD
HETATM    6  H   UNL     1     -42.858  54.708 -52.797  1.00  0.00     0.171 HD
ENDROOT
BRANCH   1   7
HETATM    7  C   UNL     1     -42.613  57.575 -55.289  1.00  0.00     0.126 C 
BRANCH   7   8
HETATM    8  C   UNL     1     -42.498  57.400 -56.806  1.00  0.00     0.041 C 
BRANCH   8   9
HETATM    9  C   UNL     1     -43.511  58.202 -57.616  1.00  0.00     0.152 C 
BRANCH   9  10
HETATM   10  N   UNL     1     -44.332  57.377 -58.479  1.00  0.00    -0.279 N 
HETATM   11  N   UNL     1     -43.914  56.140 -58.824  1.00  0.00    -0.176 NA
HETATM   12  C   UNL     1     -44.890  55.688 -59.629  1.00  0.00     0.074 A 
HETATM   13  C   UNL     1     -44.792  54.344 -60.248  1.00  0.00     0.074 C 
HETATM   14  C   UNL     1     -45.928  56.639 -59.772  1.00  0.00     0.077 A 
HETATM   15  C   UNL     1     -45.539  57.716 -59.015  1.00  0.00     0.138 A 
HETATM   16 CL   UNL     1     -47.343  56.478 -60.685  1.00  0.00    -0.081 Cl
ENDBRANCH   9  10
ENDBRANCH   8   9
ENDBRANCH   7   8
ENDBRANCH   1   7
BRANCH   3  17
HETATM   17  C   UNL     1     -41.169  53.507 -52.988  1.00  0.00     0.071 A 
HETATM   18  C   UNL     1     -40.562  53.514 -51.712  1.00  0.00     0.095 A 
HETATM   19  C   UNL     1     -39.703  52.466 -51.360  1.00  0.00     0.041 A 
HETATM   20  C   UNL     1     -39.431  51.438 -52.266  1.00  0.00     0.026 A 
HETATM   21  C   UNL     1     -39.997  51.467 -53.537  1.00  0.00     0.036 A 
HETATM   22 CL   UNL     1     -39.641  50.210 -54.658  1.00  0.00    -0.084 Cl
HETATM   23  C   UNL     1     -40.851  52.503 -53.909  1.00  0.00     0.056 A 
BRANCH  18  24
HETATM   24  O   UNL     1     -40.776  54.621 -50.930  1.00  0.00    -0.354 OA
HETATM   25  C   UNL     1     -41.658  54.481 -49.826  1.00  0.00     0.210 C 
ENDBRANCH  18  24
ENDBRANCH   3  17
TORSDOF 6
ENDMDL
MODEL 7
REMARK VINA RESULT:      -6.2      3.573      4.537
REMARK  6 active torsions:
REMARK  status: ('A' for Active; 'I' for Inactive)
REMARK    1  A    between atoms: N_4  and  C_5 
REMARK    2  A    between atoms: C_5  and  C_6 
REMARK    3  A    between atoms: C_6  and  C_7 
REMARK    4  A    between atoms: C_7  and  N_8 
REMARK       I    between atoms: N_8  and  C_9 
REMARK       I    between atoms: C_9  and  N_10 
REMARK    5  A    between atoms: N_10  and  C_11 
REMARK    6  A    between atoms: C_12  and  O_13 
ROOT
HETATM    1  N   UNL     1     -42.047  56.137 -56.745  1.00  0.00    -0.343 N 
HETATM    2  C   UNL     1     -42.070  55.093 -55.844  1.00  0.00     0.320 C 
HETATM    3  N   UNL     1     -40.797  54.829 -55.378  1.00  0.00    -0.306 N 
HETATM    4  O   UNL     1     -43.086  54.467 -55.571  1.00  0.00    -0.247 OA
HETATM    5  H   UNL     1     -41.350  56.851 -56.563  1.00  0.00     0.164 HD
HETATM    6  H   UNL     1     -40.107  54.877 -56.114  1.00  0.00     0.171 HD
ENDROOT
BRANCH   1   7
HETATM    7  C   UNL     1     -43.253  56.582 -57.410  1.00  0.00     0.126 C 
BRANCH   7   8
HETATM    8  C   UNL     1     -43.104  57.898 -58.178  1.00  0.00     0.041 C 
BRANCH   8   9
HETATM    9  C   UNL     1     -42.282  58.963 -57.459  1.00  0.00     0.152 C 
BRANCH   9  10
HETATM   10  N   UNL     1     -41.818  60.016 -58.340  1.00  0.00    -0.279 N 
HETATM   11  N   UNL     1     -41.030  60.999 -57.857  1.00  0.00    -0.176 NA
HETATM   12  C   UNL     1     -40.820  61.790 -58.922  1.00  0.00     0.074 A 
HETATM   13  C   UNL     1     -40.001  63.020 -58.796  1.00  0.00     0.074 C 
HETATM   14  C   UNL     1     -41.465  61.289 -60.077  1.00  0.00     0.077 A 
HETATM   15  C   UNL     1     -42.098  60.141 -59.669  1.00  0.00     0.138 A 
HETATM   16 CL   UNL     1     -41.457  61.965 -61.628  1.00  0.00    -0.081 Cl
ENDBRANCH   9  10
ENDBRANCH   8   9
ENDBRANCH   7   8
ENDBRANCH   1   7
BRANCH   3  17
HETATM   17  C   UNL     1     -40.549  53.933 -54.313  1.00  0.00     0.071 A 
HETATM   18  C   UNL     1     -40.663  54.314 -52.957  1.00  0.00     0.095 A 
HETATM   19  C   UNL     1     -40.438  53.359 -51.959  1.00  0.00     0.041 A 
HETATM   20  C   UNL     1     -40.082  52.051 -52.298  1.00  0.00     0.026 A 
HETATM   21  C   UNL     1     -39.926  51.699 -53.635  1.00  0.00     0.036 A 
HETATM   22 CL   UNL     1     -39.467  50.092 -54.046  1.00  0.00    -0.084 Cl
HETATM   23  C   UNL     1     -40.142  52.635 -54.643  1.00  0.00     0.056 A 
BRANCH  18  24
HETATM   24  O   UNL     1     -40.887  55.643 -52.705  1.00  0.00    -0.354 OA
HETATM   25  C   UNL     1     -42.003  55.976 -51.892  1.00  0.00     0.210 C 
ENDBRANCH  18  24
ENDBRANCH   3  17
TORSDOF 6
ENDMDL
MODEL 8
REMARK VINA RESULT:      -6.1      1.657      2.074
REMARK  6 active torsions:
REMARK  status: ('A' for Active; 'I' for Inactive)
REMARK    1  A    between atoms: N_4  and  C_5 
REMARK    2  A    between atoms: C_5  and  C_6 
REMARK    3  A    between atoms: C_6  and  C_7 
REMARK    4  A    between atoms: C_7  and  N_8 
REMARK       I    between atoms: N_8  and  C_9 
REMARK       I    between atoms: C_9  and  N_10 
REMARK    5  A    between atoms: N_10  and  C_11 
REMARK    6  A    between atoms: C_12  and  O_13 
ROOT
HETATM    1  N   UNL     1     -42.189  56.085 -56.894  1.00  0.00    -0.343 N 
HETATM    2  C   UNL     1     -42.159  55.027 -56.011  1.00  0.00     0.320 C 
HETATM    3  N   UNL     1     -40.898  54.889 -55.464  1.00  0.00    -0.306 N 
HETATM    4  O   UNL     1     -43.119  54.292 -55.814  1.00  0.00    -0.247 OA
HETATM    5  H   UNL     1     -41.584  56.865 -56.658  1.00  0.00     0.164 HD
HETATM    6  H   UNL     1     -40.171  55.023 -56.152  1.00  0.00     0.171 HD
ENDROOT
BRANCH   1   7
HETATM    7  C   UNL     1     -43.390  56.415 -57.632  1.00  0.00     0.126 C 
BRANCH   7   8
HETATM    8  C   UNL     1     -43.567  57.908 -57.919  1.00  0.00     0.041 C 
BRANCH   8   9
HETATM    9  C   UNL     1     -44.545  58.621 -56.991  1.00  0.00     0.152 C 
BRANCH   9  10
HETATM   10  N   UNL     1     -44.007  58.854 -55.666  1.00  0.00    -0.279 N 
HETATM   11  N   UNL     1     -42.675  58.985 -55.494  1.00  0.00    -0.176 NA
HETATM   12  C   UNL     1     -42.541  59.162 -54.170  1.00  0.00     0.074 A 
HETATM   13  C   UNL     1     -41.198  59.326 -53.564  1.00  0.00     0.074 C 
HETATM   14  C   UNL     1     -43.796  59.158 -53.515  1.00  0.00     0.077 A 
HETATM   15  C   UNL     1     -44.722  58.960 -54.509  1.00  0.00     0.138 A 
HETATM   16 CL   UNL     1     -44.087  59.353 -51.860  1.00  0.00    -0.081 Cl
ENDBRANCH   9  10
ENDBRANCH   8   9
ENDBRANCH   7   8
ENDBRANCH   1   7
BRANCH   3  17
HETATM   17  C   UNL     1     -40.626  54.002 -54.397  1.00  0.00     0.071 A 
HETATM   18  C   UNL     1     -40.781  54.375 -53.043  1.00  0.00     0.095 A 
HETATM   19  C   UNL     1     -40.528  53.429 -52.042  1.00  0.00     0.041 A 
HETATM   20  C   UNL     1     -40.105  52.140 -52.377  1.00  0.00     0.026 A 
HETATM   21  C   UNL     1     -39.909  51.799 -53.712  1.00  0.00     0.036 A 
HETATM   22 CL   UNL     1     -39.367  50.217 -54.118  1.00  0.00    -0.084 Cl
HETATM   23  C   UNL     1     -40.152  52.726 -54.722  1.00  0.00     0.056 A 
BRANCH  18  24
HETATM   24  O   UNL     1     -41.072  55.691 -52.792  1.00  0.00    -0.354 OA
HETATM   25  C   UNL     1     -42.364  55.990 -52.283  1.00  0.00     0.210 C 
ENDBRANCH  18  24
ENDBRANCH   3  17
TORSDOF 6
ENDMDL
MODEL 9
REMARK VINA RESULT:      -5.8      2.931      7.041
REMARK  6 active torsions:
REMARK  status: ('A' for Active; 'I' for Inactive)
REMARK    1  A    between atoms: N_4  and  C_5 
REMARK    2  A    between atoms: C_5  and  C_6 
REMARK    3  A    between atoms: C_6  and  C_7 
REMARK    4  A    between atoms: C_7  and  N_8 
REMARK       I    between atoms: N_8  and  C_9 
REMARK       I    between atoms: C_9  and  N_10 
REMARK    5  A    between atoms: N_10  and  C_11 
REMARK    6  A    between atoms: C_12  and  O_13 
ROOT
HETATM    1  N   UNL     1     -43.746  55.553 -53.812  1.00  0.00    -0.343 N 
HETATM    2  C   UNL     1     -43.215  55.979 -55.011  1.00  0.00     0.320 C 
HETATM    3  N   UNL     1     -43.883  57.100 -55.464  1.00  0.00    -0.306 N 
HETATM    4  O   UNL     1     -42.322  55.381 -55.597  1.00  0.00    -0.247 OA
HETATM    5  H   UNL     1     -44.095  56.288 -53.207  1.00  0.00     0.164 HD
HETATM    6  H   UNL     1     -44.880  57.029 -55.323  1.00  0.00     0.171 HD
ENDROOT
BRANCH   1   7
HETATM    7  C   UNL     1     -43.245  54.368 -53.147  1.00  0.00     0.126 C 
BRANCH   7   8
HETATM    8  C   UNL     1     -42.125  54.634 -52.138  1.00  0.00     0.041 C 
BRANCH   8   9
HETATM    9  C   UNL     1     -40.717  54.408 -52.679  1.00  0.00     0.152 C 
BRANCH   9  10
HETATM   10  N   UNL     1     -40.303  53.020 -52.627  1.00  0.00    -0.279 N 
HETATM   11  N   UNL     1     -40.222  52.298 -53.765  1.00  0.00    -0.176 NA
HETATM   12  C   UNL     1     -39.840  51.082 -53.343  1.00  0.00     0.074 A 
HETATM   13  C   UNL     1     -39.657  49.973 -54.310  1.00  0.00     0.074 C 
HETATM   14  C   UNL     1     -39.666  51.049 -51.939  1.00  0.00     0.077 A 
HETATM   15  C   UNL     1     -39.969  52.316 -51.507  1.00  0.00     0.138 A 
HETATM   16 CL   UNL     1     -39.188  49.727 -50.998  1.00  0.00    -0.081 Cl
ENDBRANCH   9  10
ENDBRANCH   8   9
ENDBRANCH   7   8
ENDBRANCH   1   7
BRANCH   3  17
HETATM   17  C   UNL     1     -43.436  57.853 -56.574  1.00  0.00     0.071 A 
HETATM   18  C   UNL     1     -42.389  58.797 -56.479  1.00  0.00     0.095 A 
HETATM   19  C   UNL     1     -41.978  59.477 -57.631  1.00  0.00     0.041 A 
HETATM   20  C   UNL     1     -42.609  59.242 -58.856  1.00  0.00     0.026 A 
HETATM   21  C   UNL     1     -43.670  58.345 -58.928  1.00  0.00     0.036 A 
HETATM   22 CL   UNL     1     -44.458  58.075 -60.434  1.00  0.00    -0.084 Cl
HETATM   23  C   UNL     1     -44.097  57.661 -57.793  1.00  0.00     0.056 A 
BRANCH  18  24
HETATM   24  O   UNL     1     -41.910  59.066 -55.223  1.00  0.00    -0.354 OA
HETATM   25  C   UNL     1     -42.300  60.293 -54.622  1.00  0.00     0.210 C 
ENDBRANCH  18  24
ENDBRANCH   3  17
TORSDOF 6
ENDMDL
MODEL 10
REMARK VINA RESULT:      -5.6     15.433     16.898
REMARK  6 active torsions:
REMARK  status: ('A' for Active; 'I' for Inactive)
REMARK    1  A    between atoms: N_4  and  C_5 
REMARK    2  A    between atoms: C_5  and  C_6 
REMARK    3  A    between atoms: C_6  and  C_7 
REMARK    4  A    between atoms: C_7  and  N_8 
REMARK       I    between atoms: N_8  and  C_9 
REMARK       I    between atoms: C_9  and  N_10 
REMARK    5  A    between atoms: N_10  and  C_11 
REMARK    6  A    between atoms: C_12  and  O_13 
ROOT
HETATM    1  N   UNL     1     -35.223  42.483 -55.613  1.00  0.00    -0.343 N 
HETATM    2  C   UNL     1     -34.954  41.499 -54.686  1.00  0.00     0.320 C 
HETATM    3  N   UNL     1     -34.799  42.048 -53.428  1.00  0.00    -0.306 N 
HETATM    4  O   UNL     1     -34.810  40.320 -54.985  1.00  0.00    -0.247 OA
HETATM    5  H   UNL     1     -35.764  43.268 -55.266  1.00  0.00     0.164 HD
HETATM    6  H   UNL     1     -34.271  42.908 -53.453  1.00  0.00     0.171 HD
ENDROOT
BRANCH   1   7
HETATM    7  C   UNL     1     -35.387  42.170 -57.017  1.00  0.00     0.126 C 
BRANCH   7   8
HETATM    8  C   UNL     1     -36.840  41.959 -57.452  1.00  0.00     0.041 C 
BRANCH   8   9
HETATM    9  C   UNL     1     -37.056  41.963 -58.962  1.00  0.00     0.152 C 
BRANCH   9  10
HETATM   10  N   UNL     1     -37.561  40.702 -59.468  1.00  0.00    -0.279 N 
HETATM   11  N   UNL     1     -37.309  40.339 -60.744  1.00  0.00    -0.176 NA
HETATM   12  C   UNL     1     -37.934  39.156 -60.866  1.00  0.00     0.074 A 
HETATM   13  C   UNL     1     -37.913  38.425 -62.156  1.00  0.00     0.074 C 
HETATM   14  C   UNL     1     -38.562  38.772 -59.658  1.00  0.00     0.077 A 
HETATM   15  C   UNL     1     -38.299  39.789 -58.774  1.00  0.00     0.138 A 
HETATM   16 CL   UNL     1     -39.448  37.360 -59.370  1.00  0.00    -0.081 Cl
ENDBRANCH   9  10
ENDBRANCH   8   9
ENDBRANCH   7   8
ENDBRANCH   1   7
BRANCH   3  17
HETATM   17  C   UNL     1     -34.695  41.255 -52.262  1.00  0.00     0.071 A 
HETATM   18  C   UNL     1     -35.827  40.781 -51.562  1.00  0.00     0.095 A 
HETATM   19  C   UNL     1     -35.642  39.970 -50.436  1.00  0.00     0.041 A 
HETATM   20  C   UNL     1     -34.354  39.653 -49.995  1.00  0.00     0.026 A 
HETATM   21  C   UNL     1     -33.247  40.165 -50.664  1.00  0.00     0.036 A 
HETATM   22 CL   UNL     1     -31.663  39.789 -50.104  1.00  0.00    -0.084 Cl
HETATM   23  C   UNL     1     -33.409  40.976 -51.784  1.00  0.00     0.056 A 
BRANCH  18  24
HETATM   24  O   UNL     1     -37.050  41.241 -51.979  1.00  0.00    -0.354 OA
HETATM   25  C   UNL     1     -37.993  40.279 -52.428  1.00  0.00     0.210 C 
ENDBRANCH  18  24
ENDBRANCH   3  17
TORSDOF 6
ENDMDL
