MODEL 1
REMARK VINA RESULT:      -8.4      0.000      0.000
REMARK  6 active torsions:
REMARK  status: ('A' for Active; 'I' for Inactive)
REMARK    1  A    between atoms: C_10  and  C_11 
REMARK       I    between atoms: C_11  and  N_12 
REMARK    2  A    between atoms: N_12  and  C_13 
REMARK    3  A    between atoms: C_13  and  C_14 
REMARK    4  A    between atoms: C_14  and  N_15 
REMARK    5  A    between atoms: C_14  and  C_19 
REMARK    6  A    between atoms: C_20  and  O_21 
ROOT
HETATM    1  C   UNL     1     -42.819  56.231 -56.018  1.00  0.00     0.276 C 
HETATM    2  N   UNL     1     -41.723  55.404 -55.847  1.00  0.00    -0.353 N 
HETATM    3  O   UNL     1     -43.834  56.086 -55.344  1.00  0.00    -0.265 OA
HETATM    4  H   UNL     1     -40.991  55.518 -56.544  1.00  0.00     0.162 HD
ENDROOT
BRANCH   2   5
HETATM    5  C   UNL     1     -41.797  54.184 -55.068  1.00  0.00     0.161 C 
BRANCH   5   6
HETATM    6  C   UNL     1     -40.939  54.120 -53.752  1.00  0.00     0.240 C 
BRANCH   6   7
HETATM    7  N   UNL     1     -41.755  54.688 -52.551  1.00  0.00    -0.069 N 
HETATM    8  H   UNL     1     -41.315  54.327 -51.697  1.00  0.00     0.279 HD
HETATM    9  C   UNL     1     -41.652  56.196 -52.478  1.00  0.00     0.270 C 
HETATM   10  C   UNL     1     -43.202  54.280 -52.556  1.00  0.00     0.270 C 
ENDBRANCH   6   7
BRANCH   6  11
HETATM   11  C   UNL     1     -40.443  52.708 -53.448  1.00  0.00     0.007 A 
HETATM   12  C   UNL     1     -39.892  52.407 -52.182  1.00  0.00     0.076 A 
HETATM   13  C   UNL     1     -39.455  51.111 -51.899  1.00  0.00     0.037 A 
HETATM   14  C   UNL     1     -39.559  50.107 -52.861  1.00  0.00     0.003 A 
HETATM   15  C   UNL     1     -40.108  50.387 -54.107  1.00  0.00     0.001 A 
HETATM   16  C   UNL     1     -40.553  51.676 -54.400  1.00  0.00     0.012 A 
BRANCH  12  17
HETATM   17  O   UNL     1     -39.889  53.431 -51.270  1.00  0.00    -0.355 OA
HETATM   18  C   UNL     1     -40.211  53.098 -49.922  1.00  0.00     0.210 C 
ENDBRANCH  12  17
ENDBRANCH   6  11
ENDBRANCH   5   6
ENDBRANCH   2   5
BRANCH   1  19
HETATM   19  C   UNL     1     -42.648  57.220 -57.061  1.00  0.00     0.150 A 
HETATM   20  O   UNL     1     -42.235  58.475 -56.695  1.00  0.00    -0.304 OA
HETATM   21  C   UNL     1     -42.064  59.195 -57.834  1.00  0.00     0.087 A 
HETATM   22  C   UNL     1     -41.603  60.507 -57.895  1.00  0.00     0.045 A 
HETATM   23  C   UNL     1     -42.402  58.433 -58.941  1.00  0.00     0.007 A 
HETATM   24  C   UNL     1     -41.467  61.086 -59.171  1.00  0.00    -0.053 A 
HETATM   25  C   UNL     1     -41.842  60.362 -60.325  1.00  0.00    -0.055 A 
HETATM   26  C   UNL     1     -40.953  62.500 -59.264  1.00  0.00     0.049 C 
HETATM   27  C   UNL     1     -41.720  60.963 -61.703  1.00  0.00     0.049 C 
HETATM   28  C   UNL     1     -42.294  59.029 -60.211  1.00  0.00     0.022 A 
HETATM   29  C   UNL     1     -42.785  57.149 -58.441  1.00  0.00    -0.009 A 
HETATM   30  C   UNL     1     -43.219  55.975 -59.240  1.00  0.00     0.052 C 
ENDBRANCH   1  19
TORSDOF 6
ENDMDL
MODEL 2
REMARK VINA RESULT:      -8.3      2.062      8.824
REMARK  6 active torsions:
REMARK  status: ('A' for Active; 'I' for Inactive)
REMARK    1  A    between atoms: C_10  and  C_11 
REMARK       I    between atoms: C_11  and  N_12 
REMARK    2  A    between atoms: N_12  and  C_13 
REMARK    3  A    between atoms: C_13  and  C_14 
REMARK    4  A    between atoms: C_14  and  N_15 
REMARK    5  A    between atoms: C_14  and  C_19 
REMARK    6  A    between atoms: C_20  and  O_21 
ROOT
HETATM    1  C   UNL     1     -41.420  56.822 -53.852  1.00  0.00     0.276 C 
HETATM    2  N   UNL     1     -42.419  56.878 -54.807  1.00  0.00    -0.353 N 
HETATM    3  O   UNL     1     -40.863  57.842 -53.457  1.00  0.00    -0.265 OA
HETATM    4  H   UNL     1     -42.718  55.973 -55.164  1.00  0.00     0.162 HD
ENDROOT
BRANCH   2   5
HETATM    5  C   UNL     1     -42.682  58.079 -55.573  1.00  0.00     0.161 C 
BRANCH   5   6
HETATM    6  C   UNL     1     -43.700  57.961 -56.766  1.00  0.00     0.240 C 
BRANCH   6   7
HETATM    7  N   UNL     1     -44.900  58.932 -56.545  1.00  0.00    -0.069 N 
HETATM    8  H   UNL     1     -44.673  59.802 -57.041  1.00  0.00     0.279 HD
HETATM    9  C   UNL     1     -46.166  58.398 -57.179  1.00  0.00     0.270 C 
HETATM   10  C   UNL     1     -45.158  59.257 -55.101  1.00  0.00     0.270 C 
ENDBRANCH   6   7
BRANCH   6  11
HETATM   11  C   UNL     1     -43.043  58.214 -58.120  1.00  0.00     0.007 A 
HETATM   12  C   UNL     1     -42.758  57.133 -58.984  1.00  0.00     0.076 A 
HETATM   13  C   UNL     1     -42.173  57.368 -60.231  1.00  0.00     0.037 A 
HETATM   14  C   UNL     1     -41.867  58.668 -60.631  1.00  0.00     0.003 A 
HETATM   15  C   UNL     1     -42.151  59.742 -59.796  1.00  0.00     0.001 A 
HETATM   16  C   UNL     1     -42.741  59.521 -58.551  1.00  0.00     0.012 A 
BRANCH  12  17
HETATM   17  O   UNL     1     -43.152  55.895 -58.545  1.00  0.00    -0.355 OA
HETATM   18  C   UNL     1     -44.001  55.143 -59.409  1.00  0.00     0.210 C 
ENDBRANCH  12  17
ENDBRANCH   6  11
ENDBRANCH   5   6
ENDBRANCH   2   5
BRANCH   1  19
HETATM   19  C   UNL     1     -41.100  55.479 -53.417  1.00  0.00     0.150 A 
HETATM   20  O   UNL     1     -40.886  54.527 -54.379  1.00  0.00    -0.304 OA
HETATM   21  C   UNL     1     -40.521  53.382 -53.745  1.00  0.00     0.087 A 
HETATM   22  C   UNL     1     -40.169  52.191 -54.373  1.00  0.00     0.045 A 
HETATM   23  C   UNL     1     -40.534  53.567 -52.372  1.00  0.00     0.007 A 
HETATM   24  C   UNL     1     -39.794  51.112 -53.549  1.00  0.00    -0.053 A 
HETATM   25  C   UNL     1     -39.836  51.242 -52.143  1.00  0.00    -0.055 A 
HETATM   26  C   UNL     1     -39.391  49.817 -54.207  1.00  0.00     0.049 C 
HETATM   27  C   UNL     1     -39.454  50.098 -51.238  1.00  0.00     0.049 C 
HETATM   28  C   UNL     1     -40.190  52.475 -51.554  1.00  0.00     0.022 A 
HETATM   29  C   UNL     1     -40.913  54.929 -52.155  1.00  0.00    -0.009 A 
HETATM   30  C   UNL     1     -41.055  55.618 -50.847  1.00  0.00     0.052 C 
ENDBRANCH   1  19
TORSDOF 6
ENDMDL
MODEL 3
REMARK VINA RESULT:      -8.3      2.034      8.700
REMARK  6 active torsions:
REMARK  status: ('A' for Active; 'I' for Inactive)
REMARK    1  A    between atoms: C_10  and  C_11 
REMARK       I    between atoms: C_11  and  N_12 
REMARK    2  A    between atoms: N_12  and  C_13 
REMARK    3  A    between atoms: C_13  and  C_14 
REMARK    4  A    between atoms: C_14  and  N_15 
REMARK    5  A    between atoms: C_14  and  C_19 
REMARK    6  A    between atoms: C_20  and  O_21 
ROOT
HETATM    1  C   UNL     1     -41.460  56.788 -53.580  1.00  0.00     0.276 C 
HETATM    2  N   UNL     1     -42.479  56.868 -54.512  1.00  0.00    -0.353 N 
HETATM    3  O   UNL     1     -40.901  57.799 -53.164  1.00  0.00    -0.265 OA
HETATM    4  H   UNL     1     -42.779  55.973 -54.892  1.00  0.00     0.162 HD
ENDROOT
BRANCH   2   5
HETATM    5  C   UNL     1     -42.767  58.092 -55.231  1.00  0.00     0.161 C 
BRANCH   5   6
HETATM    6  C   UNL     1     -43.836  58.013 -56.382  1.00  0.00     0.240 C 
BRANCH   6   7
HETATM    7  N   UNL     1     -44.533  59.396 -56.563  1.00  0.00    -0.069 N 
HETATM    8  H   UNL     1     -43.916  59.964 -57.155  1.00  0.00     0.279 HD
HETATM    9  C   UNL     1     -45.840  59.262 -57.313  1.00  0.00     0.270 C 
HETATM   10  C   UNL     1     -44.766  60.130 -55.272  1.00  0.00     0.270 C 
ENDBRANCH   6   7
BRANCH   6  11
HETATM   11  C   UNL     1     -43.237  57.534 -57.703  1.00  0.00     0.007 A 
HETATM   12  C   UNL     1     -42.351  58.366 -58.423  1.00  0.00     0.076 A 
HETATM   13  C   UNL     1     -41.790  57.919 -59.622  1.00  0.00     0.037 A 
HETATM   14  C   UNL     1     -42.100  56.652 -60.115  1.00  0.00     0.003 A 
HETATM   15  C   UNL     1     -42.963  55.819 -59.412  1.00  0.00     0.001 A 
HETATM   16  C   UNL     1     -43.525  56.252 -58.210  1.00  0.00     0.012 A 
BRANCH  12  17
HETATM   17  O   UNL     1     -42.044  59.567 -57.837  1.00  0.00    -0.355 OA
HETATM   18  C   UNL     1     -41.895  60.689 -58.703  1.00  0.00     0.210 C 
ENDBRANCH  12  17
ENDBRANCH   6  11
ENDBRANCH   5   6
ENDBRANCH   2   5
BRANCH   1  19
HETATM   19  C   UNL     1     -41.121  55.434 -53.197  1.00  0.00     0.150 A 
HETATM   20  O   UNL     1     -40.928  54.515 -54.195  1.00  0.00    -0.304 OA
HETATM   21  C   UNL     1     -40.539  53.352 -53.607  1.00  0.00     0.087 A 
HETATM   22  C   UNL     1     -40.197  52.184 -54.282  1.00  0.00     0.045 A 
HETATM   23  C   UNL     1     -40.518  53.494 -52.229  1.00  0.00     0.007 A 
HETATM   24  C   UNL     1     -39.796  51.082 -53.503  1.00  0.00    -0.053 A 
HETATM   25  C   UNL     1     -39.801  51.166 -52.093  1.00  0.00    -0.055 A 
HETATM   26  C   UNL     1     -39.403  49.811 -54.212  1.00  0.00     0.049 C 
HETATM   27  C   UNL     1     -39.390  49.997 -51.235  1.00  0.00     0.049 C 
HETATM   28  C   UNL     1     -40.146  52.379 -51.456  1.00  0.00     0.022 A 
HETATM   29  C   UNL     1     -40.898  54.846 -51.959  1.00  0.00    -0.009 A 
HETATM   30  C   UNL     1     -41.009  55.492 -50.626  1.00  0.00     0.052 C 
ENDBRANCH   1  19
TORSDOF 6
ENDMDL
MODEL 4
REMARK VINA RESULT:      -8.2      2.262      8.892
REMARK  6 active torsions:
REMARK  status: ('A' for Active; 'I' for Inactive)
REMARK    1  A    between atoms: C_10  and  C_11 
REMARK       I    between atoms: C_11  and  N_12 
REMARK    2  A    between atoms: N_12  and  C_13 
REMARK    3  A    between atoms: C_13  and  C_14 
REMARK    4  A    between atoms: C_14  and  N_15 
REMARK    5  A    between atoms: C_14  and  C_19 
REMARK    6  A    between atoms: C_20  and  O_21 
ROOT
HETATM    1  C   UNL     1     -41.860  56.710 -55.097  1.00  0.00     0.276 C 
HETATM    2  N   UNL     1     -42.205  56.512 -56.422  1.00  0.00    -0.353 N 
HETATM    3  O   UNL     1     -41.878  57.831 -54.598  1.00  0.00    -0.265 OA
HETATM    4  H   UNL     1     -42.026  55.574 -56.773  1.00  0.00     0.162 HD
ENDROOT
BRANCH   2   5
HETATM    5  C   UNL     1     -42.351  57.615 -57.350  1.00  0.00     0.161 C 
BRANCH   5   6
HETATM    6  C   UNL     1     -43.815  58.059 -57.713  1.00  0.00     0.240 C 
BRANCH   6   7
HETATM    7  N   UNL     1     -43.819  59.534 -58.219  1.00  0.00    -0.069 N 
HETATM    8  H   UNL     1     -44.751  59.710 -58.612  1.00  0.00     0.279 HD
HETATM    9  C   UNL     1     -43.647  60.509 -57.075  1.00  0.00     0.270 C 
HETATM   10  C   UNL     1     -42.791  59.813 -59.280  1.00  0.00     0.270 C 
ENDBRANCH   6   7
BRANCH   6  11
HETATM   11  C   UNL     1     -44.467  57.135 -58.739  1.00  0.00     0.007 A 
HETATM   12  C   UNL     1     -45.832  57.290 -59.068  1.00  0.00     0.076 A 
HETATM   13  C   UNL     1     -46.423  56.455 -60.020  1.00  0.00     0.037 A 
HETATM   14  C   UNL     1     -45.670  55.466 -60.652  1.00  0.00     0.003 A 
HETATM   15  C   UNL     1     -44.323  55.309 -60.346  1.00  0.00     0.001 A 
HETATM   16  C   UNL     1     -43.721  56.140 -59.401  1.00  0.00     0.012 A 
BRANCH  12  17
HETATM   17  O   UNL     1     -46.483  58.329 -58.453  1.00  0.00    -0.355 OA
HETATM   18  C   UNL     1     -47.194  59.234 -59.294  1.00  0.00     0.210 C 
ENDBRANCH  12  17
ENDBRANCH   6  11
ENDBRANCH   5   6
ENDBRANCH   2   5
BRANCH   1  19
HETATM   19  C   UNL     1     -41.461  55.500 -54.409  1.00  0.00     0.150 A 
HETATM   20  O   UNL     1     -41.203  54.387 -55.166  1.00  0.00    -0.304 OA
HETATM   21  C   UNL     1     -40.769  53.414 -54.322  1.00  0.00     0.087 A 
HETATM   22  C   UNL     1     -40.356  52.141 -54.706  1.00  0.00     0.045 A 
HETATM   23  C   UNL     1     -40.781  53.870 -53.014  1.00  0.00     0.007 A 
HETATM   24  C   UNL     1     -39.915  51.271 -53.691  1.00  0.00    -0.053 A 
HETATM   25  C   UNL     1     -39.952  51.678 -52.339  1.00  0.00    -0.055 A 
HETATM   26  C   UNL     1     -39.446  49.893 -54.085  1.00  0.00     0.049 C 
HETATM   27  C   UNL     1     -39.499  50.761 -51.231  1.00  0.00     0.049 C 
HETATM   28  C   UNL     1     -40.369  52.984 -52.001  1.00  0.00     0.022 A 
HETATM   29  C   UNL     1     -41.234  55.226 -53.067  1.00  0.00    -0.009 A 
HETATM   30  C   UNL     1     -41.402  56.154 -51.920  1.00  0.00     0.052 C 
ENDBRANCH   1  19
TORSDOF 6
ENDMDL
MODEL 5
REMARK VINA RESULT:      -7.5      4.284      8.992
REMARK  6 active torsions:
REMARK  status: ('A' for Active; 'I' for Inactive)
REMARK    1  A    between atoms: C_10  and  C_11 
REMARK       I    between atoms: C_11  and  N_12 
REMARK    2  A    between atoms: N_12  and  C_13 
REMARK    3  A    between atoms: C_13  and  C_14 
REMARK    4  A    between atoms: C_14  and  N_15 
REMARK    5  A    between atoms: C_14  and  C_19 
REMARK    6  A    between atoms: C_20  and  O_21 
ROOT
HETATM    1  C   UNL     1     -42.083  56.763 -53.262  1.00  0.00     0.276 C 
HETATM    2  N   UNL     1     -43.275  56.801 -52.562  1.00  0.00    -0.353 N 
HETATM    3  O   UNL     1     -41.614  57.777 -53.771  1.00  0.00    -0.265 OA
HETATM    4  H   UNL     1     -43.645  55.890 -52.300  1.00  0.00     0.162 HD
ENDROOT
BRANCH   2   5
HETATM    5  C   UNL     1     -44.154  57.952 -52.605  1.00  0.00     0.161 C 
BRANCH   5   6
HETATM    6  C   UNL     1     -43.890  59.097 -51.560  1.00  0.00     0.240 C 
BRANCH   6   7
HETATM    7  N   UNL     1     -42.501  59.756 -51.825  1.00  0.00    -0.069 N 
HETATM    8  H   UNL     1     -41.981  59.116 -52.436  1.00  0.00     0.279 HD
HETATM    9  C   UNL     1     -42.643  61.054 -52.589  1.00  0.00     0.270 C 
HETATM   10  C   UNL     1     -41.695  59.989 -50.579  1.00  0.00     0.270 C 
ENDBRANCH   6   7
BRANCH   6  11
HETATM   11  C   UNL     1     -44.995  60.151 -51.557  1.00  0.00     0.007 A 
HETATM   12  C   UNL     1     -45.236  60.923 -50.399  1.00  0.00     0.076 A 
HETATM   13  C   UNL     1     -46.236  61.899 -50.404  1.00  0.00     0.037 A 
HETATM   14  C   UNL     1     -47.001  62.118 -51.549  1.00  0.00     0.003 A 
HETATM   15  C   UNL     1     -46.767  61.372 -52.699  1.00  0.00     0.001 A 
HETATM   16  C   UNL     1     -45.768  60.399 -52.709  1.00  0.00     0.012 A 
BRANCH  12  17
HETATM   17  O   UNL     1     -44.397  60.694 -49.340  1.00  0.00    -0.355 OA
HETATM   18  C   UNL     1     -44.680  61.389 -48.128  1.00  0.00     0.210 C 
ENDBRANCH  12  17
ENDBRANCH   6  11
ENDBRANCH   5   6
ENDBRANCH   2   5
BRANCH   1  19
HETATM   19  C   UNL     1     -41.498  55.441 -53.351  1.00  0.00     0.150 A 
HETATM   20  O   UNL     1     -41.072  54.850 -52.190  1.00  0.00    -0.304 OA
HETATM   21  C   UNL     1     -40.646  53.598 -52.505  1.00  0.00     0.087 A 
HETATM   22  C   UNL     1     -40.180  52.654 -51.594  1.00  0.00     0.045 A 
HETATM   23  C   UNL     1     -40.751  53.383 -53.870  1.00  0.00     0.007 A 
HETATM   24  C   UNL     1     -39.802  51.397 -52.104  1.00  0.00    -0.053 A 
HETATM   25  C   UNL     1     -39.850  51.148 -53.493  1.00  0.00    -0.055 A 
HETATM   26  C   UNL     1     -39.311  50.351 -51.135  1.00  0.00     0.049 C 
HETATM   27  C   UNL     1     -39.436  49.816 -54.067  1.00  0.00     0.049 C 
HETATM   28  C   UNL     1     -40.340  52.136 -54.375  1.00  0.00     0.022 A 
HETATM   29  C   UNL     1     -41.302  54.581 -54.423  1.00  0.00    -0.009 A 
HETATM   30  C   UNL     1     -41.620  54.840 -55.850  1.00  0.00     0.052 C 
ENDBRANCH   1  19
TORSDOF 6
ENDMDL
MODEL 6
REMARK VINA RESULT:      -7.5      2.380      8.482
REMARK  6 active torsions:
REMARK  status: ('A' for Active; 'I' for Inactive)
REMARK    1  A    between atoms: C_10  and  C_11 
REMARK       I    between atoms: C_11  and  N_12 
REMARK    2  A    between atoms: N_12  and  C_13 
REMARK    3  A    between atoms: C_13  and  C_14 
REMARK    4  A    between atoms: C_14  and  N_15 
REMARK    5  A    between atoms: C_14  and  C_19 
REMARK    6  A    between atoms: C_20  and  O_21 
ROOT
HETATM    1  C   UNL     1     -43.306  56.797 -52.784  1.00  0.00     0.276 C 
HETATM    2  N   UNL     1     -44.008  56.857 -53.974  1.00  0.00    -0.353 N 
HETATM    3  O   UNL     1     -43.315  57.738 -51.995  1.00  0.00    -0.265 OA
HETATM    4  H   UNL     1     -43.825  56.088 -54.615  1.00  0.00     0.162 HD
ENDROOT
BRANCH   2   5
HETATM    5  C   UNL     1     -44.567  58.097 -54.474  1.00  0.00     0.161 C 
BRANCH   5   6
HETATM    6  C   UNL     1     -43.961  58.672 -55.806  1.00  0.00     0.240 C 
BRANCH   6   7
HETATM    7  N   UNL     1     -42.530  59.234 -55.547  1.00  0.00    -0.069 N 
HETATM    8  H   UNL     1     -41.917  58.425 -55.398  1.00  0.00     0.279 HD
HETATM    9  C   UNL     1     -41.994  59.960 -56.761  1.00  0.00     0.270 C 
HETATM   10  C   UNL     1     -42.441  60.131 -54.343  1.00  0.00     0.270 C 
ENDBRANCH   6   7
BRANCH   6  11
HETATM   11  C   UNL     1     -43.940  57.640 -56.931  1.00  0.00     0.007 A 
HETATM   12  C   UNL     1     -44.830  57.760 -58.022  1.00  0.00     0.076 A 
HETATM   13  C   UNL     1     -44.797  56.825 -59.059  1.00  0.00     0.037 A 
HETATM   14  C   UNL     1     -43.887  55.768 -59.026  1.00  0.00     0.003 A 
HETATM   15  C   UNL     1     -42.999  55.644 -57.964  1.00  0.00     0.001 A 
HETATM   16  C   UNL     1     -43.018  56.575 -56.925  1.00  0.00     0.012 A 
BRANCH  12  17
HETATM   17  O   UNL     1     -45.645  58.863 -58.012  1.00  0.00    -0.355 OA
HETATM   18  C   UNL     1     -47.048  58.630 -57.915  1.00  0.00     0.210 C 
ENDBRANCH  12  17
ENDBRANCH   6  11
ENDBRANCH   5   6
ENDBRANCH   2   5
BRANCH   1  19
HETATM   19  C   UNL     1     -42.567  55.566 -52.601  1.00  0.00     0.150 A 
HETATM   20  O   UNL     1     -42.369  54.768 -53.697  1.00  0.00    -0.304 OA
HETATM   21  C   UNL     1     -41.588  53.727 -53.306  1.00  0.00     0.087 A 
HETATM   22  C   UNL     1     -41.118  52.716 -54.140  1.00  0.00     0.045 A 
HETATM   23  C   UNL     1     -41.308  53.817 -51.952  1.00  0.00     0.007 A 
HETATM   24  C   UNL     1     -40.298  51.729 -53.560  1.00  0.00    -0.053 A 
HETATM   25  C   UNL     1     -40.022  51.756 -52.175  1.00  0.00    -0.055 A 
HETATM   26  C   UNL     1     -39.762  50.633 -54.446  1.00  0.00     0.049 C 
HETATM   27  C   UNL     1     -39.159  50.704 -51.525  1.00  0.00     0.049 C 
HETATM   28  C   UNL     1     -40.514  52.810 -51.373  1.00  0.00     0.022 A 
HETATM   29  C   UNL     1     -41.946  55.011 -51.490  1.00  0.00    -0.009 A 
HETATM   30  C   UNL     1     -41.926  55.554 -50.108  1.00  0.00     0.052 C 
ENDBRANCH   1  19
TORSDOF 6
ENDMDL
MODEL 7
REMARK VINA RESULT:      -7.5      2.225      9.035
REMARK  6 active torsions:
REMARK  status: ('A' for Active; 'I' for Inactive)
REMARK    1  A    between atoms: C_10  and  C_11 
REMARK       I    between atoms: C_11  and  N_12 
REMARK    2  A    between atoms: N_12  and  C_13 
REMARK    3  A    between atoms: C_13  and  C_14 
REMARK    4  A    between atoms: C_14  and  N_15 
REMARK    5  A    between atoms: C_14  and  C_19 
REMARK    6  A    between atoms: C_20  and  O_21 
ROOT
HETATM    1  C   UNL     1     -41.945  58.156 -54.389  1.00  0.00     0.276 C 
HETATM    2  N   UNL     1     -43.249  58.257 -54.838  1.00  0.00    -0.353 N 
HETATM    3  O   UNL     1     -41.171  59.106 -54.470  1.00  0.00    -0.265 OA
HETATM    4  H   UNL     1     -43.763  57.379 -54.852  1.00  0.00     0.162 HD
ENDROOT
BRANCH   2   5
HETATM    5  C   UNL     1     -43.698  59.371 -55.648  1.00  0.00     0.161 C 
BRANCH   5   6
HETATM    6  C   UNL     1     -43.822  59.128 -57.196  1.00  0.00     0.240 C 
BRANCH   6   7
HETATM    7  N   UNL     1     -45.292  59.363 -57.661  1.00  0.00    -0.069 N 
HETATM    8  H   UNL     1     -45.307  59.226 -58.678  1.00  0.00     0.279 HD
HETATM    9  C   UNL     1     -46.227  58.326 -57.077  1.00  0.00     0.270 C 
HETATM   10  C   UNL     1     -45.811  60.740 -57.354  1.00  0.00     0.270 C 
ENDBRANCH   6   7
BRANCH   6  11
HETATM   11  C   UNL     1     -42.857  59.995 -58.002  1.00  0.00     0.007 A 
HETATM   12  C   UNL     1     -42.739  59.816 -59.398  1.00  0.00     0.076 A 
HETATM   13  C   UNL     1     -41.869  60.622 -60.136  1.00  0.00     0.037 A 
HETATM   14  C   UNL     1     -41.112  61.607 -59.502  1.00  0.00     0.003 A 
HETATM   15  C   UNL     1     -41.226  61.800 -58.130  1.00  0.00     0.001 A 
HETATM   16  C   UNL     1     -42.096  61.006 -57.383  1.00  0.00     0.012 A 
BRANCH  12  17
HETATM   17  O   UNL     1     -43.567  58.875 -59.955  1.00  0.00    -0.355 OA
HETATM   18  C   UNL     1     -42.967  57.648 -60.365  1.00  0.00     0.210 C 
ENDBRANCH  12  17
ENDBRANCH   6  11
ENDBRANCH   5   6
ENDBRANCH   2   5
BRANCH   1  19
HETATM   19  C   UNL     1     -41.603  56.849 -53.868  1.00  0.00     0.150 A 
HETATM   20  O   UNL     1     -41.441  55.824 -54.764  1.00  0.00    -0.304 OA
HETATM   21  C   UNL     1     -41.044  54.730 -54.062  1.00  0.00     0.087 A 
HETATM   22  C   UNL     1     -40.727  53.492 -54.613  1.00  0.00     0.045 A 
HETATM   23  C   UNL     1     -40.986  55.022 -52.708  1.00  0.00     0.007 A 
HETATM   24  C   UNL     1     -40.311  52.479 -53.729  1.00  0.00    -0.053 A 
HETATM   25  C   UNL     1     -40.279  52.717 -52.337  1.00  0.00    -0.055 A 
HETATM   26  C   UNL     1     -39.944  51.134 -54.304  1.00  0.00     0.049 C 
HETATM   27  C   UNL     1     -39.852  51.645 -51.366  1.00  0.00     0.049 C 
HETATM   28  C   UNL     1     -40.601  53.995 -51.827  1.00  0.00     0.022 A 
HETATM   29  C   UNL     1     -41.352  56.398 -52.579  1.00  0.00    -0.009 A 
HETATM   30  C   UNL     1     -41.424  57.187 -51.323  1.00  0.00     0.052 C 
ENDBRANCH   1  19
TORSDOF 6
ENDMDL
MODEL 8
REMARK VINA RESULT:      -7.2      2.271      8.414
REMARK  6 active torsions:
REMARK  status: ('A' for Active; 'I' for Inactive)
REMARK    1  A    between atoms: C_10  and  C_11 
REMARK       I    between atoms: C_11  and  N_12 
REMARK    2  A    between atoms: N_12  and  C_13 
REMARK    3  A    between atoms: C_13  and  C_14 
REMARK    4  A    between atoms: C_14  and  N_15 
REMARK    5  A    between atoms: C_14  and  C_19 
REMARK    6  A    between atoms: C_20  and  O_21 
ROOT
HETATM    1  C   UNL     1     -43.220  57.419 -54.423  1.00  0.00     0.276 C 
HETATM    2  N   UNL     1     -43.114  57.999 -55.673  1.00  0.00    -0.353 N 
HETATM    3  O   UNL     1     -43.861  57.959 -53.526  1.00  0.00    -0.265 OA
HETATM    4  H   UNL     1     -42.452  57.544 -56.299  1.00  0.00     0.162 HD
ENDROOT
BRANCH   2   5
HETATM    5  C   UNL     1     -43.520  59.367 -55.922  1.00  0.00     0.161 C 
BRANCH   5   6
HETATM    6  C   UNL     1     -43.918  59.741 -57.397  1.00  0.00     0.240 C 
BRANCH   6   7
HETATM    7  N   UNL     1     -43.316  61.127 -57.780  1.00  0.00    -0.069 N 
HETATM    8  H   UNL     1     -42.463  60.941 -58.320  1.00  0.00     0.279 HD
HETATM    9  C   UNL     1     -44.242  61.897 -58.696  1.00  0.00     0.270 C 
HETATM   10  C   UNL     1     -42.956  61.979 -56.595  1.00  0.00     0.270 C 
ENDBRANCH   6   7
BRANCH   6  11
HETATM   11  C   UNL     1     -43.496  58.673 -58.404  1.00  0.00     0.007 A 
HETATM   12  C   UNL     1     -44.424  57.697 -58.833  1.00  0.00     0.076 A 
HETATM   13  C   UNL     1     -44.041  56.732 -59.768  1.00  0.00     0.037 A 
HETATM   14  C   UNL     1     -42.745  56.724 -60.283  1.00  0.00     0.003 A 
HETATM   15  C   UNL     1     -41.826  57.684 -59.876  1.00  0.00     0.001 A 
HETATM   16  C   UNL     1     -42.197  58.657 -58.948  1.00  0.00     0.012 A 
BRANCH  12  17
HETATM   17  O   UNL     1     -45.694  57.816 -58.332  1.00  0.00    -0.355 OA
HETATM   18  C   UNL     1     -46.757  57.319 -59.143  1.00  0.00     0.210 C 
ENDBRANCH  12  17
ENDBRANCH   6  11
ENDBRANCH   5   6
ENDBRANCH   2   5
BRANCH   1  19
HETATM   19  C   UNL     1     -42.491  56.175 -54.290  1.00  0.00     0.150 A 
HETATM   20  O   UNL     1     -41.945  55.879 -53.068  1.00  0.00    -0.304 OA
HETATM   21  C   UNL     1     -41.392  54.641 -53.159  1.00  0.00     0.087 A 
HETATM   22  C   UNL     1     -40.778  53.955 -52.115  1.00  0.00     0.045 A 
HETATM   23  C   UNL     1     -41.537  54.142 -54.444  1.00  0.00     0.007 A 
HETATM   24  C   UNL     1     -40.282  52.667 -52.392  1.00  0.00    -0.053 A 
HETATM   25  C   UNL     1     -40.367  52.136 -53.698  1.00  0.00    -0.055 A 
HETATM   26  C   UNL     1     -39.627  51.897 -51.273  1.00  0.00     0.049 C 
HETATM   27  C   UNL     1     -39.831  50.765 -54.025  1.00  0.00     0.049 C 
HETATM   28  C   UNL     1     -41.011  52.867 -54.721  1.00  0.00     0.022 A 
HETATM   29  C   UNL     1     -42.249  55.139 -55.182  1.00  0.00    -0.009 A 
HETATM   30  C   UNL     1     -42.663  55.067 -56.606  1.00  0.00     0.052 C 
ENDBRANCH   1  19
TORSDOF 6
ENDMDL
MODEL 9
REMARK VINA RESULT:      -7.2      3.682      8.578
REMARK  6 active torsions:
REMARK  status: ('A' for Active; 'I' for Inactive)
REMARK    1  A    between atoms: C_10  and  C_11 
REMARK       I    between atoms: C_11  and  N_12 
REMARK    2  A    between atoms: N_12  and  C_13 
REMARK    3  A    between atoms: C_13  and  C_14 
REMARK    4  A    between atoms: C_14  and  N_15 
REMARK    5  A    between atoms: C_14  and  C_19 
REMARK    6  A    between atoms: C_20  and  O_21 
ROOT
HETATM    1  C   UNL     1     -41.836  56.314 -54.040  1.00  0.00     0.276 C 
HETATM    2  N   UNL     1     -42.927  56.838 -53.371  1.00  0.00    -0.353 N 
HETATM    3  O   UNL     1     -41.333  56.904 -54.992  1.00  0.00    -0.265 OA
HETATM    4  H   UNL     1     -43.351  56.211 -52.691  1.00  0.00     0.162 HD
ENDROOT
BRANCH   2   5
HETATM    5  C   UNL     1     -43.688  57.953 -53.897  1.00  0.00     0.161 C 
BRANCH   5   6
HETATM    6  C   UNL     1     -43.045  59.382 -53.776  1.00  0.00     0.240 C 
BRANCH   6   7
HETATM    7  N   UNL     1     -44.144  60.479 -53.924  1.00  0.00    -0.069 N 
HETATM    8  H   UNL     1     -44.487  60.684 -52.979  1.00  0.00     0.279 HD
HETATM    9  C   UNL     1     -43.564  61.771 -54.458  1.00  0.00     0.270 C 
HETATM   10  C   UNL     1     -45.308  60.058 -54.776  1.00  0.00     0.270 C 
ENDBRANCH   6   7
BRANCH   6  11
HETATM   11  C   UNL     1     -42.272  59.565 -52.472  1.00  0.00     0.007 A 
HETATM   12  C   UNL     1     -42.950  59.950 -51.294  1.00  0.00     0.076 A 
HETATM   13  C   UNL     1     -42.243  60.099 -50.097  1.00  0.00     0.037 A 
HETATM   14  C   UNL     1     -40.868  59.872 -50.058  1.00  0.00     0.003 A 
HETATM   15  C   UNL     1     -40.191  59.483 -51.209  1.00  0.00     0.001 A 
HETATM   16  C   UNL     1     -40.886  59.324 -52.408  1.00  0.00     0.012 A 
BRANCH  12  17
HETATM   17  O   UNL     1     -44.309  60.087 -51.401  1.00  0.00    -0.355 OA
HETATM   18  C   UNL     1     -45.031  60.330 -50.196  1.00  0.00     0.210 C 
ENDBRANCH  12  17
ENDBRANCH   6  11
ENDBRANCH   5   6
ENDBRANCH   2   5
BRANCH   1  19
HETATM   19  C   UNL     1     -41.398  55.031 -53.532  1.00  0.00     0.150 A 
HETATM   20  O   UNL     1     -41.202  54.017 -54.433  1.00  0.00    -0.304 OA
HETATM   21  C   UNL     1     -40.716  52.951 -53.746  1.00  0.00     0.087 A 
HETATM   22  C   UNL     1     -40.341  51.734 -54.309  1.00  0.00     0.045 A 
HETATM   23  C   UNL     1     -40.631  53.247 -52.395  1.00  0.00     0.007 A 
HETATM   24  C   UNL     1     -39.834  50.749 -53.440  1.00  0.00    -0.053 A 
HETATM   25  C   UNL     1     -39.771  50.990 -52.049  1.00  0.00    -0.055 A 
HETATM   26  C   UNL     1     -39.404  49.429 -54.028  1.00  0.00     0.049 C 
HETATM   27  C   UNL     1     -39.248  49.948 -51.094  1.00  0.00     0.049 C 
HETATM   28  C   UNL     1     -40.154  52.246 -51.528  1.00  0.00     0.022 A 
HETATM   29  C   UNL     1     -41.076  54.598 -52.252  1.00  0.00    -0.009 A 
HETATM   30  C   UNL     1     -41.156  55.382 -50.994  1.00  0.00     0.052 C 
ENDBRANCH   1  19
TORSDOF 6
ENDMDL
MODEL 10
REMARK VINA RESULT:      -7.2      2.817      8.508
REMARK  6 active torsions:
REMARK  status: ('A' for Active; 'I' for Inactive)
REMARK    1  A    between atoms: C_10  and  C_11 
REMARK       I    between atoms: C_11  and  N_12 
REMARK    2  A    between atoms: N_12  and  C_13 
REMARK    3  A    between atoms: C_13  and  C_14 
REMARK    4  A    between atoms: C_14  and  N_15 
REMARK    5  A    between atoms: C_14  and  C_19 
REMARK    6  A    between atoms: C_20  and  O_21 
ROOT
HETATM    1  C   UNL     1     -43.521  56.288 -53.916  1.00  0.00     0.276 C 
HETATM    2  N   UNL     1     -43.132  56.803 -55.139  1.00  0.00    -0.353 N 
HETATM    3  O   UNL     1     -44.446  56.788 -53.283  1.00  0.00    -0.265 OA
HETATM    4  H   UNL     1     -42.273  56.406 -55.515  1.00  0.00     0.162 HD
ENDROOT
BRANCH   2   5
HETATM    5  C   UNL     1     -43.602  58.089 -55.615  1.00  0.00     0.161 C 
BRANCH   5   6
HETATM    6  C   UNL     1     -42.610  59.303 -55.501  1.00  0.00     0.240 C 
BRANCH   6   7
HETATM    7  N   UNL     1     -42.775  60.248 -56.730  1.00  0.00    -0.069 N 
HETATM    8  H   UNL     1     -42.970  61.185 -56.360  1.00  0.00     0.279 HD
HETATM    9  C   UNL     1     -41.486  60.361 -57.516  1.00  0.00     0.270 C 
HETATM   10  C   UNL     1     -43.895  59.853 -57.651  1.00  0.00     0.270 C 
ENDBRANCH   6   7
BRANCH   6  11
HETATM   11  C   UNL     1     -42.784  60.079 -54.197  1.00  0.00     0.007 A 
HETATM   12  C   UNL     1     -42.109  59.662 -53.028  1.00  0.00     0.076 A 
HETATM   13  C   UNL     1     -42.256  60.383 -51.840  1.00  0.00     0.037 A 
HETATM   14  C   UNL     1     -43.068  61.516 -51.800  1.00  0.00     0.003 A 
HETATM   15  C   UNL     1     -43.730  61.943 -52.946  1.00  0.00     0.001 A 
HETATM   16  C   UNL     1     -43.587  61.235 -54.139  1.00  0.00     0.012 A 
BRANCH  12  17
HETATM   17  O   UNL     1     -41.278  58.581 -53.168  1.00  0.00    -0.355 OA
HETATM   18  C   UNL     1     -39.905  58.773 -52.834  1.00  0.00     0.210 C 
ENDBRANCH  12  17
ENDBRANCH   6  11
ENDBRANCH   5   6
ENDBRANCH   2   5
BRANCH   1  19
HETATM   19  C   UNL     1     -42.725  55.162 -53.475  1.00  0.00     0.150 A 
HETATM   20  O   UNL     1     -42.389  54.211 -54.403  1.00  0.00    -0.304 OA
HETATM   21  C   UNL     1     -41.580  53.310 -53.786  1.00  0.00     0.087 A 
HETATM   22  C   UNL     1     -40.982  52.213 -54.400  1.00  0.00     0.045 A 
HETATM   23  C   UNL     1     -41.418  53.643 -52.451  1.00  0.00     0.007 A 
HETATM   24  C   UNL     1     -40.153  51.399 -53.605  1.00  0.00    -0.053 A 
HETATM   25  C   UNL     1     -39.994  51.674 -52.229  1.00  0.00    -0.055 A 
HETATM   26  C   UNL     1     -39.480  50.215 -54.252  1.00  0.00     0.049 C 
HETATM   27  C   UNL     1     -39.124  50.811 -51.351  1.00  0.00     0.049 C 
HETATM   28  C   UNL     1     -40.613  52.807 -51.655  1.00  0.00     0.022 A 
HETATM   29  C   UNL     1     -42.164  54.845 -52.245  1.00  0.00    -0.009 A 
HETATM   30  C   UNL     1     -42.291  55.609 -50.978  1.00  0.00     0.052 C 
ENDBRANCH   1  19
TORSDOF 6
ENDMDL
