MODEL 1
REMARK VINA RESULT:      -9.1      0.000      0.000
REMARK  3 active torsions:
REMARK  status: ('A' for Active; 'I' for Inactive)
REMARK    1  A    between atoms: C_2  and  N_3 
REMARK    2  A    between atoms: C_7  and  C_8 
REMARK       I    between atoms: C_8  and  N_9 
REMARK    3  A    between atoms: N_9  and  C_10 
ROOT
HETATM    1  C   UNL     1     -43.821  55.495 -58.439  1.00  0.00     0.036 A 
HETATM    2  C   UNL     1     -44.102  56.809 -58.812  1.00  0.00     0.049 A 
HETATM    3  C   UNL     1     -44.980  57.095 -59.880  1.00  0.00     0.061 A 
HETATM    4  C   UNL     1     -45.591  56.045 -60.579  1.00  0.00     0.050 A 
HETATM    5  N   UNL     1     -46.558  56.169 -61.590  1.00  0.00    -0.324 N 
HETATM    6  C   UNL     1     -47.502  57.148 -61.752  1.00  0.00     0.245 C 
HETATM    7  O   UNL     1     -48.391  56.958 -62.585  1.00  0.00    -0.271 OA
HETATM    8  C   UNL     1     -47.531  58.305 -60.756  1.00  0.00     0.180 C 
HETATM    9  N   UNL     1     -46.262  59.014 -60.751  1.00  0.00    -0.334 N 
HETATM   10  C   UNL     1     -45.072  58.526 -60.270  1.00  0.00     0.256 C 
HETATM   11  O   UNL     1     -44.079  59.238 -60.146  1.00  0.00    -0.267 OA
HETATM   12  C   UNL     1     -48.562  59.376 -61.136  1.00  0.00     0.037 C 
HETATM   13  C   UNL     1     -47.905  60.677 -60.698  1.00  0.00     0.022 C 
HETATM   14  C   UNL     1     -46.441  60.430 -61.014  1.00  0.00     0.127 C 
HETATM   15  C   UNL     1     -45.231  54.728 -60.257  1.00  0.00     0.033 A 
HETATM   16  C   UNL     1     -44.366  54.456 -59.194  1.00  0.00     0.032 A 
HETATM   17  H   UNL     1     -46.762  55.358 -62.163  1.00  0.00     0.169 HD
ENDROOT
BRANCH   1  18
HETATM   18  N   UNL     1     -43.049  55.135 -57.315  1.00  0.00    -0.323 N 
HETATM   19  C   UNL     1     -42.870  55.864 -56.153  1.00  0.00     0.256 C 
HETATM   20  O   UNL     1     -43.186  57.032 -55.965  1.00  0.00    -0.267 OA
HETATM   21  H   UNL     1     -42.597  54.232 -57.359  1.00  0.00     0.169 HD
BRANCH  19  22
HETATM   22  C   UNL     1     -42.227  55.117 -55.033  1.00  0.00     0.033 A 
HETATM   23  C   UNL     1     -41.383  54.024 -55.285  1.00  0.00     0.030 A 
HETATM   24  C   UNL     1     -40.835  53.307 -54.202  1.00  0.00    -0.007 A 
HETATM   25  C   UNL     1     -41.156  53.689 -52.894  1.00  0.00     0.044 A 
HETATM   26  C   UNL     1     -39.972  52.184 -54.119  1.00  0.00     0.031 A 
HETATM   27  N   UNL     1     -40.513  52.801 -52.048  1.00  0.00    -0.352 N 
HETATM   28  C   UNL     1     -42.005  54.777 -52.634  1.00  0.00     0.031 A 
HETATM   29  C   UNL     1     -39.783  51.900 -52.789  1.00  0.00     0.092 A 
HETATM   30  C   UNL     1     -42.538  55.479 -53.722  1.00  0.00     0.019 A 
BRANCH  27  31
HETATM   31  C   UNL     1     -40.600  52.789 -50.587  1.00  0.00     0.081 C 
HETATM   32  C   UNL     1     -39.685  53.842 -49.961  1.00  0.00     0.032 C 
HETATM   33  C   UNL     1     -40.324  51.397 -50.017  1.00  0.00     0.032 C 
ENDBRANCH  27  31
ENDBRANCH  19  22
ENDBRANCH   1  18
TORSDOF 3
ENDMDL
MODEL 2
REMARK VINA RESULT:      -9.0      1.700      2.447
REMARK  3 active torsions:
REMARK  status: ('A' for Active; 'I' for Inactive)
REMARK    1  A    between atoms: C_2  and  N_3 
REMARK    2  A    between atoms: C_7  and  C_8 
REMARK       I    between atoms: C_8  and  N_9 
REMARK    3  A    between atoms: N_9  and  C_10 
ROOT
HETATM    1  C   UNL     1     -43.007  56.333 -57.630  1.00  0.00     0.036 A 
HETATM    2  C   UNL     1     -43.615  57.553 -57.337  1.00  0.00     0.049 A 
HETATM    3  C   UNL     1     -44.394  58.233 -58.300  1.00  0.00     0.061 A 
HETATM    4  C   UNL     1     -44.570  57.673 -59.572  1.00  0.00     0.050 A 
HETATM    5  N   UNL     1     -45.392  58.174 -60.596  1.00  0.00    -0.324 N 
HETATM    6  C   UNL     1     -46.555  58.889 -60.483  1.00  0.00     0.245 C 
HETATM    7  O   UNL     1     -47.233  59.049 -61.500  1.00  0.00    -0.271 OA
HETATM    8  C   UNL     1     -47.055  59.253 -59.086  1.00  0.00     0.180 C 
HETATM    9  N   UNL     1     -46.065  60.045 -58.375  1.00  0.00    -0.334 N 
HETATM   10  C   UNL     1     -44.856  59.590 -57.910  1.00  0.00     0.256 C 
HETATM   11  O   UNL     1     -44.144  60.269 -57.175  1.00  0.00    -0.267 OA
HETATM   12  C   UNL     1     -48.300  60.149 -59.128  1.00  0.00     0.037 C 
HETATM   13  C   UNL     1     -48.121  61.067 -57.926  1.00  0.00     0.022 C 
HETATM   14  C   UNL     1     -46.621  61.304 -57.913  1.00  0.00     0.127 C 
HETATM   15  C   UNL     1     -43.880  56.494 -59.886  1.00  0.00     0.033 A 
HETATM   16  C   UNL     1     -43.118  55.826 -58.925  1.00  0.00     0.032 A 
HETATM   17  H   UNL     1     -45.270  57.808 -61.533  1.00  0.00     0.169 HD
ENDROOT
BRANCH   1  18
HETATM   18  N   UNL     1     -42.314  55.544 -56.688  1.00  0.00    -0.323 N 
HETATM   19  C   UNL     1     -41.812  55.948 -55.464  1.00  0.00     0.256 C 
HETATM   20  O   UNL     1     -41.703  57.099 -55.060  1.00  0.00    -0.267 OA
HETATM   21  H   UNL     1     -42.195  54.569 -56.929  1.00  0.00     0.169 HD
BRANCH  19  22
HETATM   22  C   UNL     1     -41.370  54.840 -54.568  1.00  0.00     0.033 A 
HETATM   23  C   UNL     1     -41.489  54.947 -53.173  1.00  0.00     0.030 A 
HETATM   24  C   UNL     1     -41.011  53.903 -52.355  1.00  0.00    -0.007 A 
HETATM   25  C   UNL     1     -40.413  52.786 -52.948  1.00  0.00     0.044 A 
HETATM   26  C   UNL     1     -40.980  53.709 -50.950  1.00  0.00     0.031 A 
HETATM   27  N   UNL     1     -40.015  51.950 -51.918  1.00  0.00    -0.352 N 
HETATM   28  C   UNL     1     -40.284  52.674 -54.342  1.00  0.00     0.031 A 
HETATM   29  C   UNL     1     -40.373  52.502 -50.709  1.00  0.00     0.092 A 
HETATM   30  C   UNL     1     -40.766  53.719 -55.139  1.00  0.00     0.019 A 
BRANCH  27  31
HETATM   31  C   UNL     1     -39.301  50.681 -52.067  1.00  0.00     0.081 C 
HETATM   32  C   UNL     1     -39.717  49.949 -53.344  1.00  0.00     0.032 C 
HETATM   33  C   UNL     1     -39.466  49.793 -50.833  1.00  0.00     0.032 C 
ENDBRANCH  27  31
ENDBRANCH  19  22
ENDBRANCH   1  18
TORSDOF 3
ENDMDL
MODEL 3
REMARK VINA RESULT:      -8.9      3.051      3.950
REMARK  3 active torsions:
REMARK  status: ('A' for Active; 'I' for Inactive)
REMARK    1  A    between atoms: C_2  and  N_3 
REMARK    2  A    between atoms: C_7  and  C_8 
REMARK       I    between atoms: C_8  and  N_9 
REMARK    3  A    between atoms: N_9  and  C_10 
ROOT
HETATM    1  C   UNL     1     -42.776  57.236 -57.001  1.00  0.00     0.036 A 
HETATM    2  C   UNL     1     -42.209  57.844 -58.119  1.00  0.00     0.049 A 
HETATM    3  C   UNL     1     -42.881  58.876 -58.811  1.00  0.00     0.061 A 
HETATM    4  C   UNL     1     -44.138  59.307 -58.366  1.00  0.00     0.050 A 
HETATM    5  N   UNL     1     -44.880  60.383 -58.883  1.00  0.00    -0.324 N 
HETATM    6  C   UNL     1     -44.421  61.535 -59.464  1.00  0.00     0.245 C 
HETATM    7  O   UNL     1     -45.231  62.445 -59.658  1.00  0.00    -0.271 OA
HETATM    8  C   UNL     1     -42.914  61.715 -59.637  1.00  0.00     0.180 C 
HETATM    9  N   UNL     1     -42.356  60.645 -60.448  1.00  0.00    -0.334 N 
HETATM   10  C   UNL     1     -42.236  59.331 -60.070  1.00  0.00     0.256 C 
HETATM   11  O   UNL     1     -41.606  58.516 -60.740  1.00  0.00    -0.267 OA
HETATM   12  C   UNL     1     -42.564  62.996 -60.405  1.00  0.00     0.037 C 
HETATM   13  C   UNL     1     -41.333  62.605 -61.211  1.00  0.00     0.022 C 
HETATM   14  C   UNL     1     -41.632  61.167 -61.593  1.00  0.00     0.127 C 
HETATM   15  C   UNL     1     -44.740  58.628 -57.298  1.00  0.00     0.033 A 
HETATM   16  C   UNL     1     -44.064  57.612 -56.617  1.00  0.00     0.032 A 
HETATM   17  H   UNL     1     -45.857  60.460 -58.626  1.00  0.00     0.169 HD
ENDROOT
BRANCH   1  18
HETATM   18  N   UNL     1     -42.119  56.284 -56.195  1.00  0.00    -0.323 N 
HETATM   19  C   UNL     1     -41.584  56.479 -54.933  1.00  0.00     0.256 C 
HETATM   20  O   UNL     1     -41.409  57.552 -54.371  1.00  0.00    -0.267 OA
HETATM   21  H   UNL     1     -42.055  55.349 -56.576  1.00  0.00     0.169 HD
BRANCH  19  22
HETATM   22  C   UNL     1     -41.195  55.231 -54.214  1.00  0.00     0.033 A 
HETATM   23  C   UNL     1     -41.304  55.137 -52.818  1.00  0.00     0.030 A 
HETATM   24  C   UNL     1     -40.877  53.963 -52.167  1.00  0.00    -0.007 A 
HETATM   25  C   UNL     1     -40.335  52.917 -52.923  1.00  0.00     0.044 A 
HETATM   26  C   UNL     1     -40.851  53.563 -50.805  1.00  0.00     0.031 A 
HETATM   27  N   UNL     1     -39.976  51.921 -52.030  1.00  0.00    -0.352 N 
HETATM   28  C   UNL     1     -40.215  53.006 -54.320  1.00  0.00     0.031 A 
HETATM   29  C   UNL     1     -40.303  52.305 -50.750  1.00  0.00     0.092 A 
HETATM   30  C   UNL     1     -40.647  54.179 -54.950  1.00  0.00     0.019 A 
BRANCH  27  31
HETATM   31  C   UNL     1     -39.325  50.655 -52.371  1.00  0.00     0.081 C 
HETATM   32  C   UNL     1     -39.920  50.041 -53.639  1.00  0.00     0.032 C 
HETATM   33  C   UNL     1     -39.360  49.670 -51.202  1.00  0.00     0.032 C 
ENDBRANCH  27  31
ENDBRANCH  19  22
ENDBRANCH   1  18
TORSDOF 3
ENDMDL
MODEL 4
REMARK VINA RESULT:      -8.8      2.265     10.718
REMARK  3 active torsions:
REMARK  status: ('A' for Active; 'I' for Inactive)
REMARK    1  A    between atoms: C_2  and  N_3 
REMARK    2  A    between atoms: C_7  and  C_8 
REMARK       I    between atoms: C_8  and  N_9 
REMARK    3  A    between atoms: N_9  and  C_10 
ROOT
HETATM    1  C   UNL     1     -42.488  55.768 -54.081  1.00  0.00     0.036 A 
HETATM    2  C   UNL     1     -41.783  54.570 -53.982  1.00  0.00     0.049 A 
HETATM    3  C   UNL     1     -41.056  54.241 -52.817  1.00  0.00     0.061 A 
HETATM    4  C   UNL     1     -41.044  55.128 -51.732  1.00  0.00     0.050 A 
HETATM    5  N   UNL     1     -40.456  54.900 -50.476  1.00  0.00    -0.324 N 
HETATM    6  C   UNL     1     -40.283  53.711 -49.819  1.00  0.00     0.245 C 
HETATM    7  O   UNL     1     -39.937  53.752 -48.635  1.00  0.00    -0.271 OA
HETATM    8  C   UNL     1     -40.734  52.424 -50.507  1.00  0.00     0.180 C 
HETATM    9  N   UNL     1     -40.044  52.248 -51.774  1.00  0.00    -0.334 N 
HETATM   10  C   UNL     1     -40.229  53.010 -52.901  1.00  0.00     0.256 C 
HETATM   11  O   UNL     1     -39.735  52.702 -53.983  1.00  0.00    -0.267 OA
HETATM   12  C   UNL     1     -40.369  51.172 -49.699  1.00  0.00     0.037 C 
HETATM   13  C   UNL     1     -40.048  50.137 -50.768  1.00  0.00     0.022 C 
HETATM   14  C   UNL     1     -39.362  50.968 -51.837  1.00  0.00     0.127 C 
HETATM   15  C   UNL     1     -41.679  56.370 -51.875  1.00  0.00     0.033 A 
HETATM   16  C   UNL     1     -42.401  56.682 -53.030  1.00  0.00     0.032 A 
HETATM   17  H   UNL     1     -40.326  55.690 -49.856  1.00  0.00     0.169 HD
ENDROOT
BRANCH   1  18
HETATM   18  N   UNL     1     -43.326  56.111 -55.161  1.00  0.00    -0.323 N 
HETATM   19  C   UNL     1     -43.016  56.923 -56.238  1.00  0.00     0.256 C 
HETATM   20  O   UNL     1     -42.035  57.646 -56.351  1.00  0.00    -0.267 OA
HETATM   21  H   UNL     1     -44.248  55.694 -55.157  1.00  0.00     0.169 HD
BRANCH  19  22
HETATM   22  C   UNL     1     -44.000  56.886 -57.359  1.00  0.00     0.033 A 
HETATM   23  C   UNL     1     -43.822  56.020 -58.449  1.00  0.00     0.030 A 
HETATM   24  C   UNL     1     -44.743  56.050 -59.516  1.00  0.00    -0.007 A 
HETATM   25  C   UNL     1     -45.810  56.954 -59.476  1.00  0.00     0.044 A 
HETATM   26  C   UNL     1     -44.842  55.326 -60.732  1.00  0.00     0.031 A 
HETATM   27  N   UNL     1     -46.522  56.787 -60.652  1.00  0.00    -0.352 N 
HETATM   28  C   UNL     1     -45.993  57.828 -58.391  1.00  0.00     0.031 A 
HETATM   29  C   UNL     1     -45.945  55.790 -61.405  1.00  0.00     0.092 A 
HETATM   30  C   UNL     1     -45.069  57.783 -57.340  1.00  0.00     0.019 A 
BRANCH  27  31
HETATM   31  C   UNL     1     -47.696  57.558 -61.063  1.00  0.00     0.081 C 
HETATM   32  C   UNL     1     -48.446  56.872 -62.206  1.00  0.00     0.032 C 
HETATM   33  C   UNL     1     -47.328  58.999 -61.419  1.00  0.00     0.032 C 
ENDBRANCH  27  31
ENDBRANCH  19  22
ENDBRANCH   1  18
TORSDOF 3
ENDMDL
MODEL 5
REMARK VINA RESULT:      -8.7      6.783      9.021
REMARK  3 active torsions:
REMARK  status: ('A' for Active; 'I' for Inactive)
REMARK    1  A    between atoms: C_2  and  N_3 
REMARK    2  A    between atoms: C_7  and  C_8 
REMARK       I    between atoms: C_8  and  N_9 
REMARK    3  A    between atoms: N_9  and  C_10 
ROOT
HETATM    1  C   UNL     1     -44.138  59.379 -51.413  1.00  0.00     0.036 A 
HETATM    2  C   UNL     1     -43.681  60.504 -50.729  1.00  0.00     0.049 A 
HETATM    3  C   UNL     1     -44.527  61.609 -50.488  1.00  0.00     0.061 A 
HETATM    4  C   UNL     1     -45.855  61.578 -50.936  1.00  0.00     0.050 A 
HETATM    5  N   UNL     1     -46.840  62.548 -50.687  1.00  0.00    -0.324 N 
HETATM    6  C   UNL     1     -46.970  63.373 -49.601  1.00  0.00     0.245 C 
HETATM    7  O   UNL     1     -48.023  64.004 -49.480  1.00  0.00    -0.271 OA
HETATM    8  C   UNL     1     -45.913  63.303 -48.501  1.00  0.00     0.180 C 
HETATM    9  N   UNL     1     -44.594  63.599 -49.033  1.00  0.00    -0.334 N 
HETATM   10  C   UNL     1     -43.874  62.799 -49.885  1.00  0.00     0.256 C 
HETATM   11  O   UNL     1     -42.700  63.034 -50.163  1.00  0.00    -0.267 OA
HETATM   12  C   UNL     1     -46.132  64.364 -47.414  1.00  0.00     0.037 C 
HETATM   13  C   UNL     1     -44.718  64.748 -47.000  1.00  0.00     0.022 C 
HETATM   14  C   UNL     1     -43.962  64.691 -48.315  1.00  0.00     0.127 C 
HETATM   15  C   UNL     1     -46.278  60.483 -51.702  1.00  0.00     0.033 A 
HETATM   16  C   UNL     1     -45.434  59.392 -51.929  1.00  0.00     0.032 A 
HETATM   17  H   UNL     1     -47.690  62.523 -51.238  1.00  0.00     0.169 HD
ENDROOT
BRANCH   1  18
HETATM   18  N   UNL     1     -43.390  58.197 -51.588  1.00  0.00    -0.323 N 
HETATM   19  C   UNL     1     -43.759  56.910 -51.238  1.00  0.00     0.256 C 
HETATM   20  O   UNL     1     -44.710  56.587 -50.538  1.00  0.00    -0.267 OA
HETATM   21  H   UNL     1     -42.493  58.304 -52.045  1.00  0.00     0.169 HD
BRANCH  19  22
HETATM   22  C   UNL     1     -42.888  55.832 -51.789  1.00  0.00     0.033 A 
HETATM   23  C   UNL     1     -42.250  55.982 -53.031  1.00  0.00     0.030 A 
HETATM   24  C   UNL     1     -41.478  54.922 -53.546  1.00  0.00    -0.007 A 
HETATM   25  C   UNL     1     -41.373  53.732 -52.817  1.00  0.00     0.044 A 
HETATM   26  C   UNL     1     -40.728  54.759 -54.740  1.00  0.00     0.031 A 
HETATM   27  N   UNL     1     -40.593  52.869 -53.568  1.00  0.00    -0.352 N 
HETATM   28  C   UNL     1     -42.013  53.571 -51.577  1.00  0.00     0.031 A 
HETATM   29  C   UNL     1     -40.189  53.496 -54.725  1.00  0.00     0.092 A 
HETATM   30  C   UNL     1     -42.774  54.635 -51.080  1.00  0.00     0.019 A 
BRANCH  27  31
HETATM   31  C   UNL     1     -40.256  51.488 -53.217  1.00  0.00     0.081 C 
HETATM   32  C   UNL     1     -39.177  51.431 -52.135  1.00  0.00     0.032 C 
HETATM   33  C   UNL     1     -39.858  50.674 -54.449  1.00  0.00     0.032 C 
ENDBRANCH  27  31
ENDBRANCH  19  22
ENDBRANCH   1  18
TORSDOF 3
ENDMDL
MODEL 6
REMARK VINA RESULT:      -8.5      1.822      2.414
REMARK  3 active torsions:
REMARK  status: ('A' for Active; 'I' for Inactive)
REMARK    1  A    between atoms: C_2  and  N_3 
REMARK    2  A    between atoms: C_7  and  C_8 
REMARK       I    between atoms: C_8  and  N_9 
REMARK    3  A    between atoms: N_9  and  C_10 
ROOT
HETATM    1  C   UNL     1     -42.618  56.712 -57.829  1.00  0.00     0.036 A 
HETATM    2  C   UNL     1     -42.436  58.067 -58.105  1.00  0.00     0.049 A 
HETATM    3  C   UNL     1     -43.203  58.722 -59.094  1.00  0.00     0.061 A 
HETATM    4  C   UNL     1     -44.171  58.006 -59.811  1.00  0.00     0.050 A 
HETATM    5  N   UNL     1     -45.076  58.536 -60.747  1.00  0.00    -0.324 N 
HETATM    6  C   UNL     1     -45.623  59.791 -60.788  1.00  0.00     0.245 C 
HETATM    7  O   UNL     1     -46.556  59.986 -61.570  1.00  0.00    -0.271 OA
HETATM    8  C   UNL     1     -45.203  60.805 -59.726  1.00  0.00     0.180 C 
HETATM    9  N   UNL     1     -43.767  61.027 -59.764  1.00  0.00    -0.334 N 
HETATM   10  C   UNL     1     -42.805  60.122 -59.393  1.00  0.00     0.256 C 
HETATM   11  O   UNL     1     -41.621  60.434 -59.294  1.00  0.00    -0.267 OA
HETATM   12  C   UNL     1     -45.809  62.193 -59.974  1.00  0.00     0.037 C 
HETATM   13  C   UNL     1     -44.720  63.148 -59.505  1.00  0.00     0.022 C 
HETATM   14  C   UNL     1     -43.450  62.434 -59.931  1.00  0.00     0.127 C 
HETATM   15  C   UNL     1     -44.282  56.626 -59.591  1.00  0.00     0.033 A 
HETATM   16  C   UNL     1     -43.524  55.989 -58.606  1.00  0.00     0.032 A 
HETATM   17  H   UNL     1     -45.574  57.893 -61.351  1.00  0.00     0.169 HD
ENDROOT
BRANCH   1  18
HETATM   18  N   UNL     1     -41.974  56.021 -56.782  1.00  0.00    -0.323 N 
HETATM   19  C   UNL     1     -42.243  56.112 -55.428  1.00  0.00     0.256 C 
HETATM   20  O   UNL     1     -42.948  56.947 -54.876  1.00  0.00    -0.267 OA
HETATM   21  H   UNL     1     -41.253  55.369 -57.060  1.00  0.00     0.169 HD
BRANCH  19  22
HETATM   22  C   UNL     1     -41.592  55.067 -54.586  1.00  0.00     0.033 A 
HETATM   23  C   UNL     1     -41.175  53.847 -55.141  1.00  0.00     0.030 A 
HETATM   24  C   UNL     1     -40.613  52.861 -54.305  1.00  0.00    -0.007 A 
HETATM   25  C   UNL     1     -40.496  53.110 -52.933  1.00  0.00     0.044 A 
HETATM   26  C   UNL     1     -40.108  51.557 -54.547  1.00  0.00     0.031 A 
HETATM   27  N   UNL     1     -39.948  51.972 -52.364  1.00  0.00    -0.352 N 
HETATM   28  C   UNL     1     -40.916  54.326 -52.368  1.00  0.00     0.031 A 
HETATM   29  C   UNL     1     -39.699  51.038 -53.343  1.00  0.00     0.092 A 
HETATM   30  C   UNL     1     -41.470  55.294 -53.214  1.00  0.00     0.019 A 
BRANCH  27  31
HETATM   31  C   UNL     1     -39.689  51.763 -50.939  1.00  0.00     0.081 C 
HETATM   32  C   UNL     1     -39.864  50.296 -50.545  1.00  0.00     0.032 C 
HETATM   33  C   UNL     1     -40.548  52.682 -50.069  1.00  0.00     0.032 C 
ENDBRANCH  27  31
ENDBRANCH  19  22
ENDBRANCH   1  18
TORSDOF 3
ENDMDL
MODEL 7
REMARK VINA RESULT:      -8.5      3.735     10.418
REMARK  3 active torsions:
REMARK  status: ('A' for Active; 'I' for Inactive)
REMARK    1  A    between atoms: C_2  and  N_3 
REMARK    2  A    between atoms: C_7  and  C_8 
REMARK       I    between atoms: C_8  and  N_9 
REMARK    3  A    between atoms: N_9  and  C_10 
ROOT
HETATM    1  C   UNL     1     -41.456  55.545 -55.380  1.00  0.00     0.036 A 
HETATM    2  C   UNL     1     -41.863  55.688 -54.054  1.00  0.00     0.049 A 
HETATM    3  C   UNL     1     -41.628  54.671 -53.103  1.00  0.00     0.061 A 
HETATM    4  C   UNL     1     -40.968  53.497 -53.489  1.00  0.00     0.050 A 
HETATM    5  N   UNL     1     -40.574  52.446 -52.643  1.00  0.00    -0.324 N 
HETATM    6  C   UNL     1     -40.214  52.504 -51.322  1.00  0.00     0.245 C 
HETATM    7  O   UNL     1     -39.700  51.500 -50.822  1.00  0.00    -0.271 OA
HETATM    8  C   UNL     1     -40.265  53.853 -50.610  1.00  0.00     0.180 C 
HETATM    9  N   UNL     1     -41.608  54.408 -50.651  1.00  0.00    -0.334 N 
HETATM   10  C   UNL     1     -42.246  54.885 -51.769  1.00  0.00     0.256 C 
HETATM   11  O   UNL     1     -43.313  55.490 -51.701  1.00  0.00    -0.267 OA
HETATM   12  C   UNL     1     -39.947  53.736 -49.114  1.00  0.00     0.037 C 
HETATM   13  C   UNL     1     -40.840  54.789 -48.474  1.00  0.00     0.022 C 
HETATM   14  C   UNL     1     -42.100  54.711 -49.319  1.00  0.00     0.127 C 
HETATM   15  C   UNL     1     -40.645  53.324 -54.842  1.00  0.00     0.033 A 
HETATM   16  C   UNL     1     -40.876  54.339 -55.774  1.00  0.00     0.032 A 
HETATM   17  H   UNL     1     -40.303  51.566 -53.064  1.00  0.00     0.169 HD
ENDROOT
BRANCH   1  18
HETATM   18  N   UNL     1     -41.552  56.560 -56.354  1.00  0.00    -0.323 N 
HETATM   19  C   UNL     1     -42.675  57.295 -56.692  1.00  0.00     0.256 C 
HETATM   20  O   UNL     1     -43.828  57.067 -56.351  1.00  0.00    -0.267 OA
HETATM   21  H   UNL     1     -40.695  56.790 -56.841  1.00  0.00     0.169 HD
BRANCH  19  22
HETATM   22  C   UNL     1     -42.415  58.479 -57.560  1.00  0.00     0.033 A 
HETATM   23  C   UNL     1     -42.433  58.369 -58.960  1.00  0.00     0.030 A 
HETATM   24  C   UNL     1     -42.130  59.496 -59.748  1.00  0.00    -0.007 A 
HETATM   25  C   UNL     1     -41.799  60.703 -59.122  1.00  0.00     0.044 A 
HETATM   26  C   UNL     1     -42.061  59.710 -61.150  1.00  0.00     0.031 A 
HETATM   27  N   UNL     1     -41.521  61.614 -60.127  1.00  0.00    -0.352 N 
HETATM   28  C   UNL     1     -41.772  60.821 -57.722  1.00  0.00     0.031 A 
HETATM   29  C   UNL     1     -41.695  61.017 -61.355  1.00  0.00     0.092 A 
HETATM   30  C   UNL     1     -42.078  59.691 -56.955  1.00  0.00     0.019 A 
BRANCH  27  31
HETATM   31  C   UNL     1     -41.083  62.998 -59.937  1.00  0.00     0.081 C 
HETATM   32  C   UNL     1     -41.459  63.876 -61.131  1.00  0.00     0.032 C 
HETATM   33  C   UNL     1     -39.586  63.078 -59.632  1.00  0.00     0.032 C 
ENDBRANCH  27  31
ENDBRANCH  19  22
ENDBRANCH   1  18
TORSDOF 3
ENDMDL
MODEL 8
REMARK VINA RESULT:      -8.4      5.724      7.905
REMARK  3 active torsions:
REMARK  status: ('A' for Active; 'I' for Inactive)
REMARK    1  A    between atoms: C_2  and  N_3 
REMARK    2  A    between atoms: C_7  and  C_8 
REMARK       I    between atoms: C_8  and  N_9 
REMARK    3  A    between atoms: N_9  and  C_10 
ROOT
HETATM    1  C   UNL     1     -43.773  58.467 -52.774  1.00  0.00     0.036 A 
HETATM    2  C   UNL     1     -43.558  59.352 -51.719  1.00  0.00     0.049 A 
HETATM    3  C   UNL     1     -44.321  60.533 -51.587  1.00  0.00     0.061 A 
HETATM    4  C   UNL     1     -45.320  60.824 -52.526  1.00  0.00     0.050 A 
HETATM    5  N   UNL     1     -46.223  61.899 -52.474  1.00  0.00    -0.324 N 
HETATM    6  C   UNL     1     -46.735  62.531 -51.372  1.00  0.00     0.245 C 
HETATM    7  O   UNL     1     -47.675  63.312 -51.541  1.00  0.00    -0.271 OA
HETATM    8  C   UNL     1     -46.271  62.078 -49.990  1.00  0.00     0.180 C 
HETATM    9  N   UNL     1     -44.830  62.216 -49.858  1.00  0.00    -0.334 N 
HETATM   10  C   UNL     1     -43.888  61.460 -50.509  1.00  0.00     0.256 C 
HETATM   11  O   UNL     1     -42.694  61.521 -50.225  1.00  0.00    -0.267 OA
HETATM   12  C   UNL     1     -46.842  62.954 -48.866  1.00  0.00     0.037 C 
HETATM   13  C   UNL     1     -45.719  62.994 -47.839  1.00  0.00     0.022 C 
HETATM   14  C   UNL     1     -44.476  63.031 -48.709  1.00  0.00     0.127 C 
HETATM   15  C   UNL     1     -45.466  59.976 -53.632  1.00  0.00     0.033 A 
HETATM   16  C   UNL     1     -44.711  58.807 -53.750  1.00  0.00     0.032 A 
HETATM   17  H   UNL     1     -46.748  62.126 -53.310  1.00  0.00     0.169 HD
ENDROOT
BRANCH   1  18
HETATM   18  N   UNL     1     -43.133  57.217 -52.906  1.00  0.00    -0.323 N 
HETATM   19  C   UNL     1     -41.792  56.984 -53.156  1.00  0.00     0.256 C 
HETATM   20  O   UNL     1     -40.958  57.810 -53.502  1.00  0.00    -0.267 OA
HETATM   21  H   UNL     1     -43.720  56.403 -52.778  1.00  0.00     0.169 HD
BRANCH  19  22
HETATM   22  C   UNL     1     -41.354  55.570 -52.973  1.00  0.00     0.033 A 
HETATM   23  C   UNL     1     -41.178  55.028 -51.690  1.00  0.00     0.030 A 
HETATM   24  C   UNL     1     -40.711  53.705 -51.555  1.00  0.00    -0.007 A 
HETATM   25  C   UNL     1     -40.416  52.961 -52.703  1.00  0.00     0.044 A 
HETATM   26  C   UNL     1     -40.432  52.885 -50.431  1.00  0.00     0.031 A 
HETATM   27  N   UNL     1     -39.953  51.728 -52.273  1.00  0.00    -0.352 N 
HETATM   28  C   UNL     1     -40.584  53.497 -53.990  1.00  0.00     0.031 A 
HETATM   29  C   UNL     1     -39.978  51.676 -50.899  1.00  0.00     0.092 A 
HETATM   30  C   UNL     1     -41.050  54.812 -54.105  1.00  0.00     0.019 A 
BRANCH  27  31
HETATM   31  C   UNL     1     -39.481  50.640 -53.132  1.00  0.00     0.081 C 
HETATM   32  C   UNL     1     -40.295  50.551 -54.424  1.00  0.00     0.032 C 
HETATM   33  C   UNL     1     -39.461  49.303 -52.389  1.00  0.00     0.032 C 
ENDBRANCH  27  31
ENDBRANCH  19  22
ENDBRANCH   1  18
TORSDOF 3
ENDMDL
MODEL 9
REMARK VINA RESULT:      -8.3     16.975     19.860
REMARK  3 active torsions:
REMARK  status: ('A' for Active; 'I' for Inactive)
REMARK    1  A    between atoms: C_2  and  N_3 
REMARK    2  A    between atoms: C_7  and  C_8 
REMARK       I    between atoms: C_8  and  N_9 
REMARK    3  A    between atoms: N_9  and  C_10 
ROOT
HETATM    1  C   UNL     1     -36.582  39.802 -50.489  1.00  0.00     0.036 A 
HETATM    2  C   UNL     1     -36.602  40.574 -51.650  1.00  0.00     0.049 A 
HETATM    3  C   UNL     1     -35.425  40.808 -52.394  1.00  0.00     0.061 A 
HETATM    4  C   UNL     1     -34.211  40.252 -51.969  1.00  0.00     0.050 A 
HETATM    5  N   UNL     1     -32.984  40.310 -52.651  1.00  0.00    -0.324 N 
HETATM    6  C   UNL     1     -32.761  40.374 -54.001  1.00  0.00     0.245 C 
HETATM    7  O   UNL     1     -31.607  40.203 -54.402  1.00  0.00    -0.271 OA
HETATM    8  C   UNL     1     -33.966  40.431 -54.938  1.00  0.00     0.180 C 
HETATM    9  N   UNL     1     -34.792  41.591 -54.646  1.00  0.00    -0.334 N 
HETATM   10  C   UNL     1     -35.558  41.768 -53.521  1.00  0.00     0.256 C 
HETATM   11  O   UNL     1     -36.357  42.696 -53.417  1.00  0.00    -0.267 OA
HETATM   12  C   UNL     1     -33.556  40.617 -56.405  1.00  0.00     0.037 C 
HETATM   13  C   UNL     1     -34.663  41.488 -56.979  1.00  0.00     0.022 C 
HETATM   14  C   UNL     1     -34.984  42.419 -55.823  1.00  0.00     0.127 C 
HETATM   15  C   UNL     1     -34.184  39.556 -50.752  1.00  0.00     0.033 A 
HETATM   16  C   UNL     1     -35.355  39.325 -50.027  1.00  0.00     0.032 A 
HETATM   17  H   UNL     1     -32.141  40.063 -52.146  1.00  0.00     0.169 HD
ENDROOT
BRANCH   1  18
HETATM   18  N   UNL     1     -37.731  39.432 -49.761  1.00  0.00    -0.323 N 
HETATM   19  C   UNL     1     -38.539  38.328 -49.974  1.00  0.00     0.256 C 
HETATM   20  O   UNL     1     -38.521  37.585 -50.946  1.00  0.00    -0.267 OA
HETATM   21  H   UNL     1     -37.973  40.029 -48.981  1.00  0.00     0.169 HD
BRANCH  19  22
HETATM   22  C   UNL     1     -39.518  38.045 -48.884  1.00  0.00     0.033 A 
HETATM   23  C   UNL     1     -40.889  37.923 -49.158  1.00  0.00     0.030 A 
HETATM   24  C   UNL     1     -41.791  37.709 -48.097  1.00  0.00    -0.007 A 
HETATM   25  C   UNL     1     -41.305  37.638 -46.787  1.00  0.00     0.044 A 
HETATM   26  C   UNL     1     -43.200  37.549 -48.039  1.00  0.00     0.031 A 
HETATM   27  N   UNL     1     -42.403  37.457 -45.961  1.00  0.00    -0.352 N 
HETATM   28  C   UNL     1     -39.935  37.766 -46.503  1.00  0.00     0.031 A 
HETATM   29  C   UNL     1     -43.548  37.388 -46.721  1.00  0.00     0.092 A 
HETATM   30  C   UNL     1     -39.054  37.976 -47.570  1.00  0.00     0.019 A 
BRANCH  27  31
HETATM   31  C   UNL     1     -42.375  37.376 -44.500  1.00  0.00     0.081 C 
HETATM   32  C   UNL     1     -43.619  36.675 -43.953  1.00  0.00     0.032 C 
HETATM   33  C   UNL     1     -42.181  38.752 -43.862  1.00  0.00     0.032 C 
ENDBRANCH  27  31
ENDBRANCH  19  22
ENDBRANCH   1  18
TORSDOF 3
ENDMDL
MODEL 10
REMARK VINA RESULT:      -8.1     17.064     20.816
REMARK  3 active torsions:
REMARK  status: ('A' for Active; 'I' for Inactive)
REMARK    1  A    between atoms: C_2  and  N_3 
REMARK    2  A    between atoms: C_7  and  C_8 
REMARK       I    between atoms: C_8  and  N_9 
REMARK    3  A    between atoms: N_9  and  C_10 
ROOT
HETATM    1  C   UNL     1     -34.062  40.224 -50.638  1.00  0.00     0.036 A 
HETATM    2  C   UNL     1     -34.554  39.444 -51.684  1.00  0.00     0.049 A 
HETATM    3  C   UNL     1     -35.059  40.035 -52.863  1.00  0.00     0.061 A 
HETATM    4  C   UNL     1     -35.062  41.430 -52.995  1.00  0.00     0.050 A 
HETATM    5  N   UNL     1     -35.435  42.157 -54.138  1.00  0.00    -0.324 N 
HETATM    6  C   UNL     1     -35.333  41.790 -55.454  1.00  0.00     0.245 C 
HETATM    7  O   UNL     1     -35.520  42.658 -56.310  1.00  0.00    -0.271 OA
HETATM    8  C   UNL     1     -34.785  40.403 -55.784  1.00  0.00     0.180 C 
HETATM    9  N   UNL     1     -35.602  39.367 -55.174  1.00  0.00    -0.334 N 
HETATM   10  C   UNL     1     -35.689  39.100 -53.831  1.00  0.00     0.256 C 
HETATM   11  O   UNL     1     -36.270  38.106 -53.400  1.00  0.00    -0.267 OA
HETATM   12  C   UNL     1     -34.841  40.096 -57.286  1.00  0.00     0.037 C 
HETATM   13  C   UNL     1     -35.138  38.604 -57.336  1.00  0.00     0.022 C 
HETATM   14  C   UNL     1     -36.081  38.416 -56.161  1.00  0.00     0.127 C 
HETATM   15  C   UNL     1     -34.652  42.207 -51.903  1.00  0.00     0.033 A 
HETATM   16  C   UNL     1     -34.148  41.613 -50.743  1.00  0.00     0.032 A 
HETATM   17  H   UNL     1     -35.602  43.152 -54.042  1.00  0.00     0.169 HD
ENDROOT
BRANCH   1  18
HETATM   18  N   UNL     1     -33.438  39.705 -49.485  1.00  0.00    -0.323 N 
HETATM   19  C   UNL     1     -32.081  39.647 -49.219  1.00  0.00     0.256 C 
HETATM   20  O   UNL     1     -31.171  39.851 -50.011  1.00  0.00    -0.267 OA
HETATM   21  H   UNL     1     -34.058  39.361 -48.763  1.00  0.00     0.169 HD
BRANCH  19  22
HETATM   22  C   UNL     1     -31.730  39.298 -47.812  1.00  0.00     0.033 A 
HETATM   23  C   UNL     1     -30.792  40.054 -47.093  1.00  0.00     0.030 A 
HETATM   24  C   UNL     1     -30.443  39.664 -45.784  1.00  0.00    -0.007 A 
HETATM   25  C   UNL     1     -31.028  38.519 -45.231  1.00  0.00     0.044 A 
HETATM   26  C   UNL     1     -29.552  40.198 -44.817  1.00  0.00     0.031 A 
HETATM   27  N   UNL     1     -30.483  38.361 -43.967  1.00  0.00    -0.352 N 
HETATM   28  C   UNL     1     -31.963  37.753 -45.946  1.00  0.00     0.031 A 
HETATM   29  C   UNL     1     -29.601  39.386 -43.711  1.00  0.00     0.092 A 
HETATM   30  C   UNL     1     -32.298  38.157 -47.244  1.00  0.00     0.019 A 
BRANCH  27  31
HETATM   31  C   UNL     1     -30.768  37.266 -43.039  1.00  0.00     0.081 C 
HETATM   32  C   UNL     1     -32.023  37.545 -42.210  1.00  0.00     0.032 C 
HETATM   33  C   UNL     1     -29.565  36.955 -42.147  1.00  0.00     0.032 C 
ENDBRANCH  27  31
ENDBRANCH  19  22
ENDBRANCH   1  18
TORSDOF 3
ENDMDL
