MODEL 1
REMARK VINA RESULT:      -8.7      0.000      0.000
REMARK  3 active torsions:
REMARK  status: ('A' for Active; 'I' for Inactive)
REMARK    1  A    between atoms: C_3  and  N_4 
REMARK    2  A    between atoms: C_10  and  O_11 
REMARK    3  A    between atoms: C_14  and  C_15 
ROOT
HETATM    1  N   UNL     1     -40.428  53.395 -53.753  1.00  0.00    -0.212 N 
HETATM    2  N   UNL     1     -39.676  54.017 -54.708  1.00  0.00    -0.177 NA
HETATM    3  C   UNL     1     -40.210  55.227 -54.836  1.00  0.00     0.152 A 
HETATM    4  C   UNL     1     -41.286  55.448 -53.957  1.00  0.00     0.027 A 
HETATM    5  C   UNL     1     -41.401  54.264 -53.241  1.00  0.00     0.163 A 
HETATM    6  N   UNL     1     -42.205  53.982 -52.181  1.00  0.00    -0.208 NA
HETATM    7  C   UNL     1     -43.460  54.244 -52.348  1.00  0.00     0.149 C 
HETATM    8  C   UNL     1     -44.152  54.794 -53.565  1.00  0.00     0.161 C 
HETATM    9  S   UNL     1     -43.877  56.582 -53.754  1.00  0.00    -0.146 SA
HETATM   10  C   UNL     1     -42.035  56.729 -53.775  1.00  0.00     0.124 C 
ENDROOT
BRANCH  10  11
HETATM   11  C   UNL     1     -41.517  57.511 -52.586  1.00  0.00     0.028 A 
HETATM   12  C   UNL     1     -40.923  58.850 -52.925  1.00  0.00     0.253 A 
HETATM   13  O   UNL     1     -40.879  59.272 -54.076  1.00  0.00    -0.268 OA
HETATM   14  N   UNL     1     -40.426  59.584 -51.874  1.00  0.00    -0.333 N 
HETATM   15  C   UNL     1     -40.447  59.173 -50.569  1.00  0.00     0.091 A 
HETATM   16  H   UNL     1     -40.024  60.481 -52.119  1.00  0.00     0.168 HD
HETATM   17  C   UNL     1     -40.977  57.988 -50.251  1.00  0.00     0.018 A 
HETATM   18  C   UNL     1     -41.522  57.143 -51.289  1.00  0.00     0.015 A 
ENDBRANCH  10  11
BRANCH   1  19
HETATM   19  C   UNL     1     -40.122  52.047 -53.411  1.00  0.00     0.099 A 
HETATM   20  C   UNL     1     -40.320  51.046 -54.381  1.00  0.00     0.035 A 
HETATM   21  C   UNL     1     -40.004  49.712 -54.106  1.00  0.00     0.002 A 
HETATM   22  C   UNL     1     -39.505  49.358 -52.856  1.00  0.00     0.003 A 
HETATM   23  C   UNL     1     -39.340  50.338 -51.878  1.00  0.00     0.045 A 
HETATM   24  C   UNL     1     -39.653  51.671 -52.152  1.00  0.00     0.145 A 
HETATM   25  F   UNL     1     -39.580  52.526 -51.125  1.00  0.00    -0.204 F 
ENDBRANCH   1  19
BRANCH   7  26
HETATM   26  O   UNL     1     -44.271  53.998 -51.308  1.00  0.00    -0.347 OA
HETATM   27  H   UNL     1     -43.929  54.506 -50.552  1.00  0.00     0.219 HD
ENDBRANCH   7  26
TORSDOF 3
ENDMDL
MODEL 2
REMARK VINA RESULT:      -7.9      3.202      4.830
REMARK  3 active torsions:
REMARK  status: ('A' for Active; 'I' for Inactive)
REMARK    1  A    between atoms: C_3  and  N_4 
REMARK    2  A    between atoms: C_10  and  O_11 
REMARK    3  A    between atoms: C_14  and  C_15 
ROOT
HETATM    1  N   UNL     1     -42.431  55.703 -52.062  1.00  0.00    -0.212 N 
HETATM    2  N   UNL     1     -43.590  55.473 -51.378  1.00  0.00    -0.177 NA
HETATM    3  C   UNL     1     -44.017  56.674 -51.003  1.00  0.00     0.152 A 
HETATM    4  C   UNL     1     -43.186  57.716 -51.453  1.00  0.00     0.027 A 
HETATM    5  C   UNL     1     -42.177  57.078 -52.162  1.00  0.00     0.163 A 
HETATM    6  N   UNL     1     -41.179  57.625 -52.906  1.00  0.00    -0.208 NA
HETATM    7  C   UNL     1     -40.472  58.529 -52.311  1.00  0.00     0.149 C 
HETATM    8  C   UNL     1     -40.590  59.038 -50.901  1.00  0.00     0.161 C 
HETATM    9  S   UNL     1     -41.994  60.177 -50.703  1.00  0.00    -0.146 SA
HETATM   10  C   UNL     1     -43.435  59.182 -51.293  1.00  0.00     0.124 C 
ENDROOT
BRANCH  10  11
HETATM   11  C   UNL     1     -44.063  59.778 -52.535  1.00  0.00     0.028 A 
HETATM   12  C   UNL     1     -45.556  59.941 -52.468  1.00  0.00     0.253 A 
HETATM   13  O   UNL     1     -46.203  59.624 -51.475  1.00  0.00    -0.268 OA
HETATM   14  N   UNL     1     -46.167  60.463 -53.584  1.00  0.00    -0.333 N 
HETATM   15  C   UNL     1     -45.504  60.838 -54.720  1.00  0.00     0.091 A 
HETATM   16  H   UNL     1     -47.174  60.562 -53.526  1.00  0.00     0.168 HD
HETATM   17  C   UNL     1     -44.176  60.706 -54.792  1.00  0.00     0.018 A 
HETATM   18  C   UNL     1     -43.445  60.162 -53.671  1.00  0.00     0.015 A 
ENDBRANCH  10  11
BRANCH   1  19
HETATM   19  C   UNL     1     -41.704  54.591 -52.571  1.00  0.00     0.099 A 
HETATM   20  C   UNL     1     -40.834  53.903 -51.703  1.00  0.00     0.035 A 
HETATM   21  C   UNL     1     -40.121  52.784 -52.145  1.00  0.00     0.002 A 
HETATM   22  C   UNL     1     -40.253  52.350 -53.460  1.00  0.00     0.003 A 
HETATM   23  C   UNL     1     -41.084  53.046 -54.336  1.00  0.00     0.045 A 
HETATM   24  C   UNL     1     -41.799  54.162 -53.895  1.00  0.00     0.145 A 
HETATM   25  F   UNL     1     -42.479  54.843 -54.826  1.00  0.00    -0.204 F 
ENDBRANCH   1  19
BRANCH   7  26
HETATM   26  O   UNL     1     -39.497  59.103 -53.031  1.00  0.00    -0.347 OA
HETATM   27  H   UNL     1     -39.063  58.396 -53.541  1.00  0.00     0.219 HD
ENDBRANCH   7  26
TORSDOF 3
ENDMDL
MODEL 3
REMARK VINA RESULT:      -7.7      3.970      5.831
REMARK  3 active torsions:
REMARK  status: ('A' for Active; 'I' for Inactive)
REMARK    1  A    between atoms: C_3  and  N_4 
REMARK    2  A    between atoms: C_10  and  O_11 
REMARK    3  A    between atoms: C_14  and  C_15 
ROOT
HETATM    1  N   UNL     1     -43.399  57.042 -56.331  1.00  0.00    -0.212 N 
HETATM    2  N   UNL     1     -44.622  57.530 -55.970  1.00  0.00    -0.177 NA
HETATM    3  C   UNL     1     -44.762  57.204 -54.690  1.00  0.00     0.152 A 
HETATM    4  C   UNL     1     -43.639  56.537 -54.167  1.00  0.00     0.027 A 
HETATM    5  C   UNL     1     -42.750  56.462 -55.231  1.00  0.00     0.163 A 
HETATM    6  N   UNL     1     -41.465  56.020 -55.241  1.00  0.00    -0.208 NA
HETATM    7  C   UNL     1     -41.274  54.848 -54.732  1.00  0.00     0.149 C 
HETATM    8  C   UNL     1     -42.287  53.898 -54.153  1.00  0.00     0.161 C 
HETATM    9  S   UNL     1     -42.821  54.402 -52.490  1.00  0.00    -0.146 SA
HETATM   10  C   UNL     1     -43.431  56.127 -52.744  1.00  0.00     0.124 C 
ENDROOT
BRANCH  10  11
HETATM   11  C   UNL     1     -42.594  57.140 -51.991  1.00  0.00     0.028 A 
HETATM   12  C   UNL     1     -43.380  58.230 -51.318  1.00  0.00     0.253 A 
HETATM   13  O   UNL     1     -44.605  58.279 -51.370  1.00  0.00    -0.268 OA
HETATM   14  N   UNL     1     -42.654  59.180 -50.637  1.00  0.00    -0.333 N 
HETATM   15  C   UNL     1     -41.290  59.181 -50.539  1.00  0.00     0.091 A 
HETATM   16  H   UNL     1     -43.198  59.911 -50.194  1.00  0.00     0.168 HD
HETATM   17  C   UNL     1     -40.577  58.215 -51.127  1.00  0.00     0.018 A 
HETATM   18  C   UNL     1     -41.251  57.174 -51.868  1.00  0.00     0.015 A 
ENDBRANCH  10  11
BRANCH   1  19
HETATM   19  C   UNL     1     -42.968  57.204 -57.677  1.00  0.00     0.099 A 
HETATM   20  C   UNL     1     -42.460  58.455 -58.075  1.00  0.00     0.035 A 
HETATM   21  C   UNL     1     -41.994  58.656 -59.378  1.00  0.00     0.002 A 
HETATM   22  C   UNL     1     -42.045  57.618 -60.303  1.00  0.00     0.003 A 
HETATM   23  C   UNL     1     -42.579  56.386 -59.928  1.00  0.00     0.045 A 
HETATM   24  C   UNL     1     -43.043  56.183 -58.627  1.00  0.00     0.145 A 
HETATM   25  F   UNL     1     -43.648  55.015 -58.383  1.00  0.00    -0.204 F 
ENDBRANCH   1  19
BRANCH   7  26
HETATM   26  O   UNL     1     -40.010  54.399 -54.706  1.00  0.00    -0.347 OA
HETATM   27  H   UNL     1     -39.430  55.168 -54.840  1.00  0.00     0.219 HD
ENDBRANCH   7  26
TORSDOF 3
ENDMDL
MODEL 4
REMARK VINA RESULT:      -7.6      3.297      4.823
REMARK  3 active torsions:
REMARK  status: ('A' for Active; 'I' for Inactive)
REMARK    1  A    between atoms: C_3  and  N_4 
REMARK    2  A    between atoms: C_10  and  O_11 
REMARK    3  A    between atoms: C_14  and  C_15 
ROOT
HETATM    1  N   UNL     1     -42.428  55.418 -53.789  1.00  0.00    -0.212 N 
HETATM    2  N   UNL     1     -43.742  55.147 -54.046  1.00  0.00    -0.177 NA
HETATM    3  C   UNL     1     -44.300  56.329 -54.282  1.00  0.00     0.152 A 
HETATM    4  C   UNL     1     -43.380  57.392 -54.227  1.00  0.00     0.027 A 
HETATM    5  C   UNL     1     -42.165  56.787 -53.934  1.00  0.00     0.163 A 
HETATM    6  N   UNL     1     -40.925  57.343 -53.885  1.00  0.00    -0.208 NA
HETATM    7  C   UNL     1     -40.814  58.395 -53.144  1.00  0.00     0.149 C 
HETATM    8  C   UNL     1     -41.867  59.073 -52.309  1.00  0.00     0.161 C 
HETATM    9  S   UNL     1     -43.013  60.054 -53.324  1.00  0.00    -0.146 SA
HETATM   10  C   UNL     1     -43.660  58.826 -54.543  1.00  0.00     0.124 C 
ENDROOT
BRANCH  10  11
HETATM   11  C   UNL     1     -43.257  59.171 -55.962  1.00  0.00     0.028 A 
HETATM   12  C   UNL     1     -44.334  58.963 -56.989  1.00  0.00     0.253 A 
HETATM   13  O   UNL     1     -45.453  58.559 -56.690  1.00  0.00    -0.268 OA
HETATM   14  N   UNL     1     -44.002  59.249 -58.293  1.00  0.00    -0.333 N 
HETATM   15  C   UNL     1     -42.776  59.706 -58.692  1.00  0.00     0.091 A 
HETATM   16  H   UNL     1     -44.737  59.099 -58.975  1.00  0.00     0.168 HD
HETATM   17  C   UNL     1     -41.810  59.901 -57.790  1.00  0.00     0.018 A 
HETATM   18  C   UNL     1     -42.063  59.625 -56.394  1.00  0.00     0.015 A 
ENDBRANCH  10  11
BRANCH   1  19
HETATM   19  C   UNL     1     -41.559  54.341 -53.459  1.00  0.00     0.099 A 
HETATM   20  C   UNL     1     -41.404  53.992 -52.104  1.00  0.00     0.035 A 
HETATM   21  C   UNL     1     -40.587  52.921 -51.730  1.00  0.00     0.002 A 
HETATM   22  C   UNL     1     -39.901  52.197 -52.700  1.00  0.00     0.003 A 
HETATM   23  C   UNL     1     -40.020  52.558 -54.041  1.00  0.00     0.045 A 
HETATM   24  C   UNL     1     -40.838  53.626 -54.416  1.00  0.00     0.145 A 
HETATM   25  F   UNL     1     -40.804  53.981 -55.706  1.00  0.00    -0.204 F 
ENDBRANCH   1  19
BRANCH   7  26
HETATM   26  O   UNL     1     -39.607  58.978 -53.099  1.00  0.00    -0.347 OA
HETATM   27  H   UNL     1     -39.733  59.873 -52.739  1.00  0.00     0.219 HD
ENDBRANCH   7  26
TORSDOF 3
ENDMDL
MODEL 5
REMARK VINA RESULT:      -7.4      3.132      4.061
REMARK  3 active torsions:
REMARK  status: ('A' for Active; 'I' for Inactive)
REMARK    1  A    between atoms: C_3  and  N_4 
REMARK    2  A    between atoms: C_10  and  O_11 
REMARK    3  A    between atoms: C_14  and  C_15 
ROOT
HETATM    1  N   UNL     1     -41.315  56.890 -53.417  1.00  0.00    -0.212 N 
HETATM    2  N   UNL     1     -40.355  57.738 -52.945  1.00  0.00    -0.177 NA
HETATM    3  C   UNL     1     -40.939  58.930 -52.896  1.00  0.00     0.152 A 
HETATM    4  C   UNL     1     -42.289  58.897 -53.291  1.00  0.00     0.027 A 
HETATM    5  C   UNL     1     -42.530  57.565 -53.599  1.00  0.00     0.163 A 
HETATM    6  N   UNL     1     -43.705  56.962 -53.921  1.00  0.00    -0.208 NA
HETATM    7  C   UNL     1     -44.374  57.519 -54.876  1.00  0.00     0.149 C 
HETATM    8  C   UNL     1     -44.015  58.728 -55.696  1.00  0.00     0.161 C 
HETATM    9  S   UNL     1     -44.272  60.275 -54.776  1.00  0.00    -0.146 SA
HETATM   10  C   UNL     1     -43.254  60.038 -53.253  1.00  0.00     0.124 C 
ENDROOT
BRANCH  10  11
HETATM   11  C   UNL     1     -44.107  60.003 -52.002  1.00  0.00     0.028 A 
HETATM   12  C   UNL     1     -43.539  60.757 -50.832  1.00  0.00     0.253 A 
HETATM   13  O   UNL     1     -42.473  61.361 -50.900  1.00  0.00    -0.268 OA
HETATM   14  N   UNL     1     -44.276  60.735 -49.671  1.00  0.00    -0.333 N 
HETATM   15  C   UNL     1     -45.471  60.084 -49.531  1.00  0.00     0.091 A 
HETATM   16  H   UNL     1     -43.878  61.242 -48.890  1.00  0.00     0.168 HD
HETATM   17  C   UNL     1     -45.993  59.415 -50.564  1.00  0.00     0.018 A 
HETATM   18  C   UNL     1     -45.289  59.378 -51.825  1.00  0.00     0.015 A 
ENDBRANCH  10  11
BRANCH   1  19
HETATM   19  C   UNL     1     -40.980  55.521 -53.618  1.00  0.00     0.099 A 
HETATM   20  C   UNL     1     -40.562  55.112 -54.898  1.00  0.00     0.035 A 
HETATM   21  C   UNL     1     -40.191  53.786 -55.140  1.00  0.00     0.002 A 
HETATM   22  C   UNL     1     -40.250  52.849 -54.113  1.00  0.00     0.003 A 
HETATM   23  C   UNL     1     -40.697  53.237 -52.851  1.00  0.00     0.045 A 
HETATM   24  C   UNL     1     -41.065  54.562 -52.608  1.00  0.00     0.145 A 
HETATM   25  F   UNL     1     -41.595  54.825 -51.407  1.00  0.00    -0.204 F 
ENDBRANCH   1  19
BRANCH   7  26
HETATM   26  O   UNL     1     -45.550  56.958 -55.196  1.00  0.00    -0.347 OA
HETATM   27  H   UNL     1     -46.176  57.180 -54.485  1.00  0.00     0.219 HD
ENDBRANCH   7  26
TORSDOF 3
ENDMDL
MODEL 6
REMARK VINA RESULT:      -7.3      3.457      7.182
REMARK  3 active torsions:
REMARK  status: ('A' for Active; 'I' for Inactive)
REMARK    1  A    between atoms: C_3  and  N_4 
REMARK    2  A    between atoms: C_10  and  O_11 
REMARK    3  A    between atoms: C_14  and  C_15 
ROOT
HETATM    1  N   UNL     1     -41.811  59.249 -54.383  1.00  0.00    -0.212 N 
HETATM    2  N   UNL     1     -40.662  59.503 -53.689  1.00  0.00    -0.177 NA
HETATM    3  C   UNL     1     -40.524  58.475 -52.859  1.00  0.00     0.152 A 
HETATM    4  C   UNL     1     -41.538  57.510 -53.005  1.00  0.00     0.027 A 
HETATM    5  C   UNL     1     -42.351  58.008 -54.015  1.00  0.00     0.163 A 
HETATM    6  N   UNL     1     -43.407  57.415 -54.631  1.00  0.00    -0.208 NA
HETATM    7  C   UNL     1     -44.320  56.947 -53.845  1.00  0.00     0.149 C 
HETATM    8  C   UNL     1     -44.381  56.992 -52.343  1.00  0.00     0.161 C 
HETATM    9  S   UNL     1     -43.267  55.775 -51.578  1.00  0.00    -0.146 SA
HETATM   10  C   UNL     1     -41.620  56.194 -52.302  1.00  0.00     0.124 C 
ENDROOT
BRANCH  10  11
HETATM   11  C   UNL     1     -41.077  55.070 -53.160  1.00  0.00     0.028 A 
HETATM   12  C   UNL     1     -40.748  53.810 -52.411  1.00  0.00     0.253 A 
HETATM   13  O   UNL     1     -40.922  53.705 -51.201  1.00  0.00    -0.268 OA
HETATM   14  N   UNL     1     -40.236  52.770 -53.152  1.00  0.00    -0.333 N 
HETATM   15  C   UNL     1     -40.021  52.822 -54.503  1.00  0.00     0.091 A 
HETATM   16  H   UNL     1     -40.014  51.930 -52.633  1.00  0.00     0.168 HD
HETATM   17  C   UNL     1     -40.315  53.933 -55.184  1.00  0.00     0.018 A 
HETATM   18  C   UNL     1     -40.854  55.080 -54.490  1.00  0.00     0.015 A 
ENDBRANCH  10  11
BRANCH   1  19
HETATM   19  C   UNL     1     -42.256  60.201 -55.342  1.00  0.00     0.099 A 
HETATM   20  C   UNL     1     -42.926  61.352 -54.886  1.00  0.00     0.035 A 
HETATM   21  C   UNL     1     -43.355  62.333 -55.784  1.00  0.00     0.002 A 
HETATM   22  C   UNL     1     -43.137  62.170 -57.149  1.00  0.00     0.003 A 
HETATM   23  C   UNL     1     -42.507  61.017 -57.613  1.00  0.00     0.045 A 
HETATM   24  C   UNL     1     -42.075  60.038 -56.716  1.00  0.00     0.145 A 
HETATM   25  F   UNL     1     -41.588  58.911 -57.250  1.00  0.00    -0.204 F 
ENDBRANCH   1  19
BRANCH   7  26
HETATM   26  O   UNL     1     -45.361  56.333 -54.427  1.00  0.00    -0.347 OA
HETATM   27  H   UNL     1     -45.951  57.029 -54.767  1.00  0.00     0.219 HD
ENDBRANCH   7  26
TORSDOF 3
ENDMDL
MODEL 7
REMARK VINA RESULT:      -7.2      3.369      5.000
REMARK  3 active torsions:
REMARK  status: ('A' for Active; 'I' for Inactive)
REMARK    1  A    between atoms: C_3  and  N_4 
REMARK    2  A    between atoms: C_10  and  O_11 
REMARK    3  A    between atoms: C_14  and  C_15 
ROOT
HETATM    1  N   UNL     1     -42.558  56.038 -53.634  1.00  0.00    -0.212 N 
HETATM    2  N   UNL     1     -43.912  55.913 -53.756  1.00  0.00    -0.177 NA
HETATM    3  C   UNL     1     -44.374  57.158 -53.794  1.00  0.00     0.152 A 
HETATM    4  C   UNL     1     -43.353  58.124 -53.738  1.00  0.00     0.027 A 
HETATM    5  C   UNL     1     -42.179  57.387 -53.662  1.00  0.00     0.163 A 
HETATM    6  N   UNL     1     -40.892  57.825 -53.705  1.00  0.00    -0.208 NA
HETATM    7  C   UNL     1     -40.596  58.769 -52.874  1.00  0.00     0.149 C 
HETATM    8  C   UNL     1     -41.476  59.430 -51.850  1.00  0.00     0.161 C 
HETATM    9  S   UNL     1     -42.626  60.620 -52.605  1.00  0.00    -0.146 SA
HETATM   10  C   UNL     1     -43.523  59.604 -53.861  1.00  0.00     0.124 C 
ENDROOT
BRANCH  10  11
HETATM   11  C   UNL     1     -43.248  60.079 -55.273  1.00  0.00     0.028 A 
HETATM   12  C   UNL     1     -44.474  60.440 -56.064  1.00  0.00     0.253 A 
HETATM   13  O   UNL     1     -45.603  60.365 -55.590  1.00  0.00    -0.268 OA
HETATM   14  N   UNL     1     -44.268  60.860 -57.358  1.00  0.00    -0.333 N 
HETATM   15  C   UNL     1     -43.037  60.968 -57.945  1.00  0.00     0.091 A 
HETATM   16  H   UNL     1     -45.104  61.094 -57.880  1.00  0.00     0.168 HD
HETATM   17  C   UNL     1     -41.937  60.657 -57.252  1.00  0.00     0.018 A 
HETATM   18  C   UNL     1     -42.053  60.202 -55.886  1.00  0.00     0.015 A 
ENDBRANCH  10  11
BRANCH   1  19
HETATM   19  C   UNL     1     -41.768  54.859 -53.530  1.00  0.00     0.099 A 
HETATM   20  C   UNL     1     -41.142  54.575 -52.302  1.00  0.00     0.035 A 
HETATM   21  C   UNL     1     -40.382  53.413 -52.139  1.00  0.00     0.002 A 
HETATM   22  C   UNL     1     -40.222  52.530 -53.203  1.00  0.00     0.003 A 
HETATM   23  C   UNL     1     -40.809  52.821 -54.433  1.00  0.00     0.045 A 
HETATM   24  C   UNL     1     -41.571  53.980 -54.597  1.00  0.00     0.145 A 
HETATM   25  F   UNL     1     -41.999  54.245 -55.837  1.00  0.00    -0.204 F 
ENDBRANCH   1  19
BRANCH   7  26
HETATM   26  O   UNL     1     -39.339  59.236 -52.914  1.00  0.00    -0.347 OA
HETATM   27  H   UNL     1     -38.769  58.501 -53.200  1.00  0.00     0.219 HD
ENDBRANCH   7  26
TORSDOF 3
ENDMDL
MODEL 8
REMARK VINA RESULT:      -7.2      3.304      4.500
REMARK  3 active torsions:
REMARK  status: ('A' for Active; 'I' for Inactive)
REMARK    1  A    between atoms: C_3  and  N_4 
REMARK    2  A    between atoms: C_10  and  O_11 
REMARK    3  A    between atoms: C_14  and  C_15 
ROOT
HETATM    1  N   UNL     1     -41.416  56.989 -51.440  1.00  0.00    -0.212 N 
HETATM    2  N   UNL     1     -40.578  58.025 -51.145  1.00  0.00    -0.177 NA
HETATM    3  C   UNL     1     -41.049  59.060 -51.832  1.00  0.00     0.152 A 
HETATM    4  C   UNL     1     -42.214  58.752 -52.558  1.00  0.00     0.027 A 
HETATM    5  C   UNL     1     -42.459  57.415 -52.275  1.00  0.00     0.163 A 
HETATM    6  N   UNL     1     -43.527  56.650 -52.625  1.00  0.00    -0.208 NA
HETATM    7  C   UNL     1     -43.827  56.652 -53.882  1.00  0.00     0.149 C 
HETATM    8  C   UNL     1     -43.138  57.367 -55.012  1.00  0.00     0.161 C 
HETATM    9  S   UNL     1     -43.534  59.142 -55.037  1.00  0.00    -0.146 SA
HETATM   10  C   UNL     1     -43.048  59.710 -53.348  1.00  0.00     0.124 C 
ENDROOT
BRANCH  10  11
HETATM   11  C   UNL     1     -44.240  60.197 -52.550  1.00  0.00     0.028 A 
HETATM   12  C   UNL     1     -44.009  61.474 -51.793  1.00  0.00     0.253 A 
HETATM   13  O   UNL     1     -42.940  62.075 -51.835  1.00  0.00    -0.268 OA
HETATM   14  N   UNL     1     -45.063  61.942 -51.042  1.00  0.00    -0.333 N 
HETATM   15  C   UNL     1     -46.280  61.323 -50.955  1.00  0.00     0.091 A 
HETATM   16  H   UNL     1     -44.891  62.800 -50.533  1.00  0.00     0.168 HD
HETATM   17  C   UNL     1     -46.502  60.189 -51.628  1.00  0.00     0.018 A 
HETATM   18  C   UNL     1     -45.453  59.619 -52.441  1.00  0.00     0.015 A 
ENDBRANCH  10  11
BRANCH   1  19
HETATM   19  C   UNL     1     -41.150  55.711 -50.875  1.00  0.00     0.099 A 
HETATM   20  C   UNL     1     -41.220  55.566 -49.476  1.00  0.00     0.035 A 
HETATM   21  C   UNL     1     -40.999  54.324 -48.874  1.00  0.00     0.002 A 
HETATM   22  C   UNL     1     -40.688  53.216 -49.657  1.00  0.00     0.003 A 
HETATM   23  C   UNL     1     -40.581  53.358 -51.039  1.00  0.00     0.045 A 
HETATM   24  C   UNL     1     -40.804  54.598 -51.643  1.00  0.00     0.145 A 
HETATM   25  F   UNL     1     -40.565  54.675 -52.957  1.00  0.00    -0.204 F 
ENDBRANCH   1  19
BRANCH   7  26
HETATM   26  O   UNL     1     -44.893  55.926 -54.249  1.00  0.00    -0.347 OA
HETATM   27  H   UNL     1     -45.638  56.206 -53.689  1.00  0.00     0.219 HD
ENDBRANCH   7  26
TORSDOF 3
ENDMDL
MODEL 9
REMARK VINA RESULT:      -7.0      6.557      9.286
REMARK  3 active torsions:
REMARK  status: ('A' for Active; 'I' for Inactive)
REMARK    1  A    between atoms: C_3  and  N_4 
REMARK    2  A    between atoms: C_10  and  O_11 
REMARK    3  A    between atoms: C_14  and  C_15 
ROOT
HETATM    1  N   UNL     1     -42.554  60.660 -58.865  1.00  0.00    -0.212 N 
HETATM    2  N   UNL     1     -43.577  61.255 -58.184  1.00  0.00    -0.177 NA
HETATM    3  C   UNL     1     -44.345  60.254 -57.767  1.00  0.00     0.152 A 
HETATM    4  C   UNL     1     -43.840  58.989 -58.122  1.00  0.00     0.027 A 
HETATM    5  C   UNL     1     -42.665  59.263 -58.808  1.00  0.00     0.163 A 
HETATM    6  N   UNL     1     -41.722  58.397 -59.267  1.00  0.00    -0.208 NA
HETATM    7  C   UNL     1     -42.165  57.427 -59.997  1.00  0.00     0.149 C 
HETATM    8  C   UNL     1     -43.578  57.142 -60.427  1.00  0.00     0.161 C 
HETATM    9  S   UNL     1     -44.567  56.422 -59.081  1.00  0.00    -0.146 SA
HETATM   10  C   UNL     1     -44.403  57.664 -57.722  1.00  0.00     0.124 C 
ENDROOT
BRANCH  10  11
HETATM   11  C   UNL     1     -43.681  57.093 -56.519  1.00  0.00     0.028 A 
HETATM   12  C   UNL     1     -44.335  57.385 -55.197  1.00  0.00     0.253 A 
HETATM   13  O   UNL     1     -45.378  58.024 -55.112  1.00  0.00    -0.268 OA
HETATM   14  N   UNL     1     -43.701  56.898 -54.078  1.00  0.00    -0.333 N 
HETATM   15  C   UNL     1     -42.539  56.177 -54.105  1.00  0.00     0.091 A 
HETATM   16  H   UNL     1     -44.150  57.108 -53.195  1.00  0.00     0.168 HD
HETATM   17  C   UNL     1     -41.949  55.903 -55.273  1.00  0.00     0.018 A 
HETATM   18  C   UNL     1     -42.539  56.376 -56.504  1.00  0.00     0.015 A 
ENDBRANCH  10  11
BRANCH   1  19
HETATM   19  C   UNL     1     -41.566  61.484 -59.473  1.00  0.00     0.099 A 
HETATM   20  C   UNL     1     -40.600  62.094 -58.651  1.00  0.00     0.035 A 
HETATM   21  C   UNL     1     -39.590  62.887 -59.203  1.00  0.00     0.002 A 
HETATM   22  C   UNL     1     -39.541  63.095 -60.578  1.00  0.00     0.003 A 
HETATM   23  C   UNL     1     -40.515  62.524 -61.396  1.00  0.00     0.045 A 
HETATM   24  C   UNL     1     -41.523  61.730 -60.846  1.00  0.00     0.145 A 
HETATM   25  F   UNL     1     -42.484  61.320 -61.682  1.00  0.00    -0.204 F 
ENDBRANCH   1  19
BRANCH   7  26
HETATM   26  O   UNL     1     -41.259  56.543 -60.441  1.00  0.00    -0.347 OA
HETATM   27  H   UNL     1     -40.855  56.924 -61.240  1.00  0.00     0.219 HD
ENDBRANCH   7  26
TORSDOF 3
ENDMDL
MODEL 10
REMARK VINA RESULT:      -7.0      3.778      7.987
REMARK  3 active torsions:
REMARK  status: ('A' for Active; 'I' for Inactive)
REMARK    1  A    between atoms: C_3  and  N_4 
REMARK    2  A    between atoms: C_10  and  O_11 
REMARK    3  A    between atoms: C_14  and  C_15 
ROOT
HETATM    1  N   UNL     1     -43.805  59.599 -50.966  1.00  0.00    -0.212 N 
HETATM    2  N   UNL     1     -44.966  58.904 -51.152  1.00  0.00    -0.177 NA
HETATM    3  C   UNL     1     -44.599  57.763 -51.724  1.00  0.00     0.152 A 
HETATM    4  C   UNL     1     -43.207  57.657 -51.895  1.00  0.00     0.027 A 
HETATM    5  C   UNL     1     -42.700  58.840 -51.375  1.00  0.00     0.163 A 
HETATM    6  N   UNL     1     -41.403  59.202 -51.183  1.00  0.00    -0.208 NA
HETATM    7  C   UNL     1     -40.633  59.084 -52.213  1.00  0.00     0.149 C 
HETATM    8  C   UNL     1     -40.983  58.625 -53.602  1.00  0.00     0.161 C 
HETATM    9  S   UNL     1     -41.179  56.819 -53.692  1.00  0.00    -0.146 SA
HETATM   10  C   UNL     1     -42.463  56.467 -52.411  1.00  0.00     0.124 C 
ENDROOT
BRANCH  10  11
HETATM   11  C   UNL     1     -41.915  55.621 -51.280  1.00  0.00     0.028 A 
HETATM   12  C   UNL     1     -41.849  54.148 -51.571  1.00  0.00     0.253 A 
HETATM   13  O   UNL     1     -42.201  53.679 -52.649  1.00  0.00    -0.268 OA
HETATM   14  N   UNL     1     -41.372  53.344 -50.562  1.00  0.00    -0.333 N 
HETATM   15  C   UNL     1     -40.961  53.803 -49.341  1.00  0.00     0.091 A 
HETATM   16  H   UNL     1     -41.339  52.353 -50.771  1.00  0.00     0.168 HD
HETATM   17  C   UNL     1     -41.008  55.111 -49.069  1.00  0.00     0.018 A 
HETATM   18  C   UNL     1     -41.498  56.035 -50.066  1.00  0.00     0.015 A 
ENDBRANCH  10  11
BRANCH   1  19
HETATM   19  C   UNL     1     -43.871  60.900 -50.394  1.00  0.00     0.099 A 
HETATM   20  C   UNL     1     -44.507  61.056 -49.148  1.00  0.00     0.035 A 
HETATM   21  C   UNL     1     -44.570  62.308 -48.529  1.00  0.00     0.002 A 
HETATM   22  C   UNL     1     -44.016  63.422 -49.153  1.00  0.00     0.003 A 
HETATM   23  C   UNL     1     -43.416  63.283 -50.403  1.00  0.00     0.045 A 
HETATM   24  C   UNL     1     -43.350  62.033 -51.021  1.00  0.00     0.145 A 
HETATM   25  F   UNL     1     -42.866  62.007 -52.269  1.00  0.00    -0.204 F 
ENDBRANCH   1  19
BRANCH   7  26
HETATM   26  O   UNL     1     -39.343  59.411 -52.043  1.00  0.00    -0.347 OA
HETATM   27  H   UNL     1     -39.085  59.107 -51.155  1.00  0.00     0.219 HD
ENDBRANCH   7  26
TORSDOF 3
ENDMDL
