MODEL 1
REMARK VINA RESULT:      -7.9      0.000      0.000
REMARK  8 active torsions:
REMARK  status: ('A' for Active; 'I' for Inactive)
REMARK    1  A    between atoms: C_2  and  S_3 
REMARK    2  A    between atoms: S_3  and  C_4 
REMARK    3  A    between atoms: C_4  and  C_5 
REMARK    4  A    between atoms: C_8  and  C_9 
REMARK    5  A    between atoms: C_10  and  C_11 
REMARK    6  A    between atoms: C_23  and  N_24 
REMARK       I    between atoms: N_24  and  C_25 
REMARK    7  A    between atoms: C_25  and  C_26 
REMARK    8  A    between atoms: C_26  and  C_27 
ROOT
HETATM    1  C   UNL     1     -46.215  61.503 -52.156  1.00  0.00    -0.035 A 
HETATM    2  C   UNL     1     -45.487  60.583 -52.920  1.00  0.00     0.030 A 
HETATM    3  C   UNL     1     -44.203  60.155 -52.535  1.00  0.00     0.059 A 
HETATM    4  C   UNL     1     -43.640  60.645 -51.350  1.00  0.00     0.050 A 
HETATM    5  N   UNL     1     -42.424  60.235 -50.775  1.00  0.00    -0.324 N 
HETATM    6  C   UNL     1     -41.837  58.997 -50.824  1.00  0.00     0.245 C 
HETATM    7  O   UNL     1     -40.920  58.769 -50.031  1.00  0.00    -0.271 OA
HETATM    8  C   UNL     1     -42.487  57.911 -51.678  1.00  0.00     0.182 C 
HETATM    9  N   UNL     1     -42.613  58.350 -53.060  1.00  0.00    -0.332 N 
HETATM   10  C   UNL     1     -43.495  59.294 -53.517  1.00  0.00     0.256 C 
HETATM   11  O   UNL     1     -43.734  59.444 -54.713  1.00  0.00    -0.267 OA
HETATM   12  C   UNL     1     -41.657  56.621 -51.740  1.00  0.00     0.061 C 
HETATM   13  C   UNL     1     -41.864  56.132 -53.176  1.00  0.00     0.105 C 
HETATM   14  C   UNL     1     -41.935  57.438 -53.968  1.00  0.00     0.152 C 
HETATM   15  C   UNL     1     -44.340  61.624 -50.626  1.00  0.00     0.031 A 
HETATM   16  C   UNL     1     -45.622  62.033 -51.012  1.00  0.00     0.013 A 
HETATM   17  H   UNL     1     -42.029  60.801 -50.035  1.00  0.00     0.169 HD
ENDROOT
BRANCH   1  18
HETATM   18  C   UNL     1     -47.611  61.832 -52.474  1.00  0.00     0.012 C 
HETATM   19  C   UNL     1     -48.178  63.012 -52.175  1.00  0.00     0.012 C 
BRANCH  19  20
HETATM   20  C   UNL     1     -49.516  63.422 -52.625  1.00  0.00    -0.036 A 
HETATM   21  C   UNL     1     -49.633  64.252 -53.745  1.00  0.00     0.012 A 
HETATM   22  C   UNL     1     -50.887  64.539 -54.289  1.00  0.00     0.009 A 
HETATM   23  C   UNL     1     -52.051  63.989 -53.732  1.00  0.00    -0.049 A 
HETATM   24  C   UNL     1     -51.935  63.171 -52.601  1.00  0.00     0.009 A 
HETATM   25  C   UNL     1     -50.679  62.890 -52.054  1.00  0.00     0.012 A 
BRANCH  23  26
HETATM   26  C   UNL     1     -53.389  64.209 -54.389  1.00  0.00     0.112 C 
BRANCH  26  27
HETATM   27  S   UNL     1     -54.210  62.616 -54.727  1.00  0.00    -0.165 SA
BRANCH  27  28
HETATM   28  C   UNL     1     -53.042  61.948 -55.946  1.00  0.00     0.069 C 
HETATM   29  C   UNL     1     -52.388  60.695 -55.391  1.00  0.00     0.016 C 
ENDBRANCH  27  28
ENDBRANCH  26  27
ENDBRANCH  23  26
ENDBRANCH  19  20
ENDBRANCH   1  18
BRANCH  13  30
HETATM   30  N   UNL     1     -40.911  55.145 -53.646  1.00  0.00    -0.355 N 
HETATM   31  C   UNL     1     -41.254  53.920 -54.171  1.00  0.00     0.222 C 
HETATM   32  O   UNL     1     -42.427  53.571 -54.301  1.00  0.00    -0.273 OA
HETATM   33  H   UNL     1     -39.930  55.326 -53.459  1.00  0.00     0.162 HD
BRANCH  31  34
HETATM   34  C   UNL     1     -40.131  52.965 -54.560  1.00  0.00     0.148 C 
BRANCH  34  35
HETATM   35  C   UNL     1     -39.922  51.821 -53.612  1.00  0.00    -0.009 A 
HETATM   36  S   UNL     1     -39.873  50.211 -54.204  1.00  0.00    -0.106 SA
HETATM   37  C   UNL     1     -39.607  49.576 -52.640  1.00  0.00     0.050 A 
HETATM   38  C   UNL     1     -39.550  50.565 -51.684  1.00  0.00     0.008 A 
HETATM   39  C   UNL     1     -39.732  51.863 -52.245  1.00  0.00     0.015 A 
ENDBRANCH  34  35
ENDBRANCH  31  34
ENDBRANCH  13  30
TORSDOF 8
ENDMDL
MODEL 2
REMARK VINA RESULT:      -7.4      4.544     12.974
REMARK  8 active torsions:
REMARK  status: ('A' for Active; 'I' for Inactive)
REMARK    1  A    between atoms: C_2  and  S_3 
REMARK    2  A    between atoms: S_3  and  C_4 
REMARK    3  A    between atoms: C_4  and  C_5 
REMARK    4  A    between atoms: C_8  and  C_9 
REMARK    5  A    between atoms: C_10  and  C_11 
REMARK    6  A    between atoms: C_23  and  N_24 
REMARK       I    between atoms: N_24  and  C_25 
REMARK    7  A    between atoms: C_25  and  C_26 
REMARK    8  A    between atoms: C_26  and  C_27 
ROOT
HETATM    1  C   UNL     1     -43.095  56.380 -58.139  1.00  0.00    -0.035 A 
HETATM    2  C   UNL     1     -43.872  57.418 -57.611  1.00  0.00     0.030 A 
HETATM    3  C   UNL     1     -44.635  58.264 -58.439  1.00  0.00     0.059 A 
HETATM    4  C   UNL     1     -44.635  58.056 -59.824  1.00  0.00     0.050 A 
HETATM    5  N   UNL     1     -45.424  58.737 -60.767  1.00  0.00    -0.324 N 
HETATM    6  C   UNL     1     -46.682  59.258 -60.604  1.00  0.00     0.245 C 
HETATM    7  O   UNL     1     -47.308  59.568 -61.621  1.00  0.00    -0.271 OA
HETATM    8  C   UNL     1     -47.321  59.210 -59.217  1.00  0.00     0.182 C 
HETATM    9  N   UNL     1     -46.479  59.884 -58.240  1.00  0.00    -0.332 N 
HETATM   10  C   UNL     1     -45.289  59.408 -57.753  1.00  0.00     0.256 C 
HETATM   11  O   UNL     1     -44.750  59.885 -56.757  1.00  0.00    -0.267 OA
HETATM   12  C   UNL     1     -48.671  59.939 -59.155  1.00  0.00     0.061 C 
HETATM   13  C   UNL     1     -48.664  60.582 -57.766  1.00  0.00     0.105 C 
HETATM   14  C   UNL     1     -47.196  60.962 -57.578  1.00  0.00     0.152 C 
HETATM   15  C   UNL     1     -43.797  57.062 -60.355  1.00  0.00     0.031 A 
HETATM   16  C   UNL     1     -43.051  56.220 -59.522  1.00  0.00     0.013 A 
HETATM   17  H   UNL     1     -45.189  58.641 -61.747  1.00  0.00     0.169 HD
ENDROOT
BRANCH   1  18
HETATM   18  C   UNL     1     -42.422  55.405 -57.270  1.00  0.00     0.012 C 
HETATM   19  C   UNL     1     -42.204  55.609 -55.961  1.00  0.00     0.012 C 
BRANCH  19  20
HETATM   20  C   UNL     1     -41.682  54.588 -55.042  1.00  0.00    -0.036 A 
HETATM   21  C   UNL     1     -40.523  53.887 -55.391  1.00  0.00     0.012 A 
HETATM   22  C   UNL     1     -39.916  53.019 -54.479  1.00  0.00     0.009 A 
HETATM   23  C   UNL     1     -40.449  52.846 -53.194  1.00  0.00    -0.049 A 
HETATM   24  C   UNL     1     -41.619  53.535 -52.851  1.00  0.00     0.009 A 
HETATM   25  C   UNL     1     -42.228  54.398 -53.766  1.00  0.00     0.012 A 
BRANCH  23  26
HETATM   26  C   UNL     1     -39.729  51.997 -52.177  1.00  0.00     0.112 C 
BRANCH  26  27
HETATM   27  S   UNL     1     -40.332  52.359 -50.495  1.00  0.00    -0.165 SA
BRANCH  27  28
HETATM   28  C   UNL     1     -40.355  50.670 -49.832  1.00  0.00     0.069 C 
HETATM   29  C   UNL     1     -39.832  49.704 -50.881  1.00  0.00     0.016 C 
ENDBRANCH  27  28
ENDBRANCH  26  27
ENDBRANCH  23  26
ENDBRANCH  19  20
ENDBRANCH   1  18
BRANCH  13  30
HETATM   30  N   UNL     1     -49.635  61.640 -57.560  1.00  0.00    -0.355 N 
HETATM   31  C   UNL     1     -50.845  61.474 -56.927  1.00  0.00     0.222 C 
HETATM   32  O   UNL     1     -51.194  60.391 -56.458  1.00  0.00    -0.273 OA
HETATM   33  H   UNL     1     -49.456  62.525 -58.024  1.00  0.00     0.162 HD
BRANCH  31  34
HETATM   34  C   UNL     1     -51.785  62.673 -56.848  1.00  0.00     0.148 C 
BRANCH  34  35
HETATM   35  C   UNL     1     -52.135  63.106 -55.455  1.00  0.00    -0.009 A 
HETATM   36  S   UNL     1     -53.754  62.984 -54.897  1.00  0.00    -0.106 SA
HETATM   37  C   UNL     1     -53.338  63.603 -53.360  1.00  0.00     0.050 A 
HETATM   38  C   UNL     1     -51.996  63.895 -53.266  1.00  0.00     0.008 A 
HETATM   39  C   UNL     1     -51.300  63.607 -54.477  1.00  0.00     0.015 A 
ENDBRANCH  34  35
ENDBRANCH  31  34
ENDBRANCH  13  30
TORSDOF 8
ENDMDL
MODEL 3
REMARK VINA RESULT:      -7.4      4.631     12.881
REMARK  8 active torsions:
REMARK  status: ('A' for Active; 'I' for Inactive)
REMARK    1  A    between atoms: C_2  and  S_3 
REMARK    2  A    between atoms: S_3  and  C_4 
REMARK    3  A    between atoms: C_4  and  C_5 
REMARK    4  A    between atoms: C_8  and  C_9 
REMARK    5  A    between atoms: C_10  and  C_11 
REMARK    6  A    between atoms: C_23  and  N_24 
REMARK       I    between atoms: N_24  and  C_25 
REMARK    7  A    between atoms: C_25  and  C_26 
REMARK    8  A    between atoms: C_26  and  C_27 
ROOT
HETATM    1  C   UNL     1     -43.179  56.123 -58.017  1.00  0.00    -0.035 A 
HETATM    2  C   UNL     1     -43.850  57.261 -57.551  1.00  0.00     0.030 A 
HETATM    3  C   UNL     1     -44.588  58.090 -58.416  1.00  0.00     0.059 A 
HETATM    4  C   UNL     1     -44.672  57.766 -59.776  1.00  0.00     0.050 A 
HETATM    5  N   UNL     1     -45.454  58.424 -60.741  1.00  0.00    -0.324 N 
HETATM    6  C   UNL     1     -46.660  59.054 -60.571  1.00  0.00     0.245 C 
HETATM    7  O   UNL     1     -47.310  59.325 -61.583  1.00  0.00    -0.271 OA
HETATM    8  C   UNL     1     -47.230  59.175 -59.159  1.00  0.00     0.182 C 
HETATM    9  N   UNL     1     -46.293  59.862 -58.283  1.00  0.00    -0.332 N 
HETATM   10  C   UNL     1     -45.119  59.337 -57.808  1.00  0.00     0.256 C 
HETATM   11  O   UNL     1     -44.497  59.853 -56.882  1.00  0.00    -0.267 OA
HETATM   12  C   UNL     1     -48.518  60.011 -59.104  1.00  0.00     0.061 C 
HETATM   13  C   UNL     1     -48.394  60.768 -57.779  1.00  0.00     0.105 C 
HETATM   14  C   UNL     1     -46.894  61.046 -57.689  1.00  0.00     0.152 C 
HETATM   15  C   UNL     1     -43.938  56.668 -60.253  1.00  0.00     0.031 A 
HETATM   16  C   UNL     1     -43.217  55.843 -59.382  1.00  0.00     0.013 A 
HETATM   17  H   UNL     1     -45.276  58.227 -61.718  1.00  0.00     0.169 HD
ENDROOT
BRANCH   1  18
HETATM   18  C   UNL     1     -42.539  55.177 -57.095  1.00  0.00     0.012 C 
HETATM   19  C   UNL     1     -42.160  55.501 -55.848  1.00  0.00     0.012 C 
BRANCH  19  20
HETATM   20  C   UNL     1     -41.669  54.533 -54.857  1.00  0.00    -0.036 A 
HETATM   21  C   UNL     1     -40.462  53.868 -55.095  1.00  0.00     0.012 A 
HETATM   22  C   UNL     1     -39.890  53.057 -54.111  1.00  0.00     0.009 A 
HETATM   23  C   UNL     1     -40.509  52.906 -52.862  1.00  0.00    -0.049 A 
HETATM   24  C   UNL     1     -41.726  53.560 -52.629  1.00  0.00     0.009 A 
HETATM   25  C   UNL     1     -42.299  54.366 -53.618  1.00  0.00     0.012 A 
BRANCH  23  26
HETATM   26  C   UNL     1     -39.834  52.123 -51.765  1.00  0.00     0.112 C 
BRANCH  26  27
HETATM   27  S   UNL     1     -40.572  52.517 -50.145  1.00  0.00    -0.165 SA
BRANCH  27  28
HETATM   28  C   UNL     1     -39.745  54.102 -49.834  1.00  0.00     0.069 C 
HETATM   29  C   UNL     1     -40.768  55.131 -49.386  1.00  0.00     0.016 C 
ENDBRANCH  27  28
ENDBRANCH  26  27
ENDBRANCH  23  26
ENDBRANCH  19  20
ENDBRANCH   1  18
BRANCH  13  30
HETATM   30  N   UNL     1     -49.272  61.913 -57.626  1.00  0.00    -0.355 N 
HETATM   31  C   UNL     1     -50.578  61.841 -57.203  1.00  0.00     0.222 C 
HETATM   32  O   UNL     1     -51.108  60.773 -56.895  1.00  0.00    -0.273 OA
HETATM   33  H   UNL     1     -48.930  62.803 -57.974  1.00  0.00     0.162 HD
BRANCH  31  34
HETATM   34  C   UNL     1     -51.390  63.131 -57.158  1.00  0.00     0.148 C 
BRANCH  34  35
HETATM   35  C   UNL     1     -52.198  63.322 -55.907  1.00  0.00    -0.009 A 
HETATM   36  S   UNL     1     -51.497  64.082 -54.538  1.00  0.00    -0.106 SA
HETATM   37  C   UNL     1     -52.943  63.938 -53.639  1.00  0.00     0.050 A 
HETATM   38  C   UNL     1     -53.943  63.330 -54.362  1.00  0.00     0.008 A 
HETATM   39  C   UNL     1     -53.513  62.973 -55.674  1.00  0.00     0.015 A 
ENDBRANCH  34  35
ENDBRANCH  31  34
ENDBRANCH  13  30
TORSDOF 8
ENDMDL
MODEL 4
REMARK VINA RESULT:      -7.2      5.737      8.766
REMARK  8 active torsions:
REMARK  status: ('A' for Active; 'I' for Inactive)
REMARK    1  A    between atoms: C_2  and  S_3 
REMARK    2  A    between atoms: S_3  and  C_4 
REMARK    3  A    between atoms: C_4  and  C_5 
REMARK    4  A    between atoms: C_8  and  C_9 
REMARK    5  A    between atoms: C_10  and  C_11 
REMARK    6  A    between atoms: C_23  and  N_24 
REMARK       I    between atoms: N_24  and  C_25 
REMARK    7  A    between atoms: C_25  and  C_26 
REMARK    8  A    between atoms: C_26  and  C_27 
ROOT
HETATM    1  C   UNL     1     -42.216  60.322 -50.874  1.00  0.00    -0.035 A 
HETATM    2  C   UNL     1     -42.662  60.338 -52.201  1.00  0.00     0.030 A 
HETATM    3  C   UNL     1     -42.204  59.400 -53.146  1.00  0.00     0.059 A 
HETATM    4  C   UNL     1     -41.293  58.412 -52.751  1.00  0.00     0.050 A 
HETATM    5  N   UNL     1     -40.830  57.345 -53.540  1.00  0.00    -0.324 N 
HETATM    6  C   UNL     1     -41.494  56.673 -54.534  1.00  0.00     0.245 C 
HETATM    7  O   UNL     1     -41.021  55.598 -54.910  1.00  0.00    -0.271 OA
HETATM    8  C   UNL     1     -42.879  57.163 -54.950  1.00  0.00     0.182 C 
HETATM    9  N   UNL     1     -42.826  58.555 -55.374  1.00  0.00    -0.332 N 
HETATM   10  C   UNL     1     -42.650  59.632 -54.544  1.00  0.00     0.256 C 
HETATM   11  O   UNL     1     -42.863  60.785 -54.912  1.00  0.00    -0.267 OA
HETATM   12  C   UNL     1     -43.447  56.398 -56.154  1.00  0.00     0.061 C 
HETATM   13  C   UNL     1     -44.194  57.479 -56.942  1.00  0.00     0.105 C 
HETATM   14  C   UNL     1     -43.317  58.713 -56.733  1.00  0.00     0.152 C 
HETATM   15  C   UNL     1     -40.792  58.445 -51.439  1.00  0.00     0.031 A 
HETATM   16  C   UNL     1     -41.263  59.375 -50.505  1.00  0.00     0.013 A 
HETATM   17  H   UNL     1     -40.027  56.821 -53.213  1.00  0.00     0.169 HD
ENDROOT
BRANCH   1  18
HETATM   18  C   UNL     1     -42.806  61.199 -49.854  1.00  0.00     0.012 C 
HETATM   19  C   UNL     1     -44.121  61.242 -49.586  1.00  0.00     0.012 C 
BRANCH  19  20
HETATM   20  C   UNL     1     -44.711  61.988 -48.466  1.00  0.00    -0.036 A 
HETATM   21  C   UNL     1     -45.056  61.302 -47.297  1.00  0.00     0.012 A 
HETATM   22  C   UNL     1     -45.478  61.998 -46.162  1.00  0.00     0.009 A 
HETATM   23  C   UNL     1     -45.550  63.398 -46.168  1.00  0.00    -0.049 A 
HETATM   24  C   UNL     1     -45.219  64.085 -47.344  1.00  0.00     0.009 A 
HETATM   25  C   UNL     1     -44.803  63.385 -48.481  1.00  0.00     0.012 A 
BRANCH  23  26
HETATM   26  C   UNL     1     -45.896  64.151 -44.909  1.00  0.00     0.112 C 
BRANCH  26  27
HETATM   27  S   UNL     1     -44.383  64.703 -44.053  1.00  0.00    -0.165 SA
BRANCH  27  28
HETATM   28  C   UNL     1     -44.377  63.508 -42.688  1.00  0.00     0.069 C 
HETATM   29  C   UNL     1     -43.046  62.776 -42.658  1.00  0.00     0.016 C 
ENDBRANCH  27  28
ENDBRANCH  26  27
ENDBRANCH  23  26
ENDBRANCH  19  20
ENDBRANCH   1  18
BRANCH  13  30
HETATM   30  N   UNL     1     -44.516  57.142 -58.316  1.00  0.00    -0.355 N 
HETATM   31  C   UNL     1     -45.782  57.188 -58.852  1.00  0.00     0.222 C 
HETATM   32  O   UNL     1     -46.758  57.546 -58.193  1.00  0.00    -0.273 OA
HETATM   33  H   UNL     1     -43.776  56.731 -58.875  1.00  0.00     0.162 HD
BRANCH  31  34
HETATM   34  C   UNL     1     -45.966  56.740 -60.298  1.00  0.00     0.148 C 
BRANCH  34  35
HETATM   35  C   UNL     1     -47.101  57.405 -61.022  1.00  0.00    -0.009 A 
HETATM   36  S   UNL     1     -47.222  59.116 -61.046  1.00  0.00    -0.106 SA
HETATM   37  C   UNL     1     -48.638  59.066 -62.000  1.00  0.00     0.050 A 
HETATM   38  C   UNL     1     -49.013  57.777 -62.302  1.00  0.00     0.008 A 
HETATM   39  C   UNL     1     -48.124  56.816 -61.737  1.00  0.00     0.015 A 
ENDBRANCH  34  35
ENDBRANCH  31  34
ENDBRANCH  13  30
TORSDOF 8
ENDMDL
MODEL 5
REMARK VINA RESULT:      -7.1      2.637     12.053
REMARK  8 active torsions:
REMARK  status: ('A' for Active; 'I' for Inactive)
REMARK    1  A    between atoms: C_2  and  S_3 
REMARK    2  A    between atoms: S_3  and  C_4 
REMARK    3  A    between atoms: C_4  and  C_5 
REMARK    4  A    between atoms: C_8  and  C_9 
REMARK    5  A    between atoms: C_10  and  C_11 
REMARK    6  A    between atoms: C_23  and  N_24 
REMARK       I    between atoms: N_24  and  C_25 
REMARK    7  A    between atoms: C_25  and  C_26 
REMARK    8  A    between atoms: C_26  and  C_27 
ROOT
HETATM    1  C   UNL     1     -42.105  58.351 -51.169  1.00  0.00    -0.035 A 
HETATM    2  C   UNL     1     -43.413  58.780 -51.422  1.00  0.00     0.030 A 
HETATM    3  C   UNL     1     -43.819  60.104 -51.165  1.00  0.00     0.059 A 
HETATM    4  C   UNL     1     -42.891  61.024 -50.661  1.00  0.00     0.050 A 
HETATM    5  N   UNL     1     -43.109  62.398 -50.458  1.00  0.00    -0.324 N 
HETATM    6  C   UNL     1     -43.920  63.243 -51.171  1.00  0.00     0.245 C 
HETATM    7  O   UNL     1     -43.760  64.456 -51.012  1.00  0.00    -0.271 OA
HETATM    8  C   UNL     1     -44.799  62.658 -52.273  1.00  0.00     0.182 C 
HETATM    9  N   UNL     1     -45.671  61.622 -51.740  1.00  0.00    -0.332 N 
HETATM   10  C   UNL     1     -45.269  60.373 -51.342  1.00  0.00     0.256 C 
HETATM   11  O   UNL     1     -46.068  59.460 -51.140  1.00  0.00    -0.267 OA
HETATM   12  C   UNL     1     -45.744  63.695 -52.899  1.00  0.00     0.061 C 
HETATM   13  C   UNL     1     -47.021  62.895 -53.171  1.00  0.00     0.105 C 
HETATM   14  C   UNL     1     -47.071  61.929 -51.987  1.00  0.00     0.152 C 
HETATM   15  C   UNL     1     -41.601  60.571 -50.339  1.00  0.00     0.031 A 
HETATM   16  C   UNL     1     -41.205  59.256 -50.609  1.00  0.00     0.013 A 
HETATM   17  H   UNL     1     -42.436  62.913 -49.904  1.00  0.00     0.169 HD
ENDROOT
BRANCH   1  18
HETATM   18  C   UNL     1     -41.640  57.019 -51.578  1.00  0.00     0.012 C 
HETATM   19  C   UNL     1     -42.150  56.347 -52.622  1.00  0.00     0.012 C 
BRANCH  19  20
HETATM   20  C   UNL     1     -41.595  55.091 -53.146  1.00  0.00    -0.036 A 
HETATM   21  C   UNL     1     -40.878  55.112 -54.347  1.00  0.00     0.012 A 
HETATM   22  C   UNL     1     -40.211  53.970 -54.798  1.00  0.00     0.009 A 
HETATM   23  C   UNL     1     -40.235  52.786 -54.046  1.00  0.00    -0.049 A 
HETATM   24  C   UNL     1     -40.965  52.761 -52.851  1.00  0.00     0.009 A 
HETATM   25  C   UNL     1     -41.637  53.903 -52.406  1.00  0.00     0.012 A 
BRANCH  23  26
HETATM   26  C   UNL     1     -39.421  51.592 -54.477  1.00  0.00     0.112 C 
BRANCH  26  27
HETATM   27  S   UNL     1     -40.319  50.044 -54.128  1.00  0.00    -0.165 SA
BRANCH  27  28
HETATM   28  C   UNL     1     -39.205  49.346 -52.877  1.00  0.00     0.069 C 
HETATM   29  C   UNL     1     -39.795  49.561 -51.493  1.00  0.00     0.016 C 
ENDBRANCH  27  28
ENDBRANCH  26  27
ENDBRANCH  23  26
ENDBRANCH  19  20
ENDBRANCH   1  18
BRANCH  13  30
HETATM   30  N   UNL     1     -48.215  63.682 -53.411  1.00  0.00    -0.355 N 
HETATM   31  C   UNL     1     -49.000  63.583 -54.536  1.00  0.00     0.222 C 
HETATM   32  O   UNL     1     -48.751  62.783 -55.438  1.00  0.00    -0.273 OA
HETATM   33  H   UNL     1     -48.406  64.437 -52.760  1.00  0.00     0.162 HD
BRANCH  31  34
HETATM   34  C   UNL     1     -50.189  64.529 -54.668  1.00  0.00     0.148 C 
BRANCH  34  35
HETATM   35  C   UNL     1     -51.509  63.939 -54.269  1.00  0.00    -0.009 A 
HETATM   36  S   UNL     1     -52.640  63.467 -55.471  1.00  0.00    -0.106 SA
HETATM   37  C   UNL     1     -53.759  62.929 -54.297  1.00  0.00     0.050 A 
HETATM   38  C   UNL     1     -53.286  63.098 -53.016  1.00  0.00     0.008 A 
HETATM   39  C   UNL     1     -51.985  63.681 -52.999  1.00  0.00     0.015 A 
ENDBRANCH  34  35
ENDBRANCH  31  34
ENDBRANCH  13  30
TORSDOF 8
ENDMDL
MODEL 6
REMARK VINA RESULT:      -7.1      6.612     13.652
REMARK  8 active torsions:
REMARK  status: ('A' for Active; 'I' for Inactive)
REMARK    1  A    between atoms: C_2  and  S_3 
REMARK    2  A    between atoms: S_3  and  C_4 
REMARK    3  A    between atoms: C_4  and  C_5 
REMARK    4  A    between atoms: C_8  and  C_9 
REMARK    5  A    between atoms: C_10  and  C_11 
REMARK    6  A    between atoms: C_23  and  N_24 
REMARK       I    between atoms: N_24  and  C_25 
REMARK    7  A    between atoms: C_25  and  C_26 
REMARK    8  A    between atoms: C_26  and  C_27 
ROOT
HETATM    1  C   UNL     1     -43.522  55.665 -58.351  1.00  0.00    -0.035 A 
HETATM    2  C   UNL     1     -43.847  56.956 -58.785  1.00  0.00     0.030 A 
HETATM    3  C   UNL     1     -44.785  57.176 -59.811  1.00  0.00     0.059 A 
HETATM    4  C   UNL     1     -45.425  56.082 -60.407  1.00  0.00     0.050 A 
HETATM    5  N   UNL     1     -46.458  56.139 -61.359  1.00  0.00    -0.324 N 
HETATM    6  C   UNL     1     -47.437  57.090 -61.493  1.00  0.00     0.245 C 
HETATM    7  O   UNL     1     -48.403  56.817 -62.208  1.00  0.00    -0.271 OA
HETATM    8  C   UNL     1     -47.394  58.318 -60.586  1.00  0.00     0.182 C 
HETATM    9  N   UNL     1     -46.129  59.022 -60.733  1.00  0.00    -0.332 N 
HETATM   10  C   UNL     1     -44.917  58.585 -60.264  1.00  0.00     0.256 C 
HETATM   11  O   UNL     1     -43.937  59.323 -60.191  1.00  0.00    -0.267 OA
HETATM   12  C   UNL     1     -48.474  59.354 -60.932  1.00  0.00     0.061 C 
HETATM   13  C   UNL     1     -47.771  60.693 -60.692  1.00  0.00     0.105 C 
HETATM   14  C   UNL     1     -46.337  60.405 -61.134  1.00  0.00     0.152 C 
HETATM   15  C   UNL     1     -45.042  54.787 -60.021  1.00  0.00     0.031 A 
HETATM   16  C   UNL     1     -44.117  54.580 -58.991  1.00  0.00     0.013 A 
HETATM   17  H   UNL     1     -46.696  55.292 -61.859  1.00  0.00     0.169 HD
ENDROOT
BRANCH   1  18
HETATM   18  C   UNL     1     -42.662  55.441 -57.181  1.00  0.00     0.012 C 
HETATM   19  C   UNL     1     -43.035  54.707 -56.120  1.00  0.00     0.012 C 
BRANCH  19  20
HETATM   20  C   UNL     1     -42.137  54.336 -55.018  1.00  0.00    -0.036 A 
HETATM   21  C   UNL     1     -42.661  54.209 -53.727  1.00  0.00     0.012 A 
HETATM   22  C   UNL     1     -41.872  53.714 -52.685  1.00  0.00     0.009 A 
HETATM   23  C   UNL     1     -40.546  53.322 -52.917  1.00  0.00    -0.049 A 
HETATM   24  C   UNL     1     -40.016  53.465 -54.206  1.00  0.00     0.009 A 
HETATM   25  C   UNL     1     -40.806  53.966 -55.246  1.00  0.00     0.012 A 
BRANCH  23  26
HETATM   26  C   UNL     1     -39.734  52.684 -51.818  1.00  0.00     0.112 C 
BRANCH  26  27
HETATM   27  S   UNL     1     -40.607  52.805 -50.222  1.00  0.00    -0.165 SA
BRANCH  27  28
HETATM   28  C   UNL     1     -39.932  54.389 -49.648  1.00  0.00     0.069 C 
HETATM   29  C   UNL     1     -41.050  55.410 -49.538  1.00  0.00     0.016 C 
ENDBRANCH  27  28
ENDBRANCH  26  27
ENDBRANCH  23  26
ENDBRANCH  19  20
ENDBRANCH   1  18
BRANCH  13  30
HETATM   30  N   UNL     1     -48.408  61.852 -61.289  1.00  0.00    -0.355 N 
HETATM   31  C   UNL     1     -49.248  62.710 -60.617  1.00  0.00     0.222 C 
HETATM   32  O   UNL     1     -49.513  62.566 -59.424  1.00  0.00    -0.273 OA
HETATM   33  H   UNL     1     -48.322  61.957 -62.294  1.00  0.00     0.162 HD
BRANCH  31  34
HETATM   34  C   UNL     1     -49.892  63.847 -61.405  1.00  0.00     0.148 C 
BRANCH  34  35
HETATM   35  C   UNL     1     -51.367  63.697 -61.633  1.00  0.00    -0.009 A 
HETATM   36  S   UNL     1     -51.999  62.221 -62.238  1.00  0.00    -0.106 SA
HETATM   37  C   UNL     1     -53.601  62.814 -62.194  1.00  0.00     0.050 A 
HETATM   38  C   UNL     1     -53.660  64.106 -61.724  1.00  0.00     0.008 A 
HETATM   39  C   UNL     1     -52.369  64.617 -61.399  1.00  0.00     0.015 A 
ENDBRANCH  34  35
ENDBRANCH  31  34
ENDBRANCH  13  30
TORSDOF 8
ENDMDL
MODEL 7
REMARK VINA RESULT:      -6.6      3.041     12.305
REMARK  8 active torsions:
REMARK  status: ('A' for Active; 'I' for Inactive)
REMARK    1  A    between atoms: C_2  and  S_3 
REMARK    2  A    between atoms: S_3  and  C_4 
REMARK    3  A    between atoms: C_4  and  C_5 
REMARK    4  A    between atoms: C_8  and  C_9 
REMARK    5  A    between atoms: C_10  and  C_11 
REMARK    6  A    between atoms: C_23  and  N_24 
REMARK       I    between atoms: N_24  and  C_25 
REMARK    7  A    between atoms: C_25  and  C_26 
REMARK    8  A    between atoms: C_26  and  C_27 
ROOT
HETATM    1  C   UNL     1     -43.025  58.753 -51.205  1.00  0.00    -0.035 A 
HETATM    2  C   UNL     1     -44.335  59.133 -51.519  1.00  0.00     0.030 A 
HETATM    3  C   UNL     1     -44.733  60.484 -51.520  1.00  0.00     0.059 A 
HETATM    4  C   UNL     1     -43.795  61.479 -51.216  1.00  0.00     0.050 A 
HETATM    5  N   UNL     1     -44.005  62.867 -51.282  1.00  0.00    -0.324 N 
HETATM    6  C   UNL     1     -44.823  63.563 -52.135  1.00  0.00     0.245 C 
HETATM    7  O   UNL     1     -44.657  64.782 -52.217  1.00  0.00    -0.271 OA
HETATM    8  C   UNL     1     -45.720  62.780 -53.091  1.00  0.00     0.182 C 
HETATM    9  N   UNL     1     -46.587  61.872 -52.355  1.00  0.00    -0.332 N 
HETATM   10  C   UNL     1     -46.184  60.722 -51.727  1.00  0.00     0.256 C 
HETATM   11  O   UNL     1     -46.983  59.871 -51.341  1.00  0.00    -0.267 OA
HETATM   12  C   UNL     1     -46.669  63.681 -53.894  1.00  0.00     0.061 C 
HETATM   13  C   UNL     1     -47.952  62.851 -53.989  1.00  0.00     0.105 C 
HETATM   14  C   UNL     1     -47.989  62.134 -52.639  1.00  0.00     0.152 C 
HETATM   15  C   UNL     1     -42.502  61.089 -50.829  1.00  0.00     0.031 A 
HETATM   16  C   UNL     1     -42.114  59.745 -50.843  1.00  0.00     0.013 A 
HETATM   17  H   UNL     1     -43.323  63.476 -50.847  1.00  0.00     0.169 HD
ENDROOT
BRANCH   1  18
HETATM   18  C   UNL     1     -42.571  57.364 -51.352  1.00  0.00     0.012 C 
HETATM   19  C   UNL     1     -41.359  56.937 -50.962  1.00  0.00     0.012 C 
BRANCH  19  20
HETATM   20  C   UNL     1     -40.946  55.528 -50.950  1.00  0.00    -0.036 A 
HETATM   21  C   UNL     1     -40.506  54.957 -49.751  1.00  0.00     0.012 A 
HETATM   22  C   UNL     1     -40.248  53.586 -49.668  1.00  0.00     0.009 A 
HETATM   23  C   UNL     1     -40.439  52.755 -50.780  1.00  0.00    -0.049 A 
HETATM   24  C   UNL     1     -40.864  53.329 -51.985  1.00  0.00     0.009 A 
HETATM   25  C   UNL     1     -41.115  54.701 -52.068  1.00  0.00     0.012 A 
BRANCH  23  26
HETATM   26  C   UNL     1     -40.269  51.262 -50.656  1.00  0.00     0.112 C 
BRANCH  26  27
HETATM   27  S   UNL     1     -38.927  50.676 -51.743  1.00  0.00    -0.165 SA
BRANCH  27  28
HETATM   28  C   UNL     1     -39.906  49.652 -52.876  1.00  0.00     0.069 C 
HETATM   29  C   UNL     1     -39.823  50.225 -54.281  1.00  0.00     0.016 C 
ENDBRANCH  27  28
ENDBRANCH  26  27
ENDBRANCH  23  26
ENDBRANCH  19  20
ENDBRANCH   1  18
BRANCH  13  30
HETATM   30  N   UNL     1     -49.147  63.584 -54.362  1.00  0.00    -0.355 N 
HETATM   31  C   UNL     1     -50.064  63.155 -55.294  1.00  0.00     0.222 C 
HETATM   32  O   UNL     1     -49.945  62.080 -55.881  1.00  0.00    -0.273 OA
HETATM   33  H   UNL     1     -49.240  64.527 -53.999  1.00  0.00     0.162 HD
BRANCH  31  34
HETATM   34  C   UNL     1     -51.236  64.074 -55.622  1.00  0.00     0.148 C 
BRANCH  34  35
HETATM   35  C   UNL     1     -52.571  63.391 -55.686  1.00  0.00    -0.009 A 
HETATM   36  S   UNL     1     -53.261  62.716 -54.267  1.00  0.00    -0.106 SA
HETATM   37  C   UNL     1     -54.652  62.198 -55.113  1.00  0.00     0.050 A 
HETATM   38  C   UNL     1     -54.600  62.534 -56.447  1.00  0.00     0.008 A 
HETATM   39  C   UNL     1     -53.398  63.224 -56.779  1.00  0.00     0.015 A 
ENDBRANCH  34  35
ENDBRANCH  31  34
ENDBRANCH  13  30
TORSDOF 8
ENDMDL
MODEL 8
REMARK VINA RESULT:      -6.5      4.783     13.124
REMARK  8 active torsions:
REMARK  status: ('A' for Active; 'I' for Inactive)
REMARK    1  A    between atoms: C_2  and  S_3 
REMARK    2  A    between atoms: S_3  and  C_4 
REMARK    3  A    between atoms: C_4  and  C_5 
REMARK    4  A    between atoms: C_8  and  C_9 
REMARK    5  A    between atoms: C_10  and  C_11 
REMARK    6  A    between atoms: C_23  and  N_24 
REMARK       I    between atoms: N_24  and  C_25 
REMARK    7  A    between atoms: C_25  and  C_26 
REMARK    8  A    between atoms: C_26  and  C_27 
ROOT
HETATM    1  C   UNL     1     -43.609  56.904 -56.834  1.00  0.00    -0.035 A 
HETATM    2  C   UNL     1     -44.504  57.952 -56.584  1.00  0.00     0.030 A 
HETATM    3  C   UNL     1     -45.033  58.736 -57.626  1.00  0.00     0.059 A 
HETATM    4  C   UNL     1     -44.672  58.457 -58.950  1.00  0.00     0.050 A 
HETATM    5  N   UNL     1     -45.195  59.071 -60.102  1.00  0.00    -0.324 N 
HETATM    6  C   UNL     1     -46.456  59.572 -60.299  1.00  0.00     0.245 C 
HETATM    7  O   UNL     1     -46.799  59.816 -61.458  1.00  0.00    -0.271 OA
HETATM    8  C   UNL     1     -47.431  59.583 -59.124  1.00  0.00     0.182 C 
HETATM    9  N   UNL     1     -46.876  60.325 -58.001  1.00  0.00    -0.332 N 
HETATM   10  C   UNL     1     -45.850  59.900 -57.198  1.00  0.00     0.256 C 
HETATM   11  O   UNL     1     -45.591  60.440 -56.125  1.00  0.00    -0.267 OA
HETATM   12  C   UNL     1     -48.757  60.284 -59.453  1.00  0.00     0.061 C 
HETATM   13  C   UNL     1     -49.116  60.999 -58.147  1.00  0.00     0.105 C 
HETATM   14  C   UNL     1     -47.749  61.420 -57.608  1.00  0.00     0.152 C 
HETATM   15  C   UNL     1     -43.717  57.456 -59.191  1.00  0.00     0.031 A 
HETATM   16  C   UNL     1     -43.207  56.674 -58.149  1.00  0.00     0.013 A 
HETATM   17  H   UNL     1     -44.713  58.930 -60.981  1.00  0.00     0.169 HD
ENDROOT
BRANCH   1  18
HETATM   18  C   UNL     1     -43.177  55.991 -55.768  1.00  0.00     0.012 C 
HETATM   19  C   UNL     1     -42.275  55.014 -55.953  1.00  0.00     0.012 C 
BRANCH  19  20
HETATM   20  C   UNL     1     -41.710  54.197 -54.870  1.00  0.00    -0.036 A 
HETATM   21  C   UNL     1     -40.500  53.527 -55.082  1.00  0.00     0.012 A 
HETATM   22  C   UNL     1     -39.859  52.866 -54.031  1.00  0.00     0.009 A 
HETATM   23  C   UNL     1     -40.409  52.874 -52.741  1.00  0.00    -0.049 A 
HETATM   24  C   UNL     1     -41.629  53.531 -52.532  1.00  0.00     0.009 A 
HETATM   25  C   UNL     1     -42.271  54.186 -53.587  1.00  0.00     0.012 A 
BRANCH  23  26
HETATM   26  C   UNL     1     -39.660  52.257 -51.588  1.00  0.00     0.112 C 
BRANCH  26  27
HETATM   27  S   UNL     1     -40.609  52.426 -50.040  1.00  0.00    -0.165 SA
BRANCH  27  28
HETATM   28  C   UNL     1     -39.880  53.970 -49.427  1.00  0.00     0.069 C 
HETATM   29  C   UNL     1     -40.978  54.989 -49.179  1.00  0.00     0.016 C 
ENDBRANCH  27  28
ENDBRANCH  26  27
ENDBRANCH  23  26
ENDBRANCH  19  20
ENDBRANCH   1  18
BRANCH  13  30
HETATM   30  N   UNL     1     -50.114  62.045 -58.259  1.00  0.00    -0.355 N 
HETATM   31  C   UNL     1     -51.026  62.359 -57.277  1.00  0.00     0.222 C 
HETATM   32  O   UNL     1     -51.049  61.772 -56.195  1.00  0.00    -0.273 OA
HETATM   33  H   UNL     1     -50.221  62.484 -59.167  1.00  0.00     0.162 HD
BRANCH  31  34
HETATM   34  C   UNL     1     -52.055  63.444 -57.574  1.00  0.00     0.148 C 
BRANCH  34  35
HETATM   35  C   UNL     1     -53.060  63.085 -58.629  1.00  0.00    -0.009 A 
HETATM   36  S   UNL     1     -54.072  61.715 -58.423  1.00  0.00    -0.106 SA
HETATM   37  C   UNL     1     -54.859  61.993 -59.914  1.00  0.00     0.050 A 
HETATM   38  C   UNL     1     -54.369  63.106 -60.557  1.00  0.00     0.008 A 
HETATM   39  C   UNL     1     -53.330  63.739 -59.815  1.00  0.00     0.015 A 
ENDBRANCH  34  35
ENDBRANCH  31  34
ENDBRANCH  13  30
TORSDOF 8
ENDMDL
MODEL 9
REMARK VINA RESULT:      -6.4      4.142     11.813
REMARK  8 active torsions:
REMARK  status: ('A' for Active; 'I' for Inactive)
REMARK    1  A    between atoms: C_2  and  S_3 
REMARK    2  A    between atoms: S_3  and  C_4 
REMARK    3  A    between atoms: C_4  and  C_5 
REMARK    4  A    between atoms: C_8  and  C_9 
REMARK    5  A    between atoms: C_10  and  C_11 
REMARK    6  A    between atoms: C_23  and  N_24 
REMARK       I    between atoms: N_24  and  C_25 
REMARK    7  A    between atoms: C_25  and  C_26 
REMARK    8  A    between atoms: C_26  and  C_27 
ROOT
HETATM    1  C   UNL     1     -43.773  57.809 -55.604  1.00  0.00    -0.035 A 
HETATM    2  C   UNL     1     -43.439  58.754 -54.627  1.00  0.00     0.030 A 
HETATM    3  C   UNL     1     -44.194  59.928 -54.445  1.00  0.00     0.059 A 
HETATM    4  C   UNL     1     -45.319  60.154 -55.247  1.00  0.00     0.050 A 
HETATM    5  N   UNL     1     -46.234  61.214 -55.117  1.00  0.00    -0.324 N 
HETATM    6  C   UNL     1     -46.620  61.867 -53.974  1.00  0.00     0.245 C 
HETATM    7  O   UNL     1     -47.629  62.573 -54.034  1.00  0.00    -0.271 OA
HETATM    8  C   UNL     1     -45.932  61.509 -52.659  1.00  0.00     0.182 C 
HETATM    9  N   UNL     1     -44.493  61.701 -52.762  1.00  0.00    -0.332 N 
HETATM   10  C   UNL     1     -43.635  60.903 -53.475  1.00  0.00     0.256 C 
HETATM   11  O   UNL     1     -42.416  60.956 -53.327  1.00  0.00    -0.267 OA
HETATM   12  C   UNL     1     -46.373  62.403 -51.491  1.00  0.00     0.061 C 
HETATM   13  C   UNL     1     -45.090  62.583 -50.675  1.00  0.00     0.105 C 
HETATM   14  C   UNL     1     -44.009  62.632 -51.756  1.00  0.00     0.152 C 
HETATM   15  C   UNL     1     -45.608  59.242 -56.275  1.00  0.00     0.031 A 
HETATM   16  C   UNL     1     -44.857  58.072 -56.439  1.00  0.00     0.013 A 
HETATM   17  H   UNL     1     -46.884  61.382 -55.875  1.00  0.00     0.169 HD
ENDROOT
BRANCH   1  18
HETATM   18  C   UNL     1     -43.081  56.517 -55.693  1.00  0.00     0.012 C 
HETATM   19  C   UNL     1     -42.136  56.123 -54.824  1.00  0.00     0.012 C 
BRANCH  19  20
HETATM   20  C   UNL     1     -41.548  54.777 -54.797  1.00  0.00    -0.036 A 
HETATM   21  C   UNL     1     -40.182  54.624 -55.056  1.00  0.00     0.012 A 
HETATM   22  C   UNL     1     -39.562  53.383 -54.892  1.00  0.00     0.009 A 
HETATM   23  C   UNL     1     -40.293  52.271 -54.452  1.00  0.00    -0.049 A 
HETATM   24  C   UNL     1     -41.665  52.420 -54.209  1.00  0.00     0.009 A 
HETATM   25  C   UNL     1     -42.285  53.661 -54.379  1.00  0.00     0.012 A 
BRANCH  23  26
HETATM   26  C   UNL     1     -39.599  50.963 -54.169  1.00  0.00     0.112 C 
BRANCH  26  27
HETATM   27  S   UNL     1     -39.977  50.387 -52.481  1.00  0.00    -0.165 SA
BRANCH  27  28
HETATM   28  C   UNL     1     -39.248  51.758 -51.542  1.00  0.00     0.069 C 
HETATM   29  C   UNL     1     -40.331  52.462 -50.744  1.00  0.00     0.016 C 
ENDBRANCH  27  28
ENDBRANCH  26  27
ENDBRANCH  23  26
ENDBRANCH  19  20
ENDBRANCH   1  18
BRANCH  13  30
HETATM   30  N   UNL     1     -45.099  63.677 -49.723  1.00  0.00    -0.355 N 
HETATM   31  C   UNL     1     -44.831  63.544 -48.381  1.00  0.00     0.222 C 
HETATM   32  O   UNL     1     -44.537  62.459 -47.878  1.00  0.00    -0.273 OA
HETATM   33  H   UNL     1     -45.447  64.571 -50.055  1.00  0.00     0.162 HD
BRANCH  31  34
HETATM   34  C   UNL     1     -44.947  64.782 -47.499  1.00  0.00     0.148 C 
BRANCH  34  35
HETATM   35  C   UNL     1     -45.433  64.518 -46.104  1.00  0.00    -0.009 A 
HETATM   36  S   UNL     1     -47.111  64.327 -45.800  1.00  0.00    -0.106 SA
HETATM   37  C   UNL     1     -46.844  64.065 -44.133  1.00  0.00     0.050 A 
HETATM   38  C   UNL     1     -45.507  64.116 -43.810  1.00  0.00     0.008 A 
HETATM   39  C   UNL     1     -44.691  64.377 -44.949  1.00  0.00     0.015 A 
ENDBRANCH  34  35
ENDBRANCH  31  34
ENDBRANCH  13  30
TORSDOF 8
ENDMDL
MODEL 10
REMARK VINA RESULT:      -6.4      6.034     12.668
REMARK  8 active torsions:
REMARK  status: ('A' for Active; 'I' for Inactive)
REMARK    1  A    between atoms: C_2  and  S_3 
REMARK    2  A    between atoms: S_3  and  C_4 
REMARK    3  A    between atoms: C_4  and  C_5 
REMARK    4  A    between atoms: C_8  and  C_9 
REMARK    5  A    between atoms: C_10  and  C_11 
REMARK    6  A    between atoms: C_23  and  N_24 
REMARK       I    between atoms: N_24  and  C_25 
REMARK    7  A    between atoms: C_25  and  C_26 
REMARK    8  A    between atoms: C_26  and  C_27 
ROOT
HETATM    1  C   UNL     1     -42.725  58.505 -56.772  1.00  0.00    -0.035 A 
HETATM    2  C   UNL     1     -44.081  58.577 -57.112  1.00  0.00     0.030 A 
HETATM    3  C   UNL     1     -44.552  59.475 -58.088  1.00  0.00     0.059 A 
HETATM    4  C   UNL     1     -43.644  60.309 -58.752  1.00  0.00     0.050 A 
HETATM    5  N   UNL     1     -43.938  61.174 -59.821  1.00  0.00    -0.324 N 
HETATM    6  C   UNL     1     -44.883  61.020 -60.803  1.00  0.00     0.245 C 
HETATM    7  O   UNL     1     -44.796  61.745 -61.797  1.00  0.00    -0.271 OA
HETATM    8  C   UNL     1     -45.834  59.828 -60.724  1.00  0.00     0.182 C 
HETATM    9  N   UNL     1     -46.562  59.834 -59.464  1.00  0.00    -0.332 N 
HETATM   10  C   UNL     1     -46.029  59.542 -58.235  1.00  0.00     0.256 C 
HETATM   11  O   UNL     1     -46.731  59.317 -57.252  1.00  0.00    -0.267 OA
HETATM   12  C   UNL     1     -46.915  59.852 -61.814  1.00  0.00     0.061 C 
HETATM   13  C   UNL     1     -48.152  59.300 -61.100  1.00  0.00     0.105 C 
HETATM   14  C   UNL     1     -48.000  59.856 -59.684  1.00  0.00     0.152 C 
HETATM   15  C   UNL     1     -42.297  60.288 -58.357  1.00  0.00     0.031 A 
HETATM   16  C   UNL     1     -41.838  59.382 -57.393  1.00  0.00     0.013 A 
HETATM   17  H   UNL     1     -43.247  61.868 -60.080  1.00  0.00     0.169 HD
ENDROOT
BRANCH   1  18
HETATM   18  C   UNL     1     -42.212  57.467 -55.868  1.00  0.00     0.012 C 
HETATM   19  C   UNL     1     -42.738  56.235 -55.785  1.00  0.00     0.012 C 
BRANCH  19  20
HETATM   20  C   UNL     1     -42.145  55.135 -55.012  1.00  0.00    -0.036 A 
HETATM   21  C   UNL     1     -40.893  54.636 -55.387  1.00  0.00     0.012 A 
HETATM   22  C   UNL     1     -40.233  53.698 -54.590  1.00  0.00     0.009 A 
HETATM   23  C   UNL     1     -40.806  53.249 -53.392  1.00  0.00    -0.049 A 
HETATM   24  C   UNL     1     -42.067  53.736 -53.024  1.00  0.00     0.009 A 
HETATM   25  C   UNL     1     -42.728  54.670 -53.827  1.00  0.00     0.012 A 
BRANCH  23  26
HETATM   26  C   UNL     1     -40.042  52.323 -52.480  1.00  0.00     0.112 C 
BRANCH  26  27
HETATM   27  S   UNL     1     -40.577  52.540 -50.750  1.00  0.00    -0.165 SA
BRANCH  27  28
HETATM   28  C   UNL     1     -39.637  54.040 -50.348  1.00  0.00     0.069 C 
HETATM   29  C   UNL     1     -40.591  55.134 -49.903  1.00  0.00     0.016 C 
ENDBRANCH  27  28
ENDBRANCH  26  27
ENDBRANCH  23  26
ENDBRANCH  19  20
ENDBRANCH   1  18
BRANCH  13  30
HETATM   30  N   UNL     1     -49.420  59.551 -61.758  1.00  0.00    -0.355 N 
HETATM   31  C   UNL     1     -50.140  58.604 -62.450  1.00  0.00     0.222 C 
HETATM   32  O   UNL     1     -49.759  57.438 -62.548  1.00  0.00    -0.273 OA
HETATM   33  H   UNL     1     -49.727  60.517 -61.811  1.00  0.00     0.162 HD
BRANCH  31  34
HETATM   34  C   UNL     1     -51.425  59.043 -63.142  1.00  0.00     0.148 C 
BRANCH  34  35
HETATM   35  C   UNL     1     -52.485  59.573 -62.222  1.00  0.00    -0.009 A 
HETATM   36  S   UNL     1     -53.422  58.491 -61.275  1.00  0.00    -0.106 SA
HETATM   37  C   UNL     1     -54.298  59.773 -60.562  1.00  0.00     0.050 A 
HETATM   38  C   UNL     1     -53.888  61.001 -61.027  1.00  0.00     0.008 A 
HETATM   39  C   UNL     1     -52.840  60.887 -61.987  1.00  0.00     0.015 A 
ENDBRANCH  34  35
ENDBRANCH  31  34
ENDBRANCH  13  30
TORSDOF 8
ENDMDL
