MODEL 1
REMARK VINA RESULT:      -8.6      0.000      0.000
REMARK  7 active torsions:
REMARK  status: ('A' for Active; 'I' for Inactive)
REMARK    1  A    between atoms: C_2  and  C_3 
REMARK    2  A    between atoms: C_3  and  C_4 
REMARK    3  A    between atoms: C_7  and  C_8 
REMARK    4  A    between atoms: C_14  and  C_15 
REMARK    5  A    between atoms: C_16  and  O_17 
REMARK    6  A    between atoms: O_17  and  C_18 
REMARK       I    between atoms: C_18  and  N_19 
REMARK    7  A    between atoms: C_33  and  N_34 
ROOT
HETATM    1  C   UNL     1     -43.330  57.223 -55.310  1.00  0.00     0.099 A 
HETATM    2  N   UNL     1     -43.580  57.711 -56.543  1.00  0.00    -0.172 NA
HETATM    3  N   UNL     1     -44.426  58.738 -56.346  1.00  0.00    -0.256 N 
HETATM    4  H   UNL     1     -44.773  59.248 -57.150  1.00  0.00     0.191 HD
HETATM    5  C   UNL     1     -44.711  58.938 -55.036  1.00  0.00     0.175 A 
HETATM    6  C   UNL     1     -43.998  58.006 -54.328  1.00  0.00     0.040 A 
HETATM    7  C   UNL     1     -44.086  57.990 -52.840  1.00  0.00     0.109 A 
HETATM    8  C   UNL     1     -45.149  58.981 -52.356  1.00  0.00     0.081 A 
HETATM    9  C   UNL     1     -45.488  58.915 -50.973  1.00  0.00     0.100 C 
HETATM   10  N   UNL     1     -45.769  58.836 -49.849  1.00  0.00    -0.191 NA
HETATM   11  C   UNL     1     -45.796  59.839 -53.191  1.00  0.00     0.140 A 
HETATM   12  O   UNL     1     -45.535  59.869 -54.573  1.00  0.00    -0.279 OA
ENDROOT
BRANCH   7  13
HETATM   13  C   UNL     1     -42.699  58.325 -52.302  1.00  0.00    -0.010 A 
HETATM   14  C   UNL     1     -42.115  57.544 -51.284  1.00  0.00     0.088 A 
HETATM   15  C   UNL     1     -40.885  57.889 -50.720  1.00  0.00     0.038 A 
HETATM   16  C   UNL     1     -40.199  59.011 -51.182  1.00  0.00     0.003 A 
HETATM   17  C   UNL     1     -40.752  59.800 -52.186  1.00  0.00     0.001 A 
HETATM   18  C   UNL     1     -41.993  59.469 -52.732  1.00  0.00     0.011 A 
BRANCH  14  19
HETATM   19  O   UNL     1     -42.885  56.453 -50.798  1.00  0.00    -0.261 OA
BRANCH  19  20
HETATM   20  C   UNL     1     -42.684  55.102 -51.102  1.00  0.00     0.368 C 
HETATM   21  N   UNL     1     -41.829  54.483 -50.202  1.00  0.00    -0.324 N 
HETATM   22  C   UNL     1     -41.059  55.225 -49.203  1.00  0.00     0.154 C 
HETATM   23  C   UNL     1     -41.276  53.178 -50.560  1.00  0.00     0.154 C 
HETATM   24  C   UNL     1     -40.678  54.330 -48.020  1.00  0.00     0.187 C 
HETATM   25  O   UNL     1     -40.017  53.136 -48.462  1.00  0.00    -0.388 OA
HETATM   26  C   UNL     1     -40.878  52.374 -49.321  1.00  0.00     0.187 C 
HETATM   27  O   UNL     1     -43.204  54.517 -52.046  1.00  0.00    -0.238 OA
ENDBRANCH  19  20
ENDBRANCH  14  19
ENDBRANCH   7  13
BRANCH  11  28
HETATM   28  N   UNL     1     -46.762  60.745 -52.813  1.00  0.00    -0.282 NA
HETATM   29  H   UNL     1     -47.400  60.428 -52.087  1.00  0.00     0.126 HD
HETATM   30  H   UNL     1     -46.371  61.664 -52.623  1.00  0.00     0.126 HD
ENDBRANCH  11  28
BRANCH   1  31
HETATM   31  C   UNL     1     -42.472  56.053 -55.130  1.00  0.00    -0.005 A 
HETATM   32  C   UNL     1     -41.152  56.214 -54.690  1.00  0.00     0.014 A 
HETATM   33  C   UNL     1     -40.312  55.109 -54.530  1.00  0.00     0.008 A 
HETATM   34  C   UNL     1     -40.777  53.818 -54.807  1.00  0.00    -0.058 A 
HETATM   35  C   UNL     1     -42.096  53.655 -55.250  1.00  0.00     0.008 A 
HETATM   36  C   UNL     1     -42.932  54.762 -55.417  1.00  0.00     0.014 A 
BRANCH  34  37
HETATM   37  C   UNL     1     -39.872  52.621 -54.641  1.00  0.00     0.042 C 
BRANCH  37  38
HETATM   38  C   UNL     1     -40.442  51.538 -53.705  1.00  0.00    -0.019 C 
HETATM   39  C   UNL     1     -39.492  51.223 -52.547  1.00  0.00     0.010 C 
HETATM   40  C   UNL     1     -40.723  50.263 -54.503  1.00  0.00     0.010 C 
ENDBRANCH  37  38
ENDBRANCH  34  37
ENDBRANCH   1  31
TORSDOF 7
ENDMDL
MODEL 2
REMARK VINA RESULT:      -8.4      1.461      2.077
REMARK  7 active torsions:
REMARK  status: ('A' for Active; 'I' for Inactive)
REMARK    1  A    between atoms: C_2  and  C_3 
REMARK    2  A    between atoms: C_3  and  C_4 
REMARK    3  A    between atoms: C_7  and  C_8 
REMARK    4  A    between atoms: C_14  and  C_15 
REMARK    5  A    between atoms: C_16  and  O_17 
REMARK    6  A    between atoms: O_17  and  C_18 
REMARK       I    between atoms: C_18  and  N_19 
REMARK    7  A    between atoms: C_33  and  N_34 
ROOT
HETATM    1  C   UNL     1     -42.768  55.746 -56.340  1.00  0.00     0.099 A 
HETATM    2  N   UNL     1     -42.843  55.705 -57.687  1.00  0.00    -0.172 NA
HETATM    3  N   UNL     1     -43.663  56.718 -58.021  1.00  0.00    -0.256 N 
HETATM    4  H   UNL     1     -43.886  56.865 -58.998  1.00  0.00     0.191 HD
HETATM    5  C   UNL     1     -44.098  57.416 -56.944  1.00  0.00     0.175 A 
HETATM    6  C   UNL     1     -43.518  56.846 -55.840  1.00  0.00     0.040 A 
HETATM    7  C   UNL     1     -43.790  57.418 -54.491  1.00  0.00     0.109 A 
HETATM    8  C   UNL     1     -44.862  58.509 -54.578  1.00  0.00     0.081 A 
HETATM    9  C   UNL     1     -45.372  58.990 -53.337  1.00  0.00     0.100 C 
HETATM   10  N   UNL     1     -45.792  59.359 -52.319  1.00  0.00    -0.191 NA
HETATM   11  C   UNL     1     -45.364  58.961 -55.759  1.00  0.00     0.140 A 
HETATM   12  O   UNL     1     -44.934  58.446 -56.995  1.00  0.00    -0.279 OA
ENDROOT
BRANCH   7  13
HETATM   13  C   UNL     1     -42.467  57.952 -53.952  1.00  0.00    -0.010 A 
HETATM   14  C   UNL     1     -41.771  57.259 -52.941  1.00  0.00     0.088 A 
HETATM   15  C   UNL     1     -40.604  57.779 -52.376  1.00  0.00     0.038 A 
HETATM   16  C   UNL     1     -40.095  58.995 -52.831  1.00  0.00     0.003 A 
HETATM   17  C   UNL     1     -40.762  59.699 -53.828  1.00  0.00     0.001 A 
HETATM   18  C   UNL     1     -41.941  59.191 -54.374  1.00  0.00     0.011 A 
BRANCH  14  19
HETATM   19  O   UNL     1     -42.368  56.062 -52.462  1.00  0.00    -0.261 OA
BRANCH  19  20
HETATM   20  C   UNL     1     -42.729  55.795 -51.136  1.00  0.00     0.368 C 
HETATM   21  N   UNL     1     -41.741  55.101 -50.453  1.00  0.00    -0.324 N 
HETATM   22  C   UNL     1     -40.573  54.524 -51.121  1.00  0.00     0.154 C 
HETATM   23  C   UNL     1     -42.090  54.479 -49.177  1.00  0.00     0.154 C 
HETATM   24  C   UNL     1     -39.409  54.341 -50.143  1.00  0.00     0.187 C 
HETATM   25  O   UNL     1     -39.814  53.600 -48.984  1.00  0.00    -0.388 OA
HETATM   26  C   UNL     1     -40.862  54.291 -48.286  1.00  0.00     0.187 C 
HETATM   27  O   UNL     1     -43.787  56.137 -50.621  1.00  0.00    -0.238 OA
ENDBRANCH  19  20
ENDBRANCH  14  19
ENDBRANCH   7  13
BRANCH  11  28
HETATM   28  N   UNL     1     -46.330  59.932 -55.896  1.00  0.00    -0.282 NA
HETATM   29  H   UNL     1     -46.493  60.257 -56.847  1.00  0.00     0.126 HD
HETATM   30  H   UNL     1     -47.189  59.689 -55.409  1.00  0.00     0.126 HD
ENDBRANCH  11  28
BRANCH   1  31
HETATM   31  C   UNL     1     -41.989  54.750 -55.605  1.00  0.00    -0.005 A 
HETATM   32  C   UNL     1     -42.636  53.672 -54.987  1.00  0.00     0.014 A 
HETATM   33  C   UNL     1     -41.910  52.721 -54.266  1.00  0.00     0.008 A 
HETATM   34  C   UNL     1     -40.519  52.830 -54.148  1.00  0.00    -0.058 A 
HETATM   35  C   UNL     1     -39.870  53.909 -54.762  1.00  0.00     0.008 A 
HETATM   36  C   UNL     1     -40.600  54.863 -55.477  1.00  0.00     0.014 A 
BRANCH  34  37
HETATM   37  C   UNL     1     -39.730  51.808 -53.365  1.00  0.00     0.042 C 
BRANCH  37  38
HETATM   38  C   UNL     1     -40.214  50.360 -53.571  1.00  0.00    -0.019 C 
HETATM   39  C   UNL     1     -39.801  49.447 -52.413  1.00  0.00     0.010 C 
HETATM   40  C   UNL     1     -39.654  49.811 -54.885  1.00  0.00     0.010 C 
ENDBRANCH  37  38
ENDBRANCH  34  37
ENDBRANCH   1  31
TORSDOF 7
ENDMDL
MODEL 3
REMARK VINA RESULT:      -7.9      3.068      5.615
REMARK  7 active torsions:
REMARK  status: ('A' for Active; 'I' for Inactive)
REMARK    1  A    between atoms: C_2  and  C_3 
REMARK    2  A    between atoms: C_3  and  C_4 
REMARK    3  A    between atoms: C_7  and  C_8 
REMARK    4  A    between atoms: C_14  and  C_15 
REMARK    5  A    between atoms: C_16  and  O_17 
REMARK    6  A    between atoms: O_17  and  C_18 
REMARK       I    between atoms: C_18  and  N_19 
REMARK    7  A    between atoms: C_33  and  N_34 
ROOT
HETATM    1  C   UNL     1     -43.529  55.814 -58.077  1.00  0.00     0.099 A 
HETATM    2  N   UNL     1     -43.255  54.942 -59.069  1.00  0.00    -0.172 NA
HETATM    3  N   UNL     1     -43.962  55.382 -60.125  1.00  0.00    -0.256 N 
HETATM    4  H   UNL     1     -43.926  54.857 -60.991  1.00  0.00     0.191 HD
HETATM    5  C   UNL     1     -44.660  56.511 -59.853  1.00  0.00     0.175 A 
HETATM    6  C   UNL     1     -44.384  56.846 -58.553  1.00  0.00     0.040 A 
HETATM    7  C   UNL     1     -44.994  58.072 -57.966  1.00  0.00     0.109 A 
HETATM    8  C   UNL     1     -46.009  58.683 -58.937  1.00  0.00     0.081 A 
HETATM    9  C   UNL     1     -46.821  59.734 -58.420  1.00  0.00     0.100 C 
HETATM   10  N   UNL     1     -47.489  60.575 -57.979  1.00  0.00    -0.191 NA
HETATM   11  C   UNL     1     -46.191  58.223 -60.205  1.00  0.00     0.140 A 
HETATM   12  O   UNL     1     -45.456  57.136 -60.713  1.00  0.00    -0.279 OA
ENDROOT
BRANCH   7  13
HETATM   13  C   UNL     1     -43.855  59.034 -57.643  1.00  0.00    -0.010 A 
HETATM   14  C   UNL     1     -43.656  59.496 -56.326  1.00  0.00     0.088 A 
HETATM   15  C   UNL     1     -42.674  60.443 -56.030  1.00  0.00     0.038 A 
HETATM   16  C   UNL     1     -41.850  60.929 -57.044  1.00  0.00     0.003 A 
HETATM   17  C   UNL     1     -42.023  60.489 -58.352  1.00  0.00     0.001 A 
HETATM   18  C   UNL     1     -43.022  59.562 -58.652  1.00  0.00     0.011 A 
BRANCH  14  19
HETATM   19  O   UNL     1     -44.567  59.026 -55.341  1.00  0.00    -0.261 OA
BRANCH  19  20
HETATM   20  C   UNL     1     -45.096  59.774 -54.284  1.00  0.00     0.368 C 
HETATM   21  N   UNL     1     -45.066  59.081 -53.083  1.00  0.00    -0.324 N 
HETATM   22  C   UNL     1     -44.735  57.657 -52.999  1.00  0.00     0.154 C 
HETATM   23  C   UNL     1     -45.859  59.594 -51.968  1.00  0.00     0.154 C 
HETATM   24  C   UNL     1     -44.218  57.290 -51.605  1.00  0.00     0.187 C 
HETATM   25  O   UNL     1     -45.131  57.713 -50.583  1.00  0.00    -0.388 OA
HETATM   26  C   UNL     1     -45.301  59.138 -50.620  1.00  0.00     0.187 C 
HETATM   27  O   UNL     1     -45.530  60.916 -54.389  1.00  0.00    -0.238 OA
ENDBRANCH  19  20
ENDBRANCH  14  19
ENDBRANCH   7  13
BRANCH  11  28
HETATM   28  N   UNL     1     -47.090  58.728 -61.116  1.00  0.00    -0.282 NA
HETATM   29  H   UNL     1     -47.964  58.214 -61.201  1.00  0.00     0.126 HD
HETATM   30  H   UNL     1     -47.229  59.729 -61.001  1.00  0.00     0.126 HD
ENDBRANCH  11  28
BRANCH   1  31
HETATM   31  C   UNL     1     -42.964  55.626 -56.741  1.00  0.00    -0.005 A 
HETATM   32  C   UNL     1     -42.109  56.597 -56.200  1.00  0.00     0.014 A 
HETATM   33  C   UNL     1     -41.547  56.426 -54.933  1.00  0.00     0.008 A 
HETATM   34  C   UNL     1     -41.827  55.280 -54.180  1.00  0.00    -0.058 A 
HETATM   35  C   UNL     1     -42.678  54.307 -54.720  1.00  0.00     0.008 A 
HETATM   36  C   UNL     1     -43.234  54.476 -55.992  1.00  0.00     0.014 A 
BRANCH  34  37
HETATM   37  C   UNL     1     -41.217  55.088 -52.812  1.00  0.00     0.042 C 
BRANCH  37  38
HETATM   38  C   UNL     1     -41.571  53.739 -52.158  1.00  0.00    -0.019 C 
HETATM   39  C   UNL     1     -42.547  53.908 -50.991  1.00  0.00     0.010 C 
HETATM   40  C   UNL     1     -40.295  53.051 -51.669  1.00  0.00     0.010 C 
ENDBRANCH  37  38
ENDBRANCH  34  37
ENDBRANCH   1  31
TORSDOF 7
ENDMDL
MODEL 4
REMARK VINA RESULT:      -7.8      2.491      4.389
REMARK  7 active torsions:
REMARK  status: ('A' for Active; 'I' for Inactive)
REMARK    1  A    between atoms: C_2  and  C_3 
REMARK    2  A    between atoms: C_3  and  C_4 
REMARK    3  A    between atoms: C_7  and  C_8 
REMARK    4  A    between atoms: C_14  and  C_15 
REMARK    5  A    between atoms: C_16  and  O_17 
REMARK    6  A    between atoms: O_17  and  C_18 
REMARK       I    between atoms: C_18  and  N_19 
REMARK    7  A    between atoms: C_33  and  N_34 
ROOT
HETATM    1  C   UNL     1     -45.192  59.693 -55.060  1.00  0.00     0.099 A 
HETATM    2  N   UNL     1     -45.884  60.851 -55.101  1.00  0.00    -0.172 NA
HETATM    3  N   UNL     1     -46.263  61.075 -53.830  1.00  0.00    -0.256 N 
HETATM    4  H   UNL     1     -46.825  61.893 -53.624  1.00  0.00     0.191 HD
HETATM    5  C   UNL     1     -45.824  60.119 -52.976  1.00  0.00     0.175 A 
HETATM    6  C   UNL     1     -45.098  59.225 -53.720  1.00  0.00     0.040 A 
HETATM    7  C   UNL     1     -44.458  58.060 -53.047  1.00  0.00     0.109 A 
HETATM    8  C   UNL     1     -44.889  57.986 -51.579  1.00  0.00     0.081 A 
HETATM    9  C   UNL     1     -44.523  56.802 -50.874  1.00  0.00     0.100 C 
HETATM   10  N   UNL     1     -44.235  55.824 -50.319  1.00  0.00    -0.191 NA
HETATM   11  C   UNL     1     -45.638  58.950 -50.978  1.00  0.00     0.140 A 
HETATM   12  O   UNL     1     -46.078  60.091 -51.674  1.00  0.00    -0.279 OA
ENDROOT
BRANCH   7  13
HETATM   13  C   UNL     1     -42.949  58.225 -53.196  1.00  0.00    -0.010 A 
HETATM   14  C   UNL     1     -42.129  57.114 -53.481  1.00  0.00     0.088 A 
HETATM   15  C   UNL     1     -40.738  57.234 -53.534  1.00  0.00     0.038 A 
HETATM   16  C   UNL     1     -40.140  58.476 -53.328  1.00  0.00     0.003 A 
HETATM   17  C   UNL     1     -40.925  59.589 -53.046  1.00  0.00     0.001 A 
HETATM   18  C   UNL     1     -42.313  59.464 -52.968  1.00  0.00     0.011 A 
BRANCH  14  19
HETATM   19  O   UNL     1     -42.781  55.858 -53.611  1.00  0.00    -0.261 OA
BRANCH  19  20
HETATM   20  C   UNL     1     -42.345  54.781 -54.391  1.00  0.00     0.368 C 
HETATM   21  N   UNL     1     -41.526  53.916 -53.680  1.00  0.00    -0.324 N 
HETATM   22  C   UNL     1     -41.004  54.234 -52.350  1.00  0.00     0.154 C 
HETATM   23  C   UNL     1     -40.745  52.932 -54.428  1.00  0.00     0.154 C 
HETATM   24  C   UNL     1     -40.644  52.962 -51.577  1.00  0.00     0.187 C 
HETATM   25  O   UNL     1     -39.764  52.123 -52.337  1.00  0.00    -0.388 OA
HETATM   26  C   UNL     1     -40.388  51.721 -53.566  1.00  0.00     0.187 C 
HETATM   27  O   UNL     1     -42.651  54.603 -55.565  1.00  0.00    -0.238 OA
ENDBRANCH  19  20
ENDBRANCH  14  19
ENDBRANCH   7  13
BRANCH  11  28
HETATM   28  N   UNL     1     -46.059  58.933 -49.667  1.00  0.00    -0.282 NA
HETATM   29  H   UNL     1     -46.446  59.807 -49.320  1.00  0.00     0.126 HD
HETATM   30  H   UNL     1     -46.650  58.131 -49.466  1.00  0.00     0.126 HD
ENDBRANCH  11  28
BRANCH   1  31
HETATM   31  C   UNL     1     -44.655  59.101 -56.285  1.00  0.00    -0.005 A 
HETATM   32  C   UNL     1     -45.526  58.659 -57.289  1.00  0.00     0.014 A 
HETATM   33  C   UNL     1     -45.031  58.074 -58.457  1.00  0.00     0.008 A 
HETATM   34  C   UNL     1     -43.652  57.919 -58.644  1.00  0.00    -0.058 A 
HETATM   35  C   UNL     1     -42.779  58.357 -57.640  1.00  0.00     0.008 A 
HETATM   36  C   UNL     1     -43.277  58.935 -56.468  1.00  0.00     0.014 A 
BRANCH  34  37
HETATM   37  C   UNL     1     -43.112  57.283 -59.903  1.00  0.00     0.042 C 
BRANCH  37  38
HETATM   38  C   UNL     1     -43.489  55.797 -60.058  1.00  0.00    -0.019 C 
HETATM   39  C   UNL     1     -44.804  55.616 -60.821  1.00  0.00     0.010 C 
HETATM   40  C   UNL     1     -43.599  55.146 -58.678  1.00  0.00     0.010 C 
ENDBRANCH  37  38
ENDBRANCH  34  37
ENDBRANCH   1  31
TORSDOF 7
ENDMDL
MODEL 5
REMARK VINA RESULT:      -7.4      2.840      7.128
REMARK  7 active torsions:
REMARK  status: ('A' for Active; 'I' for Inactive)
REMARK    1  A    between atoms: C_2  and  C_3 
REMARK    2  A    between atoms: C_3  and  C_4 
REMARK    3  A    between atoms: C_7  and  C_8 
REMARK    4  A    between atoms: C_14  and  C_15 
REMARK    5  A    between atoms: C_16  and  O_17 
REMARK    6  A    between atoms: O_17  and  C_18 
REMARK       I    between atoms: C_18  and  N_19 
REMARK    7  A    between atoms: C_33  and  N_34 
ROOT
HETATM    1  C   UNL     1     -44.887  59.519 -52.256  1.00  0.00     0.099 A 
HETATM    2  N   UNL     1     -45.902  59.808 -51.416  1.00  0.00    -0.172 NA
HETATM    3  N   UNL     1     -46.052  58.707 -50.659  1.00  0.00    -0.256 N 
HETATM    4  H   UNL     1     -46.787  58.689 -49.962  1.00  0.00     0.191 HD
HETATM    5  C   UNL     1     -45.161  57.734 -50.968  1.00  0.00     0.175 A 
HETATM    6  C   UNL     1     -44.366  58.227 -51.970  1.00  0.00     0.040 A 
HETATM    7  C   UNL     1     -43.261  57.386 -52.510  1.00  0.00     0.109 A 
HETATM    8  C   UNL     1     -43.323  55.974 -51.918  1.00  0.00     0.081 A 
HETATM    9  C   UNL     1     -42.459  55.006 -52.507  1.00  0.00     0.100 C 
HETATM   10  N   UNL     1     -41.764  54.223 -53.010  1.00  0.00    -0.191 NA
HETATM   11  C   UNL     1     -44.193  55.623 -50.932  1.00  0.00     0.140 A 
HETATM   12  O   UNL     1     -45.110  56.541 -50.388  1.00  0.00    -0.279 OA
ENDROOT
BRANCH   7  13
HETATM   13  C   UNL     1     -41.951  58.092 -52.178  1.00  0.00    -0.010 A 
HETATM   14  C   UNL     1     -40.935  58.216 -53.148  1.00  0.00     0.088 A 
HETATM   15  C   UNL     1     -39.697  58.783 -52.835  1.00  0.00     0.038 A 
HETATM   16  C   UNL     1     -39.459  59.261 -51.547  1.00  0.00     0.003 A 
HETATM   17  C   UNL     1     -40.444  59.152 -50.571  1.00  0.00     0.001 A 
HETATM   18  C   UNL     1     -41.671  58.563 -50.878  1.00  0.00     0.011 A 
BRANCH  14  19
HETATM   19  O   UNL     1     -41.200  57.649 -54.424  1.00  0.00    -0.261 OA
BRANCH  19  20
HETATM   20  C   UNL     1     -41.736  58.321 -55.529  1.00  0.00     0.368 C 
HETATM   21  N   UNL     1     -42.288  57.449 -56.456  1.00  0.00    -0.324 N 
HETATM   22  C   UNL     1     -42.112  55.998 -56.380  1.00  0.00     0.154 C 
HETATM   23  C   UNL     1     -42.597  57.962 -57.789  1.00  0.00     0.154 C 
HETATM   24  C   UNL     1     -43.235  55.264 -57.119  1.00  0.00     0.187 C 
HETATM   25  O   UNL     1     -43.372  55.742 -58.465  1.00  0.00    -0.388 OA
HETATM   26  C   UNL     1     -43.692  57.141 -58.471  1.00  0.00     0.187 C 
HETATM   27  O   UNL     1     -41.734  59.538 -55.670  1.00  0.00    -0.238 OA
ENDBRANCH  19  20
ENDBRANCH  14  19
ENDBRANCH   7  13
BRANCH  11  28
HETATM   28  N   UNL     1     -44.296  54.372 -50.368  1.00  0.00    -0.282 NA
HETATM   29  H   UNL     1     -44.757  53.669 -50.941  1.00  0.00     0.126 HD
HETATM   30  H   UNL     1     -43.411  54.050 -49.984  1.00  0.00     0.126 HD
ENDBRANCH  11  28
BRANCH   1  31
HETATM   31  C   UNL     1     -44.463  60.480 -53.275  1.00  0.00    -0.005 A 
HETATM   32  C   UNL     1     -45.056  60.460 -54.544  1.00  0.00     0.014 A 
HETATM   33  C   UNL     1     -44.651  61.359 -55.535  1.00  0.00     0.008 A 
HETATM   34  C   UNL     1     -43.644  62.295 -55.275  1.00  0.00    -0.058 A 
HETATM   35  C   UNL     1     -43.048  62.315 -54.008  1.00  0.00     0.008 A 
HETATM   36  C   UNL     1     -43.449  61.410 -53.020  1.00  0.00     0.014 A 
BRANCH  34  37
HETATM   37  C   UNL     1     -43.200  63.265 -56.344  1.00  0.00     0.042 C 
BRANCH  37  38
HETATM   38  C   UNL     1     -43.115  62.643 -57.750  1.00  0.00    -0.019 C 
HETATM   39  C   UNL     1     -41.696  62.178 -58.087  1.00  0.00     0.010 C 
HETATM   40  C   UNL     1     -43.587  63.657 -58.794  1.00  0.00     0.010 C 
ENDBRANCH  37  38
ENDBRANCH  34  37
ENDBRANCH   1  31
TORSDOF 7
ENDMDL
MODEL 6
REMARK VINA RESULT:      -7.3      2.975      7.180
REMARK  7 active torsions:
REMARK  status: ('A' for Active; 'I' for Inactive)
REMARK    1  A    between atoms: C_2  and  C_3 
REMARK    2  A    between atoms: C_3  and  C_4 
REMARK    3  A    between atoms: C_7  and  C_8 
REMARK    4  A    between atoms: C_14  and  C_15 
REMARK    5  A    between atoms: C_16  and  O_17 
REMARK    6  A    between atoms: O_17  and  C_18 
REMARK       I    between atoms: C_18  and  N_19 
REMARK    7  A    between atoms: C_33  and  N_34 
ROOT
HETATM    1  C   UNL     1     -43.469  55.870 -53.996  1.00  0.00     0.099 A 
HETATM    2  N   UNL     1     -43.678  54.538 -53.946  1.00  0.00    -0.172 NA
HETATM    3  N   UNL     1     -43.159  54.148 -52.768  1.00  0.00    -0.256 N 
HETATM    4  H   UNL     1     -43.184  53.165 -52.525  1.00  0.00     0.191 HD
HETATM    5  C   UNL     1     -42.646  55.179 -52.055  1.00  0.00     0.175 A 
HETATM    6  C   UNL     1     -42.855  56.316 -52.793  1.00  0.00     0.040 A 
HETATM    7  C   UNL     1     -42.416  57.633 -52.252  1.00  0.00     0.109 A 
HETATM    8  C   UNL     1     -41.617  57.442 -50.959  1.00  0.00     0.081 A 
HETATM    9  C   UNL     1     -40.955  58.597 -50.450  1.00  0.00     0.100 C 
HETATM   10  N   UNL     1     -40.405  59.542 -50.059  1.00  0.00    -0.191 NA
HETATM   11  C   UNL     1     -41.476  56.234 -50.348  1.00  0.00     0.140 A 
HETATM   12  O   UNL     1     -42.055  55.064 -50.873  1.00  0.00    -0.279 OA
ENDROOT
BRANCH   7  13
HETATM   13  C   UNL     1     -43.669  58.474 -52.035  1.00  0.00    -0.010 A 
HETATM   14  C   UNL     1     -43.725  59.809 -52.483  1.00  0.00     0.088 A 
HETATM   15  C   UNL     1     -44.831  60.619 -52.215  1.00  0.00     0.038 A 
HETATM   16  C   UNL     1     -45.919  60.099 -51.515  1.00  0.00     0.003 A 
HETATM   17  C   UNL     1     -45.891  58.784 -51.062  1.00  0.00     0.001 A 
HETATM   18  C   UNL     1     -44.774  57.983 -51.308  1.00  0.00     0.011 A 
BRANCH  14  19
HETATM   19  O   UNL     1     -42.564  60.314 -53.128  1.00  0.00    -0.261 OA
BRANCH  19  20
HETATM   20  C   UNL     1     -42.278  60.228 -54.496  1.00  0.00     0.368 C 
HETATM   21  N   UNL     1     -42.700  61.352 -55.191  1.00  0.00    -0.324 N 
HETATM   22  C   UNL     1     -43.546  62.384 -54.590  1.00  0.00     0.154 C 
HETATM   23  C   UNL     1     -42.761  61.279 -56.650  1.00  0.00     0.154 C 
HETATM   24  C   UNL     1     -43.391  63.722 -55.318  1.00  0.00     0.187 C 
HETATM   25  O   UNL     1     -43.604  63.575 -56.729  1.00  0.00    -0.388 OA
HETATM   26  C   UNL     1     -42.647  62.663 -57.290  1.00  0.00     0.187 C 
HETATM   27  O   UNL     1     -41.712  59.281 -55.030  1.00  0.00    -0.238 OA
ENDBRANCH  19  20
ENDBRANCH  14  19
ENDBRANCH   7  13
BRANCH  11  28
HETATM   28  N   UNL     1     -40.767  56.002 -49.190  1.00  0.00    -0.282 NA
HETATM   29  H   UNL     1     -41.249  55.449 -48.485  1.00  0.00     0.126 HD
HETATM   30  H   UNL     1     -39.825  55.668 -49.379  1.00  0.00     0.126 HD
ENDBRANCH  11  28
BRANCH   1  31
HETATM   31  C   UNL     1     -43.867  56.646 -55.171  1.00  0.00    -0.005 A 
HETATM   32  C   UNL     1     -43.191  56.470 -56.386  1.00  0.00     0.014 A 
HETATM   33  C   UNL     1     -43.545  57.215 -57.514  1.00  0.00     0.008 A 
HETATM   34  C   UNL     1     -44.583  58.151 -57.449  1.00  0.00    -0.058 A 
HETATM   35  C   UNL     1     -45.258  58.331 -56.235  1.00  0.00     0.008 A 
HETATM   36  C   UNL     1     -44.897  57.590 -55.105  1.00  0.00     0.014 A 
BRANCH  34  37
HETATM   37  C   UNL     1     -44.967  58.962 -58.664  1.00  0.00     0.042 C 
BRANCH  37  38
HETATM   38  C   UNL     1     -46.411  58.720 -59.141  1.00  0.00    -0.019 C 
HETATM   39  C   UNL     1     -46.675  57.242 -59.443  1.00  0.00     0.010 C 
HETATM   40  C   UNL     1     -46.690  59.559 -60.389  1.00  0.00     0.010 C 
ENDBRANCH  37  38
ENDBRANCH  34  37
ENDBRANCH   1  31
TORSDOF 7
ENDMDL
MODEL 7
REMARK VINA RESULT:      -7.2      3.650      7.673
REMARK  7 active torsions:
REMARK  status: ('A' for Active; 'I' for Inactive)
REMARK    1  A    between atoms: C_2  and  C_3 
REMARK    2  A    between atoms: C_3  and  C_4 
REMARK    3  A    between atoms: C_7  and  C_8 
REMARK    4  A    between atoms: C_14  and  C_15 
REMARK    5  A    between atoms: C_16  and  O_17 
REMARK    6  A    between atoms: O_17  and  C_18 
REMARK       I    between atoms: C_18  and  N_19 
REMARK    7  A    between atoms: C_33  and  N_34 
ROOT
HETATM    1  C   UNL     1     -43.454  57.150 -54.560  1.00  0.00     0.099 A 
HETATM    2  N   UNL     1     -44.331  57.315 -53.548  1.00  0.00    -0.172 NA
HETATM    3  N   UNL     1     -44.922  58.499 -53.789  1.00  0.00    -0.256 N 
HETATM    4  H   UNL     1     -45.613  58.843 -53.132  1.00  0.00     0.191 HD
HETATM    5  C   UNL     1     -44.474  59.087 -54.924  1.00  0.00     0.175 A 
HETATM    6  C   UNL     1     -43.550  58.236 -55.474  1.00  0.00     0.040 A 
HETATM    7  C   UNL     1     -42.890  58.602 -56.759  1.00  0.00     0.109 A 
HETATM    8  C   UNL     1     -43.273  60.026 -57.172  1.00  0.00     0.081 A 
HETATM    9  C   UNL     1     -42.548  60.581 -58.266  1.00  0.00     0.100 C 
HETATM   10  N   UNL     1     -41.935  61.027 -59.146  1.00  0.00    -0.191 NA
HETATM   11  C   UNL     1     -44.202  60.765 -56.506  1.00  0.00     0.140 A 
HETATM   12  O   UNL     1     -44.875  60.268 -55.376  1.00  0.00    -0.279 OA
ENDROOT
BRANCH   7  13
HETATM   13  C   UNL     1     -43.315  57.568 -57.796  1.00  0.00    -0.010 A 
HETATM   14  C   UNL     1     -44.578  57.649 -58.416  1.00  0.00     0.088 A 
HETATM   15  C   UNL     1     -45.017  56.662 -59.302  1.00  0.00     0.038 A 
HETATM   16  C   UNL     1     -44.187  55.584 -59.607  1.00  0.00     0.003 A 
HETATM   17  C   UNL     1     -42.935  55.479 -59.010  1.00  0.00     0.001 A 
HETATM   18  C   UNL     1     -42.507  56.453 -58.105  1.00  0.00     0.011 A 
BRANCH  14  19
HETATM   19  O   UNL     1     -45.415  58.727 -58.019  1.00  0.00    -0.261 OA
BRANCH  19  20
HETATM   20  C   UNL     1     -46.782  58.852 -58.291  1.00  0.00     0.368 C 
HETATM   21  N   UNL     1     -47.027  59.680 -59.377  1.00  0.00    -0.324 N 
HETATM   22  C   UNL     1     -45.986  60.498 -59.999  1.00  0.00     0.154 C 
HETATM   23  C   UNL     1     -48.392  60.158 -59.586  1.00  0.00     0.154 C 
HETATM   24  C   UNL     1     -46.342  60.841 -61.449  1.00  0.00     0.187 C 
HETATM   25  O   UNL     1     -47.646  61.432 -61.538  1.00  0.00    -0.388 OA
HETATM   26  C   UNL     1     -48.645  60.523 -61.050  1.00  0.00     0.187 C 
HETATM   27  O   UNL     1     -47.671  58.292 -57.659  1.00  0.00    -0.238 OA
ENDBRANCH  19  20
ENDBRANCH  14  19
ENDBRANCH   7  13
BRANCH  11  28
HETATM   28  N   UNL     1     -44.581  62.049 -56.828  1.00  0.00    -0.282 NA
HETATM   29  H   UNL     1     -44.909  62.617 -56.051  1.00  0.00     0.126 HD
HETATM   30  H   UNL     1     -43.883  62.523 -57.397  1.00  0.00     0.126 HD
ENDBRANCH  11  28
BRANCH   1  31
HETATM   31  C   UNL     1     -42.583  55.976 -54.610  1.00  0.00    -0.005 A 
HETATM   32  C   UNL     1     -41.191  56.137 -54.605  1.00  0.00     0.014 A 
HETATM   33  C   UNL     1     -40.344  55.028 -54.669  1.00  0.00     0.008 A 
HETATM   34  C   UNL     1     -40.873  53.734 -54.742  1.00  0.00    -0.058 A 
HETATM   35  C   UNL     1     -42.264  53.571 -54.752  1.00  0.00     0.008 A 
HETATM   36  C   UNL     1     -43.110  54.682 -54.693  1.00  0.00     0.014 A 
BRANCH  34  37
HETATM   37  C   UNL     1     -39.961  52.533 -54.818  1.00  0.00     0.042 C 
BRANCH  37  38
HETATM   38  C   UNL     1     -40.318  51.419 -53.816  1.00  0.00    -0.019 C 
HETATM   39  C   UNL     1     -39.585  51.590 -52.483  1.00  0.00     0.010 C 
HETATM   40  C   UNL     1     -39.981  50.054 -54.419  1.00  0.00     0.010 C 
ENDBRANCH  37  38
ENDBRANCH  34  37
ENDBRANCH   1  31
TORSDOF 7
ENDMDL
MODEL 8
REMARK VINA RESULT:      -7.1      3.474      6.639
REMARK  7 active torsions:
REMARK  status: ('A' for Active; 'I' for Inactive)
REMARK    1  A    between atoms: C_2  and  C_3 
REMARK    2  A    between atoms: C_3  and  C_4 
REMARK    3  A    between atoms: C_7  and  C_8 
REMARK    4  A    between atoms: C_14  and  C_15 
REMARK    5  A    between atoms: C_16  and  O_17 
REMARK    6  A    between atoms: O_17  and  C_18 
REMARK       I    between atoms: C_18  and  N_19 
REMARK    7  A    between atoms: C_33  and  N_34 
ROOT
HETATM    1  C   UNL     1     -44.305  61.474 -53.914  1.00  0.00     0.099 A 
HETATM    2  N   UNL     1     -44.774  62.701 -53.604  1.00  0.00    -0.172 NA
HETATM    3  N   UNL     1     -45.272  62.580 -52.361  1.00  0.00    -0.256 N 
HETATM    4  H   UNL     1     -45.704  63.387 -51.926  1.00  0.00     0.191 HD
HETATM    5  C   UNL     1     -45.122  61.332 -51.856  1.00  0.00     0.175 A 
HETATM    6  C   UNL     1     -44.472  60.593 -52.811  1.00  0.00     0.040 A 
HETATM    7  C   UNL     1     -44.138  59.167 -52.533  1.00  0.00     0.109 A 
HETATM    8  C   UNL     1     -44.766  58.717 -51.210  1.00  0.00     0.081 A 
HETATM    9  C   UNL     1     -44.708  57.322 -50.928  1.00  0.00     0.100 C 
HETATM   10  N   UNL     1     -44.671  56.180 -50.721  1.00  0.00    -0.191 NA
HETATM   11  C   UNL     1     -45.408  59.572 -50.367  1.00  0.00     0.140 A 
HETATM   12  O   UNL     1     -45.547  60.941 -50.661  1.00  0.00    -0.279 OA
ENDROOT
BRANCH   7  13
HETATM   13  C   UNL     1     -42.618  59.053 -52.517  1.00  0.00    -0.010 A 
HETATM   14  C   UNL     1     -41.954  58.177 -53.400  1.00  0.00     0.088 A 
HETATM   15  C   UNL     1     -40.570  57.996 -53.339  1.00  0.00     0.038 A 
HETATM   16  C   UNL     1     -39.817  58.711 -52.408  1.00  0.00     0.003 A 
HETATM   17  C   UNL     1     -40.447  59.582 -51.525  1.00  0.00     0.001 A 
HETATM   18  C   UNL     1     -41.833  59.743 -51.570  1.00  0.00     0.011 A 
BRANCH  14  19
HETATM   19  O   UNL     1     -42.771  57.419 -54.281  1.00  0.00    -0.261 OA
BRANCH  19  20
HETATM   20  C   UNL     1     -42.321  56.518 -55.253  1.00  0.00     0.368 C 
HETATM   21  N   UNL     1     -43.058  56.599 -56.425  1.00  0.00    -0.324 N 
HETATM   22  C   UNL     1     -44.298  57.371 -56.529  1.00  0.00     0.154 C 
HETATM   23  C   UNL     1     -42.920  55.523 -57.404  1.00  0.00     0.154 C 
HETATM   24  C   UNL     1     -44.585  57.767 -57.980  1.00  0.00     0.187 C 
HETATM   25  O   UNL     1     -44.563  56.623 -58.846  1.00  0.00    -0.388 OA
HETATM   26  C   UNL     1     -43.273  55.993 -58.815  1.00  0.00     0.187 C 
HETATM   27  O   UNL     1     -41.379  55.748 -55.104  1.00  0.00    -0.238 OA
ENDBRANCH  19  20
ENDBRANCH  14  19
ENDBRANCH   7  13
BRANCH  11  28
HETATM   28  N   UNL     1     -45.994  59.224 -49.171  1.00  0.00    -0.282 NA
HETATM   29  H   UNL     1     -45.515  58.497 -48.644  1.00  0.00     0.126 HD
HETATM   30  H   UNL     1     -46.222  60.038 -48.606  1.00  0.00     0.126 HD
ENDBRANCH  11  28
BRANCH   1  31
HETATM   31  C   UNL     1     -43.723  61.207 -55.229  1.00  0.00    -0.005 A 
HETATM   32  C   UNL     1     -44.455  61.492 -56.389  1.00  0.00     0.014 A 
HETATM   33  C   UNL     1     -43.921  61.227 -57.653  1.00  0.00     0.008 A 
HETATM   34  C   UNL     1     -42.644  60.671 -57.782  1.00  0.00    -0.058 A 
HETATM   35  C   UNL     1     -41.911  60.382 -56.623  1.00  0.00     0.008 A 
HETATM   36  C   UNL     1     -42.450  60.641 -55.359  1.00  0.00     0.014 A 
BRANCH  34  37
HETATM   37  C   UNL     1     -42.065  60.377 -59.145  1.00  0.00     0.042 C 
BRANCH  37  38
HETATM   38  C   UNL     1     -41.753  61.639 -59.971  1.00  0.00    -0.019 C 
HETATM   39  C   UNL     1     -41.604  61.326 -61.463  1.00  0.00     0.010 C 
HETATM   40  C   UNL     1     -40.471  62.293 -59.451  1.00  0.00     0.010 C 
ENDBRANCH  37  38
ENDBRANCH  34  37
ENDBRANCH   1  31
TORSDOF 7
ENDMDL
MODEL 9
REMARK VINA RESULT:      -7.1      2.794      5.419
REMARK  7 active torsions:
REMARK  status: ('A' for Active; 'I' for Inactive)
REMARK    1  A    between atoms: C_2  and  C_3 
REMARK    2  A    between atoms: C_3  and  C_4 
REMARK    3  A    between atoms: C_7  and  C_8 
REMARK    4  A    between atoms: C_14  and  C_15 
REMARK    5  A    between atoms: C_16  and  O_17 
REMARK    6  A    between atoms: O_17  and  C_18 
REMARK       I    between atoms: C_18  and  N_19 
REMARK    7  A    between atoms: C_33  and  N_34 
ROOT
HETATM    1  C   UNL     1     -44.621  61.231 -53.957  1.00  0.00     0.099 A 
HETATM    2  N   UNL     1     -45.198  62.426 -53.710  1.00  0.00    -0.172 NA
HETATM    3  N   UNL     1     -45.675  62.329 -52.456  1.00  0.00    -0.256 N 
HETATM    4  H   UNL     1     -46.178  63.116 -52.062  1.00  0.00     0.191 HD
HETATM    5  C   UNL     1     -45.409  61.130 -51.885  1.00  0.00     0.175 A 
HETATM    6  C   UNL     1     -44.699  60.401 -52.805  1.00  0.00     0.040 A 
HETATM    7  C   UNL     1     -44.235  59.029 -52.453  1.00  0.00     0.109 A 
HETATM    8  C   UNL     1     -44.811  58.599 -51.101  1.00  0.00     0.081 A 
HETATM    9  C   UNL     1     -44.623  57.232 -50.742  1.00  0.00     0.100 C 
HETATM   10  N   UNL     1     -44.480  56.112 -50.473  1.00  0.00    -0.191 NA
HETATM   11  C   UNL     1     -45.523  59.437 -50.299  1.00  0.00     0.140 A 
HETATM   12  O   UNL     1     -45.789  60.769 -50.666  1.00  0.00    -0.279 OA
ENDROOT
BRANCH   7  13
HETATM   13  C   UNL     1     -42.710  59.055 -52.448  1.00  0.00    -0.010 A 
HETATM   14  C   UNL     1     -41.977  58.443 -53.485  1.00  0.00     0.088 A 
HETATM   15  C   UNL     1     -40.582  58.382 -53.449  1.00  0.00     0.038 A 
HETATM   16  C   UNL     1     -39.889  58.958 -52.386  1.00  0.00     0.003 A 
HETATM   17  C   UNL     1     -40.587  59.570 -51.349  1.00  0.00     0.001 A 
HETATM   18  C   UNL     1     -41.982  59.608 -51.372  1.00  0.00     0.011 A 
BRANCH  14  19
HETATM   19  O   UNL     1     -42.731  57.808 -54.509  1.00  0.00    -0.261 OA
BRANCH  19  20
HETATM   20  C   UNL     1     -42.278  56.787 -55.352  1.00  0.00     0.368 C 
HETATM   21  N   UNL     1     -42.131  55.581 -54.683  1.00  0.00    -0.324 N 
HETATM   22  C   UNL     1     -42.217  55.468 -53.226  1.00  0.00     0.154 C 
HETATM   23  C   UNL     1     -41.376  54.515 -55.339  1.00  0.00     0.154 C 
HETATM   24  C   UNL     1     -42.592  54.045 -52.801  1.00  0.00     0.187 C 
HETATM   25  O   UNL     1     -41.709  53.078 -53.386  1.00  0.00    -0.388 OA
HETATM   26  C   UNL     1     -41.779  53.134 -54.819  1.00  0.00     0.187 C 
HETATM   27  O   UNL     1     -42.045  56.925 -56.547  1.00  0.00    -0.238 OA
ENDBRANCH  19  20
ENDBRANCH  14  19
ENDBRANCH   7  13
BRANCH  11  28
HETATM   28  N   UNL     1     -46.068  59.104 -49.079  1.00  0.00    -0.282 NA
HETATM   29  H   UNL     1     -46.179  59.874 -48.424  1.00  0.00     0.126 HD
HETATM   30  H   UNL     1     -46.911  58.543 -49.177  1.00  0.00     0.126 HD
ENDBRANCH  11  28
BRANCH   1  31
HETATM   31  C   UNL     1     -44.024  60.945 -55.262  1.00  0.00    -0.005 A 
HETATM   32  C   UNL     1     -44.739  60.203 -56.210  1.00  0.00     0.014 A 
HETATM   33  C   UNL     1     -44.178  59.906 -57.455  1.00  0.00     0.008 A 
HETATM   34  C   UNL     1     -42.888  60.345 -57.775  1.00  0.00    -0.058 A 
HETATM   35  C   UNL     1     -42.170  61.084 -56.827  1.00  0.00     0.008 A 
HETATM   36  C   UNL     1     -42.731  61.375 -55.579  1.00  0.00     0.014 A 
BRANCH  34  37
HETATM   37  C   UNL     1     -42.275  60.022 -59.117  1.00  0.00     0.042 C 
BRANCH  37  38
HETATM   38  C   UNL     1     -43.029  58.927 -59.895  1.00  0.00    -0.019 C 
HETATM   39  C   UNL     1     -42.094  57.803 -60.353  1.00  0.00     0.010 C 
HETATM   40  C   UNL     1     -43.727  59.543 -61.109  1.00  0.00     0.010 C 
ENDBRANCH  37  38
ENDBRANCH  34  37
ENDBRANCH   1  31
TORSDOF 7
ENDMDL
MODEL 10
REMARK VINA RESULT:      -7.1      3.569      7.122
REMARK  7 active torsions:
REMARK  status: ('A' for Active; 'I' for Inactive)
REMARK    1  A    between atoms: C_2  and  C_3 
REMARK    2  A    between atoms: C_3  and  C_4 
REMARK    3  A    between atoms: C_7  and  C_8 
REMARK    4  A    between atoms: C_14  and  C_15 
REMARK    5  A    between atoms: C_16  and  O_17 
REMARK    6  A    between atoms: O_17  and  C_18 
REMARK       I    between atoms: C_18  and  N_19 
REMARK    7  A    between atoms: C_33  and  N_34 
ROOT
HETATM    1  C   UNL     1     -42.713  61.667 -56.709  1.00  0.00     0.099 A 
HETATM    2  N   UNL     1     -42.539  62.973 -56.999  1.00  0.00    -0.172 NA
HETATM    3  N   UNL     1     -42.294  63.007 -58.321  1.00  0.00    -0.256 N 
HETATM    4  H   UNL     1     -42.107  63.900 -58.761  1.00  0.00     0.191 HD
HETATM    5  C   UNL     1     -42.325  61.778 -58.891  1.00  0.00     0.175 A 
HETATM    6  C   UNL     1     -42.627  60.886 -57.894  1.00  0.00     0.040 A 
HETATM    7  C   UNL     1     -42.757  59.437 -58.221  1.00  0.00     0.109 A 
HETATM    8  C   UNL     1     -42.346  59.177 -59.674  1.00  0.00     0.081 A 
HETATM    9  C   UNL     1     -42.217  57.810 -60.056  1.00  0.00     0.100 C 
HETATM   10  N   UNL     1     -42.097  56.693 -60.348  1.00  0.00    -0.191 NA
HETATM   11  C   UNL     1     -42.050  60.176 -60.550  1.00  0.00     0.140 A 
HETATM   12  O   UNL     1     -42.093  61.531 -60.174  1.00  0.00    -0.279 OA
ENDROOT
BRANCH   7  13
HETATM   13  C   UNL     1     -44.204  59.041 -57.953  1.00  0.00    -0.010 A 
HETATM   14  C   UNL     1     -44.514  58.058 -56.991  1.00  0.00     0.088 A 
HETATM   15  C   UNL     1     -45.827  57.622 -56.795  1.00  0.00     0.038 A 
HETATM   16  C   UNL     1     -46.862  58.182 -57.541  1.00  0.00     0.003 A 
HETATM   17  C   UNL     1     -46.585  59.155 -58.496  1.00  0.00     0.001 A 
HETATM   18  C   UNL     1     -45.271  59.572 -58.710  1.00  0.00     0.011 A 
BRANCH  14  19
HETATM   19  O   UNL     1     -43.417  57.467 -56.308  1.00  0.00    -0.261 OA
BRANCH  19  20
HETATM   20  C   UNL     1     -42.965  56.151 -56.458  1.00  0.00     0.368 C 
HETATM   21  N   UNL     1     -42.266  55.706 -55.345  1.00  0.00    -0.324 N 
HETATM   22  C   UNL     1     -41.861  56.596 -54.257  1.00  0.00     0.154 C 
HETATM   23  C   UNL     1     -41.470  54.487 -55.472  1.00  0.00     0.154 C 
HETATM   24  C   UNL     1     -41.646  55.819 -52.955  1.00  0.00     0.187 C 
HETATM   25  O   UNL     1     -40.741  54.722 -53.148  1.00  0.00    -0.388 OA
HETATM   26  C   UNL     1     -41.264  53.804 -54.119  1.00  0.00     0.187 C 
HETATM   27  O   UNL     1     -43.164  55.456 -57.448  1.00  0.00    -0.238 OA
ENDBRANCH  19  20
ENDBRANCH  14  19
ENDBRANCH   7  13
BRANCH  11  28
HETATM   28  N   UNL     1     -41.670  60.001 -61.862  1.00  0.00    -0.282 NA
HETATM   29  H   UNL     1     -41.546  59.035 -62.157  1.00  0.00     0.126 HD
HETATM   30  H   UNL     1     -42.250  60.538 -62.502  1.00  0.00     0.126 HD
ENDBRANCH  11  28
BRANCH   1  31
HETATM   31  C   UNL     1     -42.958  61.233 -55.333  1.00  0.00    -0.005 A 
HETATM   32  C   UNL     1     -44.051  61.745 -54.623  1.00  0.00     0.014 A 
HETATM   33  C   UNL     1     -44.289  61.355 -53.302  1.00  0.00     0.008 A 
HETATM   34  C   UNL     1     -43.437  60.445 -52.666  1.00  0.00    -0.058 A 
HETATM   35  C   UNL     1     -42.342  59.935 -53.373  1.00  0.00     0.008 A 
HETATM   36  C   UNL     1     -42.101  60.331 -54.693  1.00  0.00     0.014 A 
BRANCH  34  37
HETATM   37  C   UNL     1     -43.688  60.025 -51.237  1.00  0.00     0.042 C 
BRANCH  37  38
HETATM   38  C   UNL     1     -44.772  58.941 -51.090  1.00  0.00    -0.019 C 
HETATM   39  C   UNL     1     -44.724  57.924 -52.234  1.00  0.00     0.010 C 
HETATM   40  C   UNL     1     -46.154  59.595 -51.039  1.00  0.00     0.010 C 
ENDBRANCH  37  38
ENDBRANCH  34  37
ENDBRANCH   1  31
TORSDOF 7
ENDMDL
