MODEL 1
REMARK VINA RESULT:      -8.7      0.000      0.000
REMARK  3 active torsions:
REMARK  status: ('A' for Active; 'I' for Inactive)
REMARK    1  A    between atoms: C_3  and  N_4 
REMARK       I    between atoms: N_7  and  C_8 
REMARK    2  A    between atoms: C_8  and  C_9 
REMARK    3  A    between atoms: C_23  and  O_24 
ROOT
HETATM    1  N   UNL     1     -41.128  54.119 -53.412  1.00  0.00    -0.278 NA
HETATM    2  C   UNL     1     -42.598  54.255 -53.236  1.00  0.00     0.115 C 
HETATM    3  C   UNL     1     -43.016  55.736 -53.294  1.00  0.00     0.141 C 
HETATM    4  N   UNL     1     -42.533  56.379 -54.524  1.00  0.00    -0.346 N 
HETATM    5  C   UNL     1     -43.326  57.371 -55.095  1.00  0.00     0.256 C 
HETATM    6  O   UNL     1     -44.370  57.765 -54.578  1.00  0.00    -0.267 OA
HETATM    7  C   UNL     1     -41.082  56.229 -54.728  1.00  0.00     0.141 C 
HETATM    8  C   UNL     1     -40.657  54.748 -54.680  1.00  0.00     0.115 C 
ENDROOT
BRANCH   5   9
HETATM    9  C   UNL     1     -42.946  57.963 -56.397  1.00  0.00     0.064 A 
HETATM   10  C   UNL     1     -43.267  57.322 -57.578  1.00  0.00     0.077 A 
HETATM   11  C   UNL     1     -42.900  57.843 -58.821  1.00  0.00     0.065 A 
HETATM   12  N   UNL     1     -43.940  56.118 -57.808  1.00  0.00    -0.330 N 
HETATM   13  N   UNL     1     -43.353  56.970 -59.809  1.00  0.00    -0.331 N 
HETATM   14  C   UNL     1     -42.188  59.010 -58.950  1.00  0.00     0.074 A 
HETATM   15  C   UNL     1     -43.981  55.884 -59.184  1.00  0.00     0.176 A 
HETATM   16  H   UNL     1     -43.217  57.057 -60.805  1.00  0.00     0.168 HD
HETATM   17  S   UNL     1     -44.627  54.571 -59.940  1.00  0.00    -0.041 SA
HETATM   18  C   UNL     1     -41.823  59.642 -57.762  1.00  0.00     0.119 A 
HETATM   19  F   UNL     1     -41.107  60.772 -57.820  1.00  0.00    -0.206 F 
HETATM   20  C   UNL     1     -42.174  59.129 -56.499  1.00  0.00     0.061 A 
HETATM   21  H   UNL     1     -44.251  55.484 -57.082  1.00  0.00     0.168 HD
ENDBRANCH   5   9
BRANCH   1  22
HETATM   22  C   UNL     1     -40.633  52.793 -53.311  1.00  0.00     0.044 A 
HETATM   23  C   UNL     1     -40.665  51.851 -54.345  1.00  0.00     0.026 A 
HETATM   24  C   UNL     1     -40.112  50.577 -54.167  1.00  0.00     0.002 A 
HETATM   25  C   UNL     1     -39.514  50.226 -52.955  1.00  0.00     0.003 A 
HETATM   26  C   UNL     1     -39.476  51.145 -51.910  1.00  0.00     0.038 A 
HETATM   27  C   UNL     1     -40.037  52.401 -52.097  1.00  0.00     0.087 A 
BRANCH  27  28
HETATM   28  O   UNL     1     -40.041  53.283 -51.048  1.00  0.00    -0.359 OA
HETATM   29  H   UNL     1     -40.803  53.860 -51.257  1.00  0.00     0.218 HD
ENDBRANCH  27  28
ENDBRANCH   1  22
TORSDOF 3
ENDMDL
MODEL 2
REMARK VINA RESULT:      -8.6      2.389      2.833
REMARK  3 active torsions:
REMARK  status: ('A' for Active; 'I' for Inactive)
REMARK    1  A    between atoms: C_3  and  N_4 
REMARK       I    between atoms: N_7  and  C_8 
REMARK    2  A    between atoms: C_8  and  C_9 
REMARK    3  A    between atoms: C_23  and  O_24 
ROOT
HETATM    1  N   UNL     1     -40.674  53.457 -53.569  1.00  0.00    -0.278 NA
HETATM    2  C   UNL     1     -42.023  53.877 -53.108  1.00  0.00     0.115 C 
HETATM    3  C   UNL     1     -42.305  55.335 -53.513  1.00  0.00     0.141 C 
HETATM    4  N   UNL     1     -42.115  55.533 -54.957  1.00  0.00    -0.346 N 
HETATM    5  C   UNL     1     -42.939  56.451 -55.603  1.00  0.00     0.256 C 
HETATM    6  O   UNL     1     -43.764  57.138 -55.003  1.00  0.00    -0.267 OA
HETATM    7  C   UNL     1     -40.793  55.095 -55.436  1.00  0.00     0.141 C 
HETATM    8  C   UNL     1     -40.507  53.633 -55.041  1.00  0.00     0.115 C 
ENDROOT
BRANCH   5   9
HETATM    9  C   UNL     1     -42.873  56.599 -57.073  1.00  0.00     0.064 A 
HETATM   10  C   UNL     1     -42.498  57.801 -57.641  1.00  0.00     0.077 A 
HETATM   11  C   UNL     1     -42.452  57.978 -59.026  1.00  0.00     0.065 A 
HETATM   12  N   UNL     1     -42.136  59.014 -57.049  1.00  0.00    -0.330 N 
HETATM   13  N   UNL     1     -42.053  59.290 -59.282  1.00  0.00    -0.331 N 
HETATM   14  C   UNL     1     -42.788  56.981 -59.908  1.00  0.00     0.074 A 
HETATM   15  C   UNL     1     -41.877  59.945 -58.057  1.00  0.00     0.176 A 
HETATM   16  H   UNL     1     -41.955  59.727 -60.186  1.00  0.00     0.168 HD
HETATM   17  S   UNL     1     -41.461  61.525 -57.854  1.00  0.00    -0.041 SA
HETATM   18  C   UNL     1     -43.208  55.777 -59.344  1.00  0.00     0.119 A 
HETATM   19  F   UNL     1     -43.572  54.773 -60.152  1.00  0.00    -0.206 F 
HETATM   20  C   UNL     1     -43.271  55.580 -57.952  1.00  0.00     0.061 A 
HETATM   21  H   UNL     1     -42.159  59.199 -56.053  1.00  0.00     0.168 HD
ENDBRANCH   5   9
BRANCH   1  22
HETATM   22  C   UNL     1     -40.293  52.144 -53.188  1.00  0.00     0.044 A 
HETATM   23  C   UNL     1     -40.250  51.045 -54.053  1.00  0.00     0.026 A 
HETATM   24  C   UNL     1     -39.819  49.793 -53.597  1.00  0.00     0.002 A 
HETATM   25  C   UNL     1     -39.418  49.621 -52.270  1.00  0.00     0.003 A 
HETATM   26  C   UNL     1     -39.457  50.699 -51.390  1.00  0.00     0.038 A 
HETATM   27  C   UNL     1     -39.897  51.932 -51.853  1.00  0.00     0.087 A 
BRANCH  27  28
HETATM   28  O   UNL     1     -39.981  52.976 -50.969  1.00  0.00    -0.359 OA
HETATM   29  H   UNL     1     -39.613  53.722 -51.484  1.00  0.00     0.218 HD
ENDBRANCH  27  28
ENDBRANCH   1  22
TORSDOF 3
ENDMDL
MODEL 3
REMARK VINA RESULT:      -8.3      4.796      5.863
REMARK  3 active torsions:
REMARK  status: ('A' for Active; 'I' for Inactive)
REMARK    1  A    between atoms: C_3  and  N_4 
REMARK       I    between atoms: N_7  and  C_8 
REMARK    2  A    between atoms: C_8  and  C_9 
REMARK    3  A    between atoms: C_23  and  O_24 
ROOT
HETATM    1  N   UNL     1     -41.753  54.343 -51.602  1.00  0.00    -0.278 NA
HETATM    2  C   UNL     1     -43.231  54.229 -51.716  1.00  0.00     0.115 C 
HETATM    3  C   UNL     1     -43.924  55.318 -50.876  1.00  0.00     0.141 C 
HETATM    4  N   UNL     1     -43.432  56.657 -51.227  1.00  0.00    -0.346 N 
HETATM    5  C   UNL     1     -44.331  57.719 -51.163  1.00  0.00     0.256 C 
HETATM    6  O   UNL     1     -45.487  57.585 -50.766  1.00  0.00    -0.267 OA
HETATM    7  C   UNL     1     -41.967  56.779 -51.148  1.00  0.00     0.141 C 
HETATM    8  C   UNL     1     -41.265  55.697 -51.993  1.00  0.00     0.115 C 
ENDROOT
BRANCH   5   9
HETATM    9  C   UNL     1     -43.921  59.063 -51.623  1.00  0.00     0.064 A 
HETATM   10  C   UNL     1     -44.058  60.160 -50.794  1.00  0.00     0.077 A 
HETATM   11  C   UNL     1     -43.704  61.446 -51.210  1.00  0.00     0.065 A 
HETATM   12  N   UNL     1     -44.549  60.260 -49.489  1.00  0.00    -0.330 N 
HETATM   13  N   UNL     1     -43.968  62.329 -50.163  1.00  0.00    -0.331 N 
HETATM   14  C   UNL     1     -43.216  61.706 -52.467  1.00  0.00     0.074 A 
HETATM   15  C   UNL     1     -44.514  61.600 -49.099  1.00  0.00     0.176 A 
HETATM   16  H   UNL     1     -43.844  63.330 -50.169  1.00  0.00     0.168 HD
HETATM   17  S   UNL     1     -45.033  62.220 -47.664  1.00  0.00    -0.041 SA
HETATM   18  C   UNL     1     -43.114  60.612 -53.325  1.00  0.00     0.119 A 
HETATM   19  F   UNL     1     -42.667  60.804 -54.573  1.00  0.00    -0.206 F 
HETATM   20  C   UNL     1     -43.474  59.310 -52.930  1.00  0.00     0.061 A 
HETATM   21  H   UNL     1     -44.952  59.492 -48.965  1.00  0.00     0.168 HD
ENDBRANCH   5   9
BRANCH   1  22
HETATM   22  C   UNL     1     -41.020  53.343 -52.291  1.00  0.00     0.044 A 
HETATM   23  C   UNL     1     -41.045  53.151 -53.677  1.00  0.00     0.026 A 
HETATM   24  C   UNL     1     -40.254  52.162 -54.275  1.00  0.00     0.002 A 
HETATM   25  C   UNL     1     -39.421  51.353 -53.499  1.00  0.00     0.003 A 
HETATM   26  C   UNL     1     -39.384  51.522 -52.118  1.00  0.00     0.038 A 
HETATM   27  C   UNL     1     -40.182  52.499 -51.537  1.00  0.00     0.087 A 
BRANCH  27  28
HETATM   28  O   UNL     1     -40.178  52.626 -50.172  1.00  0.00    -0.359 OA
HETATM   29  H   UNL     1     -40.108  51.697 -49.872  1.00  0.00     0.218 HD
ENDBRANCH  27  28
ENDBRANCH   1  22
TORSDOF 3
ENDMDL
MODEL 4
REMARK VINA RESULT:      -8.1      3.337      4.098
REMARK  3 active torsions:
REMARK  status: ('A' for Active; 'I' for Inactive)
REMARK    1  A    between atoms: C_3  and  N_4 
REMARK       I    between atoms: N_7  and  C_8 
REMARK    2  A    between atoms: C_8  and  C_9 
REMARK    3  A    between atoms: C_23  and  O_24 
ROOT
HETATM    1  N   UNL     1     -41.681  54.354 -51.673  1.00  0.00    -0.278 NA
HETATM    2  C   UNL     1     -43.152  54.157 -51.595  1.00  0.00     0.115 C 
HETATM    3  C   UNL     1     -43.805  55.279 -50.767  1.00  0.00     0.141 C 
HETATM    4  N   UNL     1     -43.439  56.606 -51.282  1.00  0.00    -0.346 N 
HETATM    5  C   UNL     1     -44.385  57.623 -51.193  1.00  0.00     0.256 C 
HETATM    6  O   UNL     1     -45.477  57.467 -50.648  1.00  0.00    -0.267 OA
HETATM    7  C   UNL     1     -41.985  56.806 -51.392  1.00  0.00     0.141 C 
HETATM    8  C   UNL     1     -41.324  55.691 -52.228  1.00  0.00     0.115 C 
ENDROOT
BRANCH   5   9
HETATM    9  C   UNL     1     -44.114  58.941 -51.806  1.00  0.00     0.064 A 
HETATM   10  C   UNL     1     -44.364  59.154 -53.149  1.00  0.00     0.077 A 
HETATM   11  C   UNL     1     -44.093  60.380 -53.762  1.00  0.00     0.065 A 
HETATM   12  N   UNL     1     -44.867  58.295 -54.129  1.00  0.00    -0.330 N 
HETATM   13  N   UNL     1     -44.438  60.277 -55.109  1.00  0.00    -0.331 N 
HETATM   14  C   UNL     1     -43.551  61.442 -53.080  1.00  0.00     0.074 A 
HETATM   15  C   UNL     1     -44.899  58.976 -55.348  1.00  0.00     0.176 A 
HETATM   16  H   UNL     1     -44.332  60.987 -55.818  1.00  0.00     0.168 HD
HETATM   17  S   UNL     1     -45.371  58.367 -56.803  1.00  0.00    -0.041 SA
HETATM   18  C   UNL     1     -43.257  61.223 -51.735  1.00  0.00     0.119 A 
HETATM   19  F   UNL     1     -42.705  62.212 -51.021  1.00  0.00    -0.206 F 
HETATM   20  C   UNL     1     -43.512  59.993 -51.099  1.00  0.00     0.061 A 
HETATM   21  H   UNL     1     -45.075  57.314 -53.984  1.00  0.00     0.168 HD
ENDBRANCH   5   9
BRANCH   1  22
HETATM   22  C   UNL     1     -40.976  53.334 -52.365  1.00  0.00     0.044 A 
HETATM   23  C   UNL     1     -41.028  53.130 -53.748  1.00  0.00     0.026 A 
HETATM   24  C   UNL     1     -40.262  52.123 -54.349  1.00  0.00     0.002 A 
HETATM   25  C   UNL     1     -39.430  51.308 -53.579  1.00  0.00     0.003 A 
HETATM   26  C   UNL     1     -39.367  51.489 -52.200  1.00  0.00     0.038 A 
HETATM   27  C   UNL     1     -40.139  52.484 -51.616  1.00  0.00     0.087 A 
BRANCH  27  28
HETATM   28  O   UNL     1     -40.110  52.625 -50.252  1.00  0.00    -0.359 OA
HETATM   29  H   UNL     1     -40.099  53.597 -50.139  1.00  0.00     0.218 HD
ENDBRANCH  27  28
ENDBRANCH   1  22
TORSDOF 3
ENDMDL
MODEL 5
REMARK VINA RESULT:      -7.9      2.800      3.303
REMARK  3 active torsions:
REMARK  status: ('A' for Active; 'I' for Inactive)
REMARK    1  A    between atoms: C_3  and  N_4 
REMARK       I    between atoms: N_7  and  C_8 
REMARK    2  A    between atoms: C_8  and  C_9 
REMARK    3  A    between atoms: C_23  and  O_24 
ROOT
HETATM    1  N   UNL     1     -41.058  53.840 -53.029  1.00  0.00    -0.278 NA
HETATM    2  C   UNL     1     -42.534  53.943 -52.888  1.00  0.00     0.115 C 
HETATM    3  C   UNL     1     -42.959  55.410 -52.695  1.00  0.00     0.141 C 
HETATM    4  N   UNL     1     -42.433  56.264 -53.769  1.00  0.00    -0.346 N 
HETATM    5  C   UNL     1     -43.210  57.343 -54.183  1.00  0.00     0.256 C 
HETATM    6  O   UNL     1     -44.275  57.638 -53.644  1.00  0.00    -0.267 OA
HETATM    7  C   UNL     1     -40.975  56.152 -53.942  1.00  0.00     0.141 C 
HETATM    8  C   UNL     1     -40.543  54.686 -54.144  1.00  0.00     0.115 C 
ENDROOT
BRANCH   5   9
HETATM    9  C   UNL     1     -42.786  58.158 -55.342  1.00  0.00     0.064 A 
HETATM   10  C   UNL     1     -42.778  59.538 -55.263  1.00  0.00     0.077 A 
HETATM   11  C   UNL     1     -42.408  60.336 -56.348  1.00  0.00     0.065 A 
HETATM   12  N   UNL     1     -43.122  60.392 -54.211  1.00  0.00    -0.330 N 
HETATM   13  N   UNL     1     -42.514  61.671 -55.962  1.00  0.00    -0.331 N 
HETATM   14  C   UNL     1     -42.044  59.806 -57.562  1.00  0.00     0.074 A 
HETATM   15  C   UNL     1     -42.979  61.713 -54.641  1.00  0.00     0.176 A 
HETATM   16  H   UNL     1     -42.342  62.483 -56.535  1.00  0.00     0.168 HD
HETATM   17  S   UNL     1     -43.311  63.072 -53.772  1.00  0.00    -0.041 SA
HETATM   18  C   UNL     1     -42.088  58.416 -57.664  1.00  0.00     0.119 A 
HETATM   19  F   UNL     1     -41.767  57.840 -58.829  1.00  0.00    -0.206 F 
HETATM   20  C   UNL     1     -42.468  57.594 -56.586  1.00  0.00     0.061 A 
HETATM   21  H   UNL     1     -43.505  60.088 -53.323  1.00  0.00     0.168 HD
ENDBRANCH   5   9
BRANCH   1  22
HETATM   22  C   UNL     1     -40.558  52.517 -53.149  1.00  0.00     0.044 A 
HETATM   23  C   UNL     1     -40.572  51.766 -54.329  1.00  0.00     0.026 A 
HETATM   24  C   UNL     1     -40.016  50.481 -54.364  1.00  0.00     0.002 A 
HETATM   25  C   UNL     1     -39.434  49.928 -53.221  1.00  0.00     0.003 A 
HETATM   26  C   UNL     1     -39.414  50.655 -52.034  1.00  0.00     0.038 A 
HETATM   27  C   UNL     1     -39.978  51.924 -52.011  1.00  0.00     0.087 A 
BRANCH  27  28
HETATM   28  O   UNL     1     -40.000  52.614 -50.827  1.00  0.00    -0.359 OA
HETATM   29  H   UNL     1     -40.955  52.785 -50.698  1.00  0.00     0.218 HD
ENDBRANCH  27  28
ENDBRANCH   1  22
TORSDOF 3
ENDMDL
MODEL 6
REMARK VINA RESULT:      -7.8      1.856      2.288
REMARK  3 active torsions:
REMARK  status: ('A' for Active; 'I' for Inactive)
REMARK    1  A    between atoms: C_3  and  N_4 
REMARK       I    between atoms: N_7  and  C_8 
REMARK    2  A    between atoms: C_8  and  C_9 
REMARK    3  A    between atoms: C_23  and  O_24 
ROOT
HETATM    1  N   UNL     1     -42.044  56.374 -52.354  1.00  0.00    -0.278 NA
HETATM    2  C   UNL     1     -43.473  56.081 -52.644  1.00  0.00     0.115 C 
HETATM    3  C   UNL     1     -44.140  57.279 -53.344  1.00  0.00     0.141 C 
HETATM    4  N   UNL     1     -43.391  57.681 -54.543  1.00  0.00    -0.346 N 
HETATM    5  C   UNL     1     -44.113  58.176 -55.626  1.00  0.00     0.256 C 
HETATM    6  O   UNL     1     -45.330  58.345 -55.590  1.00  0.00    -0.267 OA
HETATM    7  C   UNL     1     -41.968  57.947 -54.279  1.00  0.00     0.141 C 
HETATM    8  C   UNL     1     -41.290  56.748 -53.585  1.00  0.00     0.115 C 
ENDROOT
BRANCH   5   9
HETATM    9  C   UNL     1     -43.423  58.478 -56.899  1.00  0.00     0.064 A 
HETATM   10  C   UNL     1     -43.598  57.664 -58.002  1.00  0.00     0.077 A 
HETATM   11  C   UNL     1     -42.939  57.909 -59.210  1.00  0.00     0.065 A 
HETATM   12  N   UNL     1     -44.367  56.509 -58.169  1.00  0.00    -0.330 N 
HETATM   13  N   UNL     1     -43.310  56.916 -60.115  1.00  0.00    -0.331 N 
HETATM   14  C   UNL     1     -42.069  58.958 -59.375  1.00  0.00     0.074 A 
HETATM   15  C   UNL     1     -44.180  56.030 -59.467  1.00  0.00     0.176 A 
HETATM   16  H   UNL     1     -42.979  56.804 -61.062  1.00  0.00     0.168 HD
HETATM   17  S   UNL     1     -44.840  54.668 -60.117  1.00  0.00    -0.041 SA
HETATM   18  C   UNL     1     -41.854  59.760 -58.255  1.00  0.00     0.119 A 
HETATM   19  F   UNL     1     -40.998  60.786 -58.346  1.00  0.00    -0.206 F 
HETATM   20  C   UNL     1     -42.499  59.526 -57.026  1.00  0.00     0.061 A 
HETATM   21  H   UNL     1     -44.890  56.052 -57.430  1.00  0.00     0.168 HD
ENDBRANCH   5   9
BRANCH   1  22
HETATM   22  C   UNL     1     -41.354  55.353 -51.650  1.00  0.00     0.044 A 
HETATM   23  C   UNL     1     -40.913  54.153 -52.219  1.00  0.00     0.026 A 
HETATM   24  C   UNL     1     -40.200  53.221 -51.455  1.00  0.00     0.002 A 
HETATM   25  C   UNL     1     -39.914  53.474 -50.112  1.00  0.00     0.003 A 
HETATM   26  C   UNL     1     -40.348  54.658 -49.523  1.00  0.00     0.038 A 
HETATM   27  C   UNL     1     -41.063  55.569 -50.289  1.00  0.00     0.087 A 
BRANCH  27  28
HETATM   28  O   UNL     1     -41.531  56.710 -49.690  1.00  0.00    -0.359 OA
HETATM   29  H   UNL     1     -40.707  57.152 -49.400  1.00  0.00     0.218 HD
ENDBRANCH  27  28
ENDBRANCH   1  22
TORSDOF 3
ENDMDL
MODEL 7
REMARK VINA RESULT:      -7.6      2.933      3.552
REMARK  3 active torsions:
REMARK  status: ('A' for Active; 'I' for Inactive)
REMARK    1  A    between atoms: C_3  and  N_4 
REMARK       I    between atoms: N_7  and  C_8 
REMARK    2  A    between atoms: C_8  and  C_9 
REMARK    3  A    between atoms: C_23  and  O_24 
ROOT
HETATM    1  N   UNL     1     -41.928  56.156 -52.427  1.00  0.00    -0.278 NA
HETATM    2  C   UNL     1     -43.402  56.021 -52.567  1.00  0.00     0.115 C 
HETATM    3  C   UNL     1     -43.969  57.150 -53.446  1.00  0.00     0.141 C 
HETATM    4  N   UNL     1     -43.282  57.212 -54.744  1.00  0.00    -0.346 N 
HETATM    5  C   UNL     1     -44.026  57.594 -55.857  1.00  0.00     0.256 C 
HETATM    6  O   UNL     1     -45.204  57.938 -55.781  1.00  0.00    -0.267 OA
HETATM    7  C   UNL     1     -41.818  57.317 -54.624  1.00  0.00     0.141 C 
HETATM    8  C   UNL     1     -41.242  56.184 -53.751  1.00  0.00     0.115 C 
ENDROOT
BRANCH   5   9
HETATM    9  C   UNL     1     -43.416  57.553 -57.204  1.00  0.00     0.064 A 
HETATM   10  C   UNL     1     -42.875  58.695 -57.764  1.00  0.00     0.077 A 
HETATM   11  C   UNL     1     -42.315  58.694 -59.044  1.00  0.00     0.065 A 
HETATM   12  N   UNL     1     -42.781  59.997 -57.264  1.00  0.00    -0.330 N 
HETATM   13  N   UNL     1     -41.871  59.985 -59.324  1.00  0.00    -0.331 N 
HETATM   14  C   UNL     1     -42.279  57.569 -59.831  1.00  0.00     0.074 A 
HETATM   15  C   UNL     1     -42.178  60.805 -58.231  1.00  0.00     0.176 A 
HETATM   16  H   UNL     1     -41.449  60.308 -60.182  1.00  0.00     0.168 HD
HETATM   17  S   UNL     1     -41.895  62.424 -58.122  1.00  0.00    -0.041 SA
HETATM   18  C   UNL     1     -42.860  56.422 -59.292  1.00  0.00     0.119 A 
HETATM   19  F   UNL     1     -42.878  55.299 -60.020  1.00  0.00    -0.206 F 
HETATM   20  C   UNL     1     -43.438  56.404 -58.008  1.00  0.00     0.061 A 
HETATM   21  H   UNL     1     -43.179  60.308 -56.385  1.00  0.00     0.168 HD
ENDBRANCH   5   9
BRANCH   1  22
HETATM   22  C   UNL     1     -41.315  55.197 -51.580  1.00  0.00     0.044 A 
HETATM   23  C   UNL     1     -40.860  53.941 -51.998  1.00  0.00     0.026 A 
HETATM   24  C   UNL     1     -40.228  53.075 -51.098  1.00  0.00     0.002 A 
HETATM   25  C   UNL     1     -40.036  53.451 -49.767  1.00  0.00     0.003 A 
HETATM   26  C   UNL     1     -40.486  54.693 -49.326  1.00  0.00     0.038 A 
HETATM   27  C   UNL     1     -41.120  55.537 -50.227  1.00  0.00     0.087 A 
BRANCH  27  28
HETATM   28  O   UNL     1     -41.605  56.737 -49.775  1.00  0.00    -0.359 OA
HETATM   29  H   UNL     1     -41.955  56.506 -48.891  1.00  0.00     0.218 HD
ENDBRANCH  27  28
ENDBRANCH   1  22
TORSDOF 3
ENDMDL
MODEL 8
REMARK VINA RESULT:      -7.5      4.479      8.590
REMARK  3 active torsions:
REMARK  status: ('A' for Active; 'I' for Inactive)
REMARK    1  A    between atoms: C_3  and  N_4 
REMARK       I    between atoms: N_7  and  C_8 
REMARK    2  A    between atoms: C_8  and  C_9 
REMARK    3  A    between atoms: C_23  and  O_24 
ROOT
HETATM    1  N   UNL     1     -42.697  59.680 -52.966  1.00  0.00    -0.278 NA
HETATM    2  C   UNL     1     -43.924  58.860 -53.143  1.00  0.00     0.115 C 
HETATM    3  C   UNL     1     -43.561  57.433 -53.594  1.00  0.00     0.141 C 
HETATM    4  N   UNL     1     -42.594  56.812 -52.677  1.00  0.00    -0.346 N 
HETATM    5  C   UNL     1     -42.684  55.439 -52.468  1.00  0.00     0.256 C 
HETATM    6  O   UNL     1     -43.492  54.729 -53.065  1.00  0.00    -0.267 OA
HETATM    7  C   UNL     1     -41.385  57.626 -52.469  1.00  0.00     0.141 C 
HETATM    8  C   UNL     1     -41.740  59.054 -52.008  1.00  0.00     0.115 C 
ENDROOT
BRANCH   5   9
HETATM    9  C   UNL     1     -41.817  54.786 -51.464  1.00  0.00     0.064 A 
HETATM   10  C   UNL     1     -41.046  53.691 -51.808  1.00  0.00     0.077 A 
HETATM   11  C   UNL     1     -40.238  53.037 -50.875  1.00  0.00     0.065 A 
HETATM   12  N   UNL     1     -40.911  53.020 -53.027  1.00  0.00    -0.330 N 
HETATM   13  N   UNL     1     -39.602  51.977 -51.520  1.00  0.00    -0.331 N 
HETATM   14  C   UNL     1     -40.167  53.426 -49.560  1.00  0.00     0.074 A 
HETATM   15  C   UNL     1     -40.035  51.947 -52.852  1.00  0.00     0.176 A 
HETATM   16  H   UNL     1     -38.978  51.302 -51.105  1.00  0.00     0.168 HD
HETATM   17  S   UNL     1     -39.598  50.838 -53.989  1.00  0.00    -0.041 SA
HETATM   18  C   UNL     1     -40.973  54.503 -49.194  1.00  0.00     0.119 A 
HETATM   19  F   UNL     1     -40.967  54.916 -47.920  1.00  0.00    -0.206 F 
HETATM   20  C   UNL     1     -41.803  55.170 -50.115  1.00  0.00     0.061 A 
HETATM   21  H   UNL     1     -41.445  53.229 -53.863  1.00  0.00     0.168 HD
ENDBRANCH   5   9
BRANCH   1  22
HETATM   22  C   UNL     1     -42.928  61.034 -52.610  1.00  0.00     0.044 A 
HETATM   23  C   UNL     1     -43.158  61.486 -51.307  1.00  0.00     0.026 A 
HETATM   24  C   UNL     1     -43.334  62.851 -51.045  1.00  0.00     0.002 A 
HETATM   25  C   UNL     1     -43.277  63.785 -52.081  1.00  0.00     0.003 A 
HETATM   26  C   UNL     1     -43.054  63.358 -53.387  1.00  0.00     0.038 A 
HETATM   27  C   UNL     1     -42.893  62.001 -53.634  1.00  0.00     0.087 A 
BRANCH  27  28
HETATM   28  O   UNL     1     -42.724  61.583 -54.928  1.00  0.00    -0.359 OA
HETATM   29  H   UNL     1     -42.295  60.710 -54.816  1.00  0.00     0.218 HD
ENDBRANCH  27  28
ENDBRANCH   1  22
TORSDOF 3
ENDMDL
MODEL 9
REMARK VINA RESULT:      -7.4     16.174     18.550
REMARK  3 active torsions:
REMARK  status: ('A' for Active; 'I' for Inactive)
REMARK    1  A    between atoms: C_3  and  N_4 
REMARK       I    between atoms: N_7  and  C_8 
REMARK    2  A    between atoms: C_8  and  C_9 
REMARK    3  A    between atoms: C_23  and  O_24 
ROOT
HETATM    1  N   UNL     1     -37.379  39.561 -59.588  1.00  0.00    -0.278 NA
HETATM    2  C   UNL     1     -37.098  41.020 -59.633  1.00  0.00     0.115 C 
HETATM    3  C   UNL     1     -36.818  41.561 -58.219  1.00  0.00     0.141 C 
HETATM    4  N   UNL     1     -35.749  40.800 -57.558  1.00  0.00    -0.346 N 
HETATM    5  C   UNL     1     -34.901  41.485 -56.692  1.00  0.00     0.256 C 
HETATM    6  O   UNL     1     -35.055  42.674 -56.416  1.00  0.00    -0.267 OA
HETATM    7  C   UNL     1     -35.999  39.349 -57.531  1.00  0.00     0.141 C 
HETATM    8  C   UNL     1     -36.271  38.798 -58.945  1.00  0.00     0.115 C 
ENDROOT
BRANCH   5   9
HETATM    9  C   UNL     1     -33.736  40.795 -56.097  1.00  0.00     0.064 A 
HETATM   10  C   UNL     1     -33.614  40.680 -54.725  1.00  0.00     0.077 A 
HETATM   11  C   UNL     1     -32.512  40.057 -54.134  1.00  0.00     0.065 A 
HETATM   12  N   UNL     1     -34.448  41.127 -53.696  1.00  0.00    -0.330 N 
HETATM   13  N   UNL     1     -32.674  40.111 -52.751  1.00  0.00    -0.331 N 
HETATM   14  C   UNL     1     -31.478  39.534 -54.871  1.00  0.00     0.074 A 
HETATM   15  C   UNL     1     -33.864  40.795 -52.472  1.00  0.00     0.176 A 
HETATM   16  H   UNL     1     -32.030  39.772 -52.051  1.00  0.00     0.168 HD
HETATM   17  S   UNL     1     -34.449  41.154 -50.975  1.00  0.00    -0.041 SA
HETATM   18  C   UNL     1     -31.572  39.682 -56.254  1.00  0.00     0.119 A 
HETATM   19  F   UNL     1     -30.584  39.213 -57.027  1.00  0.00    -0.206 F 
HETATM   20  C   UNL     1     -32.668  40.315 -56.870  1.00  0.00     0.061 A 
HETATM   21  H   UNL     1     -35.283  41.684 -53.832  1.00  0.00     0.168 HD
ENDBRANCH   5   9
BRANCH   1  22
HETATM   22  C   UNL     1     -37.713  38.977 -60.838  1.00  0.00     0.044 A 
HETATM   23  C   UNL     1     -36.880  38.973 -61.962  1.00  0.00     0.026 A 
HETATM   24  C   UNL     1     -37.277  38.333 -63.143  1.00  0.00     0.002 A 
HETATM   25  C   UNL     1     -38.511  37.683 -63.217  1.00  0.00     0.003 A 
HETATM   26  C   UNL     1     -39.359  37.679 -62.113  1.00  0.00     0.038 A 
HETATM   27  C   UNL     1     -38.957  38.327 -60.953  1.00  0.00     0.087 A 
BRANCH  27  28
HETATM   28  O   UNL     1     -39.818  38.362 -59.887  1.00  0.00    -0.359 OA
HETATM   29  H   UNL     1     -40.474  39.033 -60.165  1.00  0.00     0.218 HD
ENDBRANCH  27  28
ENDBRANCH   1  22
TORSDOF 3
ENDMDL
MODEL 10
REMARK VINA RESULT:      -7.3      4.340      8.028
REMARK  3 active torsions:
REMARK  status: ('A' for Active; 'I' for Inactive)
REMARK    1  A    between atoms: C_3  and  N_4 
REMARK       I    between atoms: N_7  and  C_8 
REMARK    2  A    between atoms: C_8  and  C_9 
REMARK    3  A    between atoms: C_23  and  O_24 
ROOT
HETATM    1  N   UNL     1     -42.365  58.334 -53.228  1.00  0.00    -0.278 NA
HETATM    2  C   UNL     1     -43.624  57.599 -53.518  1.00  0.00     0.115 C 
HETATM    3  C   UNL     1     -43.363  56.441 -54.498  1.00  0.00     0.141 C 
HETATM    4  N   UNL     1     -42.294  55.558 -54.008  1.00  0.00    -0.346 N 
HETATM    5  C   UNL     1     -42.388  54.200 -54.297  1.00  0.00     0.256 C 
HETATM    6  O   UNL     1     -43.287  53.730 -54.993  1.00  0.00    -0.267 OA
HETATM    7  C   UNL     1     -41.048  56.274 -53.689  1.00  0.00     0.141 C 
HETATM    8  C   UNL     1     -41.301  57.431 -52.701  1.00  0.00     0.115 C 
ENDROOT
BRANCH   5   9
HETATM    9  C   UNL     1     -41.407  53.252 -53.724  1.00  0.00     0.064 A 
HETATM   10  C   UNL     1     -41.068  53.318 -52.386  1.00  0.00     0.077 A 
HETATM   11  C   UNL     1     -40.126  52.454 -51.822  1.00  0.00     0.065 A 
HETATM   12  N   UNL     1     -41.508  54.178 -51.376  1.00  0.00    -0.330 N 
HETATM   13  N   UNL     1     -39.996  52.775 -50.472  1.00  0.00    -0.331 N 
HETATM   14  C   UNL     1     -39.468  51.499 -52.558  1.00  0.00     0.074 A 
HETATM   15  C   UNL     1     -40.836  53.861 -50.194  1.00  0.00     0.176 A 
HETATM   16  H   UNL     1     -39.371  52.348 -49.805  1.00  0.00     0.168 HD
HETATM   17  S   UNL     1     -40.983  54.627 -48.743  1.00  0.00    -0.041 SA
HETATM   18  C   UNL     1     -39.773  51.453 -53.918  1.00  0.00     0.119 A 
HETATM   19  F   UNL     1     -39.147  50.559 -54.694  1.00  0.00    -0.206 F 
HETATM   20  C   UNL     1     -40.711  52.320 -54.509  1.00  0.00     0.061 A 
HETATM   21  H   UNL     1     -42.136  54.961 -51.518  1.00  0.00     0.168 HD
ENDBRANCH   5   9
BRANCH   1  22
HETATM   22  C   UNL     1     -42.511  59.463 -52.381  1.00  0.00     0.044 A 
HETATM   23  C   UNL     1     -42.329  59.446 -50.994  1.00  0.00     0.026 A 
HETATM   24  C   UNL     1     -42.454  60.621 -50.243  1.00  0.00     0.002 A 
HETATM   25  C   UNL     1     -42.757  61.833 -50.867  1.00  0.00     0.003 A 
HETATM   26  C   UNL     1     -42.948  61.873 -52.245  1.00  0.00     0.038 A 
HETATM   27  C   UNL     1     -42.832  60.698 -52.976  1.00  0.00     0.087 A 
BRANCH  27  28
HETATM   28  O   UNL     1     -43.071  60.736 -54.325  1.00  0.00    -0.359 OA
HETATM   29  H   UNL     1     -43.411  59.836 -54.507  1.00  0.00     0.218 HD
ENDBRANCH  27  28
ENDBRANCH   1  22
TORSDOF 3
ENDMDL
