MODEL 1
REMARK VINA RESULT:      -8.6      0.000      0.000
REMARK  8 active torsions:
REMARK  status: ('A' for Active; 'I' for Inactive)
REMARK    1  A    between atoms: C_6  and  N_7 
REMARK       I    between atoms: N_7  and  C_8 
REMARK    2  A    between atoms: C_8  and  C_9 
REMARK    3  A    between atoms: C_9  and  N_10 
REMARK    4  A    between atoms: C_13  and  C_14 
REMARK       I    between atoms: C_14  and  N_15 
REMARK    5  A    between atoms: N_15  and  C_16 
REMARK    6  A    between atoms: C_16  and  C_17 
REMARK    7  A    between atoms: C_19  and  O_20 
REMARK    8  A    between atoms: C_26  and  N_27 
ROOT
HETATM    1  N   UNL     1     -42.798  57.005 -52.877  1.00  0.00    -0.248 N 
HETATM    2  N   UNL     1     -41.646  57.699 -52.990  1.00  0.00     0.007 NA
HETATM    3  N   UNL     1     -41.621  58.242 -54.195  1.00  0.00    -0.150 NA
HETATM    4  C   UNL     1     -42.735  57.825 -54.887  1.00  0.00     0.186 A 
HETATM    5  C   UNL     1     -43.526  57.048 -54.046  1.00  0.00     0.151 A 
ENDROOT
BRANCH   1   6
HETATM    6  C   UNL     1     -43.040  56.261 -51.661  1.00  0.00     0.251 C 
BRANCH   6   7
HETATM    7  C   UNL     1     -42.660  54.794 -51.762  1.00  0.00     0.241 C 
HETATM    8  N   UNL     1     -41.390  54.570 -52.266  1.00  0.00    -0.326 N 
HETATM    9  H   UNL     1     -40.768  55.379 -52.290  1.00  0.00     0.169 HD
HETATM   10  O   UNL     1     -43.487  53.929 -51.487  1.00  0.00    -0.271 OA
BRANCH   8  11
HETATM   11  C   UNL     1     -40.812  53.349 -52.667  1.00  0.00     0.036 A 
HETATM   12  C   UNL     1     -40.289  52.401 -51.787  1.00  0.00     0.053 A 
HETATM   13  C   UNL     1     -39.777  51.191 -52.274  1.00  0.00     0.042 A 
HETATM   14  C   UNL     1     -39.772  50.908 -53.649  1.00  0.00    -0.040 A 
HETATM   15 CL   UNL     1     -39.165  50.053 -51.125  1.00  0.00    -0.084 Cl
HETATM   16  C   UNL     1     -39.248  49.610 -54.196  1.00  0.00     0.050 C 
HETATM   17  C   UNL     1     -40.293  51.867 -54.526  1.00  0.00     0.011 A 
HETATM   18  C   UNL     1     -40.808  53.072 -54.038  1.00  0.00     0.030 A 
ENDBRANCH   8  11
ENDBRANCH   6   7
ENDBRANCH   1   6
BRANCH   5  19
HETATM   19  N   UNL     1     -44.729  56.439 -54.214  1.00  0.00    -0.382 N 
HETATM   20  H   UNL     1     -44.751  55.429 -54.357  1.00  0.00     0.157 HD
HETATM   21  H   UNL     1     -45.477  56.882 -54.749  1.00  0.00     0.157 HD
ENDBRANCH   5  19
BRANCH   4  22
HETATM   22  C   UNL     1     -42.946  58.191 -56.280  1.00  0.00     0.275 C 
HETATM   23  N   UNL     1     -42.301  57.387 -57.197  1.00  0.00    -0.351 N 
HETATM   24  H   UNL     1     -41.706  56.638 -56.864  1.00  0.00     0.163 HD
HETATM   25  O   UNL     1     -43.617  59.164 -56.615  1.00  0.00    -0.266 OA
BRANCH  23  26
HETATM   26  C   UNL     1     -42.386  57.649 -58.614  1.00  0.00     0.161 C 
BRANCH  26  27
HETATM   27  C   UNL     1     -43.496  56.856 -59.254  1.00  0.00    -0.038 A 
HETATM   28  C   UNL     1     -44.703  57.489 -59.605  1.00  0.00     0.045 A 
HETATM   29  C   UNL     1     -45.750  56.762 -60.177  1.00  0.00     0.068 A 
HETATM   30  C   UNL     1     -45.587  55.394 -60.401  1.00  0.00     0.037 A 
HETATM   31  C   UNL     1     -44.395  54.754 -60.059  1.00  0.00     0.003 A 
HETATM   32  C   UNL     1     -43.352  55.482 -59.488  1.00  0.00     0.009 A 
BRANCH  29  33
HETATM   33  O   UNL     1     -46.965  57.261 -60.555  1.00  0.00    -0.356 OA
HETATM   34  C   UNL     1     -47.696  56.516 -61.521  1.00  0.00     0.210 C 
ENDBRANCH  29  33
ENDBRANCH  26  27
ENDBRANCH  23  26
ENDBRANCH   4  22
TORSDOF 8
ENDMDL
MODEL 2
REMARK VINA RESULT:      -8.3      1.703      2.147
REMARK  8 active torsions:
REMARK  status: ('A' for Active; 'I' for Inactive)
REMARK    1  A    between atoms: C_6  and  N_7 
REMARK       I    between atoms: N_7  and  C_8 
REMARK    2  A    between atoms: C_8  and  C_9 
REMARK    3  A    between atoms: C_9  and  N_10 
REMARK    4  A    between atoms: C_13  and  C_14 
REMARK       I    between atoms: C_14  and  N_15 
REMARK    5  A    between atoms: N_15  and  C_16 
REMARK    6  A    between atoms: C_16  and  C_17 
REMARK    7  A    between atoms: C_19  and  O_20 
REMARK    8  A    between atoms: C_26  and  N_27 
ROOT
HETATM    1  N   UNL     1     -41.725  57.712 -51.618  1.00  0.00    -0.248 N 
HETATM    2  N   UNL     1     -40.570  58.400 -51.747  1.00  0.00     0.007 NA
HETATM    3  N   UNL     1     -40.691  59.194 -52.796  1.00  0.00    -0.150 NA
HETATM    4  C   UNL     1     -41.909  58.953 -53.390  1.00  0.00     0.186 A 
HETATM    5  C   UNL     1     -42.606  58.020 -52.630  1.00  0.00     0.151 A 
ENDROOT
BRANCH   1   6
HETATM    6  C   UNL     1     -41.826  56.722 -50.569  1.00  0.00     0.251 C 
BRANCH   6   7
HETATM    7  C   UNL     1     -41.879  55.295 -51.086  1.00  0.00     0.241 C 
HETATM    8  N   UNL     1     -40.642  54.757 -51.398  1.00  0.00    -0.326 N 
HETATM    9  H   UNL     1     -39.830  55.260 -51.036  1.00  0.00     0.169 HD
HETATM   10  O   UNL     1     -42.966  54.753 -51.271  1.00  0.00    -0.271 OA
BRANCH   8  11
HETATM   11  C   UNL     1     -40.357  53.553 -52.074  1.00  0.00     0.036 A 
HETATM   12  C   UNL     1     -39.973  52.371 -51.443  1.00  0.00     0.053 A 
HETATM   13  C   UNL     1     -39.757  51.207 -52.194  1.00  0.00     0.042 A 
HETATM   14  C   UNL     1     -39.915  51.205 -53.589  1.00  0.00    -0.040 A 
HETATM   15 CL   UNL     1     -39.305  49.771 -51.343  1.00  0.00    -0.084 Cl
HETATM   16  C   UNL     1     -39.710  49.968 -54.415  1.00  0.00     0.050 C 
HETATM   17  C   UNL     1     -40.295  52.399 -54.215  1.00  0.00     0.011 A 
HETATM   18  C   UNL     1     -40.514  53.557 -53.464  1.00  0.00     0.030 A 
ENDBRANCH   8  11
ENDBRANCH   6   7
ENDBRANCH   1   6
BRANCH   5  19
HETATM   19  N   UNL     1     -43.847  57.478 -52.747  1.00  0.00    -0.382 N 
HETATM   20  H   UNL     1     -43.965  56.480 -52.567  1.00  0.00     0.157 HD
HETATM   21  H   UNL     1     -44.488  57.775 -53.483  1.00  0.00     0.157 HD
ENDBRANCH   5  19
BRANCH   4  22
HETATM   22  C   UNL     1     -42.297  59.619 -54.625  1.00  0.00     0.275 C 
HETATM   23  N   UNL     1     -42.596  58.773 -55.674  1.00  0.00    -0.351 N 
HETATM   24  H   UNL     1     -42.494  57.774 -55.546  1.00  0.00     0.163 HD
HETATM   25  O   UNL     1     -42.321  60.842 -54.739  1.00  0.00    -0.266 OA
BRANCH  23  26
HETATM   26  C   UNL     1     -42.960  59.288 -56.972  1.00  0.00     0.161 C 
BRANCH  26  27
HETATM   27  C   UNL     1     -42.804  58.241 -58.043  1.00  0.00    -0.038 A 
HETATM   28  C   UNL     1     -43.492  57.017 -57.938  1.00  0.00     0.045 A 
HETATM   29  C   UNL     1     -43.338  56.027 -58.911  1.00  0.00     0.068 A 
HETATM   30  C   UNL     1     -42.493  56.264 -59.996  1.00  0.00     0.037 A 
HETATM   31  C   UNL     1     -41.806  57.473 -60.113  1.00  0.00     0.003 A 
HETATM   32  C   UNL     1     -41.961  58.459 -59.141  1.00  0.00     0.009 A 
BRANCH  29  33
HETATM   33  O   UNL     1     -43.946  54.803 -58.918  1.00  0.00    -0.356 OA
HETATM   34  C   UNL     1     -44.878  54.552 -59.963  1.00  0.00     0.210 C 
ENDBRANCH  29  33
ENDBRANCH  26  27
ENDBRANCH  23  26
ENDBRANCH   4  22
TORSDOF 8
ENDMDL
MODEL 3
REMARK VINA RESULT:      -8.2      2.046      2.995
REMARK  8 active torsions:
REMARK  status: ('A' for Active; 'I' for Inactive)
REMARK    1  A    between atoms: C_6  and  N_7 
REMARK       I    between atoms: N_7  and  C_8 
REMARK    2  A    between atoms: C_8  and  C_9 
REMARK    3  A    between atoms: C_9  and  N_10 
REMARK    4  A    between atoms: C_13  and  C_14 
REMARK       I    between atoms: C_14  and  N_15 
REMARK    5  A    between atoms: N_15  and  C_16 
REMARK    6  A    between atoms: C_16  and  C_17 
REMARK    7  A    between atoms: C_19  and  O_20 
REMARK    8  A    between atoms: C_26  and  N_27 
ROOT
HETATM    1  N   UNL     1     -42.407  57.286 -52.290  1.00  0.00    -0.248 N 
HETATM    2  N   UNL     1     -42.863  56.640 -53.384  1.00  0.00     0.007 NA
HETATM    3  N   UNL     1     -42.831  57.490 -54.395  1.00  0.00    -0.150 NA
HETATM    4  C   UNL     1     -42.422  58.717 -53.923  1.00  0.00     0.186 A 
HETATM    5  C   UNL     1     -42.115  58.603 -52.572  1.00  0.00     0.151 A 
ENDROOT
BRANCH   1   6
HETATM    6  C   UNL     1     -42.399  56.585 -51.025  1.00  0.00     0.251 C 
BRANCH   6   7
HETATM    7  C   UNL     1     -42.092  55.103 -51.156  1.00  0.00     0.241 C 
HETATM    8  N   UNL     1     -40.989  54.819 -51.944  1.00  0.00    -0.326 N 
HETATM    9  H   UNL     1     -40.370  55.605 -52.149  1.00  0.00     0.169 HD
HETATM   10  O   UNL     1     -42.849  54.276 -50.655  1.00  0.00    -0.271 OA
BRANCH   8  11
HETATM   11  C   UNL     1     -40.556  53.566 -52.423  1.00  0.00     0.036 A 
HETATM   12  C   UNL     1     -40.123  52.520 -51.608  1.00  0.00     0.053 A 
HETATM   13  C   UNL     1     -39.757  51.290 -52.171  1.00  0.00     0.042 A 
HETATM   14  C   UNL     1     -39.811  51.084 -53.558  1.00  0.00    -0.040 A 
HETATM   15 CL   UNL     1     -39.250  50.031 -51.099  1.00  0.00    -0.084 Cl
HETATM   16  C   UNL     1     -39.444  49.770 -54.186  1.00  0.00     0.050 C 
HETATM   17  C   UNL     1     -40.242  52.141 -54.370  1.00  0.00     0.011 A 
HETATM   18  C   UNL     1     -40.611  53.366 -53.806  1.00  0.00     0.030 A 
ENDBRANCH   8  11
ENDBRANCH   6   7
ENDBRANCH   1   6
BRANCH   5  19
HETATM   19  N   UNL     1     -41.634  59.486 -51.657  1.00  0.00    -0.382 N 
HETATM   20  H   UNL     1     -40.624  59.551 -51.522  1.00  0.00     0.157 HD
HETATM   21  H   UNL     1     -42.113  59.643 -50.770  1.00  0.00     0.157 HD
ENDBRANCH   5  19
BRANCH   4  22
HETATM   22  C   UNL     1     -42.369  59.886 -54.790  1.00  0.00     0.275 C 
HETATM   23  N   UNL     1     -42.097  59.615 -56.116  1.00  0.00    -0.351 N 
HETATM   24  H   UNL     1     -41.917  58.659 -56.397  1.00  0.00     0.163 HD
HETATM   25  O   UNL     1     -42.516  61.030 -54.369  1.00  0.00    -0.266 OA
BRANCH  23  26
HETATM   26  C   UNL     1     -41.976  60.675 -57.087  1.00  0.00     0.161 C 
BRANCH  26  27
HETATM   27  C   UNL     1     -41.965  60.134 -58.493  1.00  0.00    -0.038 A 
HETATM   28  C   UNL     1     -42.049  58.746 -58.715  1.00  0.00     0.045 A 
HETATM   29  C   UNL     1     -42.016  58.228 -60.011  1.00  0.00     0.068 A 
HETATM   30  C   UNL     1     -41.900  59.104 -61.092  1.00  0.00     0.037 A 
HETATM   31  C   UNL     1     -41.816  60.482 -60.887  1.00  0.00     0.003 A 
HETATM   32  C   UNL     1     -41.850  60.995 -59.592  1.00  0.00     0.009 A 
BRANCH  29  33
HETATM   33  O   UNL     1     -42.085  56.906 -60.353  1.00  0.00    -0.356 OA
HETATM   34  C   UNL     1     -42.743  56.038 -59.439  1.00  0.00     0.210 C 
ENDBRANCH  29  33
ENDBRANCH  26  27
ENDBRANCH  23  26
ENDBRANCH   4  22
TORSDOF 8
ENDMDL
MODEL 4
REMARK VINA RESULT:      -7.9      1.577      2.428
REMARK  8 active torsions:
REMARK  status: ('A' for Active; 'I' for Inactive)
REMARK    1  A    between atoms: C_6  and  N_7 
REMARK       I    between atoms: N_7  and  C_8 
REMARK    2  A    between atoms: C_8  and  C_9 
REMARK    3  A    between atoms: C_9  and  N_10 
REMARK    4  A    between atoms: C_13  and  C_14 
REMARK       I    between atoms: C_14  and  N_15 
REMARK    5  A    between atoms: N_15  and  C_16 
REMARK    6  A    between atoms: C_16  and  C_17 
REMARK    7  A    between atoms: C_19  and  O_20 
REMARK    8  A    between atoms: C_26  and  N_27 
ROOT
HETATM    1  N   UNL     1     -42.594  57.230 -52.230  1.00  0.00    -0.248 N 
HETATM    2  N   UNL     1     -43.768  56.587 -52.412  1.00  0.00     0.007 NA
HETATM    3  N   UNL     1     -44.309  57.047 -53.527  1.00  0.00    -0.150 NA
HETATM    4  C   UNL     1     -43.508  58.052 -54.020  1.00  0.00     0.186 A 
HETATM    5  C   UNL     1     -42.380  58.168 -53.215  1.00  0.00     0.151 A 
ENDROOT
BRANCH   1   6
HETATM    6  C   UNL     1     -41.829  56.945 -51.037  1.00  0.00     0.251 C 
BRANCH   6   7
HETATM    7  C   UNL     1     -41.027  55.659 -51.123  1.00  0.00     0.241 C 
HETATM    8  N   UNL     1     -41.083  55.035 -52.358  1.00  0.00    -0.326 N 
HETATM    9  H   UNL     1     -41.440  55.601 -53.130  1.00  0.00     0.169 HD
HETATM   10  O   UNL     1     -40.471  55.217 -50.120  1.00  0.00    -0.271 OA
BRANCH   8  11
HETATM   11  C   UNL     1     -40.625  53.750 -52.711  1.00  0.00     0.036 A 
HETATM   12  C   UNL     1     -40.271  52.763 -51.792  1.00  0.00     0.053 A 
HETATM   13  C   UNL     1     -39.871  51.495 -52.235  1.00  0.00     0.042 A 
HETATM   14  C   UNL     1     -39.813  51.192 -53.605  1.00  0.00    -0.040 A 
HETATM   15 CL   UNL     1     -39.467  50.312 -51.040  1.00  0.00    -0.084 Cl
HETATM   16  C   UNL     1     -39.408  49.835 -54.107  1.00  0.00     0.050 C 
HETATM   17  C   UNL     1     -40.164  52.191 -54.521  1.00  0.00     0.011 A 
HETATM   18  C   UNL     1     -40.566  53.453 -54.077  1.00  0.00     0.030 A 
ENDBRANCH   8  11
ENDBRANCH   6   7
ENDBRANCH   1   6
BRANCH   5  19
HETATM   19  N   UNL     1     -41.276  58.959 -53.282  1.00  0.00    -0.382 N 
HETATM   20  H   UNL     1     -41.395  59.949 -53.501  1.00  0.00     0.157 HD
HETATM   21  H   UNL     1     -40.403  58.617 -53.685  1.00  0.00     0.157 HD
ENDBRANCH   5  19
BRANCH   4  22
HETATM   22  C   UNL     1     -43.886  58.816 -55.201  1.00  0.00     0.275 C 
HETATM   23  N   UNL     1     -45.111  58.483 -55.741  1.00  0.00    -0.351 N 
HETATM   24  H   UNL     1     -45.644  57.727 -55.328  1.00  0.00     0.163 HD
HETATM   25  O   UNL     1     -43.154  59.666 -55.702  1.00  0.00    -0.266 OA
BRANCH  23  26
HETATM   26  C   UNL     1     -45.604  59.129 -56.934  1.00  0.00     0.161 C 
BRANCH  26  27
HETATM   27  C   UNL     1     -45.622  58.180 -58.104  1.00  0.00    -0.038 A 
HETATM   28  C   UNL     1     -44.423  57.856 -58.768  1.00  0.00     0.045 A 
HETATM   29  C   UNL     1     -44.428  56.996 -59.869  1.00  0.00     0.068 A 
HETATM   30  C   UNL     1     -45.638  56.456 -60.307  1.00  0.00     0.037 A 
HETATM   31  C   UNL     1     -46.833  56.768 -59.658  1.00  0.00     0.003 A 
HETATM   32  C   UNL     1     -46.826  57.626 -58.560  1.00  0.00     0.009 A 
BRANCH  29  33
HETATM   33  O   UNL     1     -43.335  56.611 -60.595  1.00  0.00    -0.356 OA
HETATM   34  C   UNL     1     -42.062  57.017 -60.108  1.00  0.00     0.210 C 
ENDBRANCH  29  33
ENDBRANCH  26  27
ENDBRANCH  23  26
ENDBRANCH   4  22
TORSDOF 8
ENDMDL
MODEL 5
REMARK VINA RESULT:      -7.7      1.507      2.117
REMARK  8 active torsions:
REMARK  status: ('A' for Active; 'I' for Inactive)
REMARK    1  A    between atoms: C_6  and  N_7 
REMARK       I    between atoms: N_7  and  C_8 
REMARK    2  A    between atoms: C_8  and  C_9 
REMARK    3  A    between atoms: C_9  and  N_10 
REMARK    4  A    between atoms: C_13  and  C_14 
REMARK       I    between atoms: C_14  and  N_15 
REMARK    5  A    between atoms: N_15  and  C_16 
REMARK    6  A    between atoms: C_16  and  C_17 
REMARK    7  A    between atoms: C_19  and  O_20 
REMARK    8  A    between atoms: C_26  and  N_27 
ROOT
HETATM    1  N   UNL     1     -42.466  57.470 -52.671  1.00  0.00    -0.248 N 
HETATM    2  N   UNL     1     -43.520  56.689 -52.991  1.00  0.00     0.007 NA
HETATM    3  N   UNL     1     -43.778  56.870 -54.275  1.00  0.00    -0.150 NA
HETATM    4  C   UNL     1     -42.929  57.838 -54.760  1.00  0.00     0.186 A 
HETATM    5  C   UNL     1     -42.053  58.220 -53.749  1.00  0.00     0.151 A 
ENDROOT
BRANCH   1   6
HETATM    6  C   UNL     1     -42.020  57.499 -51.295  1.00  0.00     0.251 C 
BRANCH   6   7
HETATM    7  C   UNL     1     -41.492  56.163 -50.801  1.00  0.00     0.241 C 
HETATM    8  N   UNL     1     -41.044  55.323 -51.806  1.00  0.00    -0.326 N 
HETATM    9  H   UNL     1     -40.889  55.757 -52.717  1.00  0.00     0.169 HD
HETATM   10  O   UNL     1     -41.569  55.880 -49.608  1.00  0.00    -0.271 OA
BRANCH   8  11
HETATM   11  C   UNL     1     -40.684  53.963 -51.713  1.00  0.00     0.036 A 
HETATM   12  C   UNL     1     -40.341  53.165 -52.804  1.00  0.00     0.053 A 
HETATM   13  C   UNL     1     -39.948  51.833 -52.610  1.00  0.00     0.042 A 
HETATM   14  C   UNL     1     -39.896  51.274 -51.324  1.00  0.00    -0.040 A 
HETATM   15 CL   UNL     1     -39.516  50.908 -54.006  1.00  0.00    -0.084 Cl
HETATM   16  C   UNL     1     -39.459  49.857 -51.085  1.00  0.00     0.050 C 
HETATM   17  C   UNL     1     -40.248  52.081 -50.234  1.00  0.00     0.011 A 
HETATM   18  C   UNL     1     -40.635  53.409 -50.429  1.00  0.00     0.030 A 
ENDBRANCH   8  11
ENDBRANCH   6   7
ENDBRANCH   1   6
BRANCH   5  19
HETATM   19  N   UNL     1     -41.010  59.091 -53.713  1.00  0.00    -0.382 N 
HETATM   20  H   UNL     1     -40.334  59.015 -52.952  1.00  0.00     0.157 HD
HETATM   21  H   UNL     1     -41.129  60.070 -53.974  1.00  0.00     0.157 HD
ENDBRANCH   5  19
BRANCH   4  22
HETATM   22  C   UNL     1     -43.028  58.320 -56.131  1.00  0.00     0.275 C 
HETATM   23  N   UNL     1     -44.183  57.956 -56.792  1.00  0.00    -0.351 N 
HETATM   24  H   UNL     1     -44.855  57.362 -56.322  1.00  0.00     0.163 HD
HETATM   25  O   UNL     1     -42.136  58.969 -56.671  1.00  0.00    -0.266 OA
BRANCH  23  26
HETATM   26  C   UNL     1     -44.406  58.328 -58.169  1.00  0.00     0.161 C 
BRANCH  26  27
HETATM   27  C   UNL     1     -44.638  57.117 -59.035  1.00  0.00    -0.038 A 
HETATM   28  C   UNL     1     -45.726  57.086 -59.928  1.00  0.00     0.045 A 
HETATM   29  C   UNL     1     -45.967  55.961 -60.719  1.00  0.00     0.068 A 
HETATM   30  C   UNL     1     -45.114  54.861 -60.618  1.00  0.00     0.037 A 
HETATM   31  C   UNL     1     -44.031  54.878 -59.738  1.00  0.00     0.003 A 
HETATM   32  C   UNL     1     -43.793  56.002 -58.950  1.00  0.00     0.009 A 
BRANCH  29  33
HETATM   33  O   UNL     1     -46.987  55.811 -61.617  1.00  0.00    -0.356 OA
HETATM   34  C   UNL     1     -47.947  56.859 -61.684  1.00  0.00     0.210 C 
ENDBRANCH  29  33
ENDBRANCH  26  27
ENDBRANCH  23  26
ENDBRANCH   4  22
TORSDOF 8
ENDMDL
MODEL 6
REMARK VINA RESULT:      -7.5      1.829      2.273
REMARK  8 active torsions:
REMARK  status: ('A' for Active; 'I' for Inactive)
REMARK    1  A    between atoms: C_6  and  N_7 
REMARK       I    between atoms: N_7  and  C_8 
REMARK    2  A    between atoms: C_8  and  C_9 
REMARK    3  A    between atoms: C_9  and  N_10 
REMARK    4  A    between atoms: C_13  and  C_14 
REMARK       I    between atoms: C_14  and  N_15 
REMARK    5  A    between atoms: N_15  and  C_16 
REMARK    6  A    between atoms: C_16  and  C_17 
REMARK    7  A    between atoms: C_19  and  O_20 
REMARK    8  A    between atoms: C_26  and  N_27 
ROOT
HETATM    1  N   UNL     1     -42.263  59.031 -53.093  1.00  0.00    -0.248 N 
HETATM    2  N   UNL     1     -41.133  59.279 -53.790  1.00  0.00     0.007 NA
HETATM    3  N   UNL     1     -41.474  59.470 -55.052  1.00  0.00    -0.150 NA
HETATM    4  C   UNL     1     -42.830  59.264 -55.176  1.00  0.00     0.186 A 
HETATM    5  C   UNL     1     -43.365  59.008 -53.919  1.00  0.00     0.151 A 
ENDROOT
BRANCH   1   6
HETATM    6  C   UNL     1     -42.153  58.726 -51.684  1.00  0.00     0.251 C 
BRANCH   6   7
HETATM    7  C   UNL     1     -41.306  57.499 -51.393  1.00  0.00     0.241 C 
HETATM    8  N   UNL     1     -41.632  56.391 -52.156  1.00  0.00    -0.326 N 
HETATM    9  H   UNL     1     -42.216  56.566 -52.975  1.00  0.00     0.169 HD
HETATM   10  O   UNL     1     -40.481  57.529 -50.484  1.00  0.00    -0.271 OA
BRANCH   8  11
HETATM   11  C   UNL     1     -41.186  55.062 -52.004  1.00  0.00     0.036 A 
HETATM   12  C   UNL     1     -40.846  54.221 -53.063  1.00  0.00     0.053 A 
HETATM   13  C   UNL     1     -40.365  52.929 -52.813  1.00  0.00     0.042 A 
HETATM   14  C   UNL     1     -40.219  52.452 -51.502  1.00  0.00    -0.040 A 
HETATM   15 CL   UNL     1     -39.942  51.948 -54.174  1.00  0.00    -0.084 Cl
HETATM   16  C   UNL     1     -39.686  51.079 -51.205  1.00  0.00     0.050 C 
HETATM   17  C   UNL     1     -40.568  53.301 -50.444  1.00  0.00     0.011 A 
HETATM   18  C   UNL     1     -41.044  54.590 -50.694  1.00  0.00     0.030 A 
ENDBRANCH   8  11
ENDBRANCH   6   7
ENDBRANCH   1   6
BRANCH   5  19
HETATM   19  N   UNL     1     -44.634  58.785 -53.484  1.00  0.00    -0.382 N 
HETATM   20  H   UNL     1     -44.916  59.165 -52.580  1.00  0.00     0.157 HD
HETATM   21  H   UNL     1     -45.099  57.891 -53.646  1.00  0.00     0.157 HD
ENDBRANCH   5  19
BRANCH   4  22
HETATM   22  C   UNL     1     -43.492  59.320 -56.472  1.00  0.00     0.275 C 
HETATM   23  N   UNL     1     -42.711  58.936 -57.542  1.00  0.00    -0.351 N 
HETATM   24  H   UNL     1     -41.743  58.683 -57.380  1.00  0.00     0.163 HD
HETATM   25  O   UNL     1     -44.647  59.716 -56.608  1.00  0.00    -0.266 OA
BRANCH  23  26
HETATM   26  C   UNL     1     -43.218  58.974 -58.892  1.00  0.00     0.161 C 
BRANCH  26  27
HETATM   27  C   UNL     1     -43.852  57.664 -59.279  1.00  0.00    -0.038 A 
HETATM   28  C   UNL     1     -45.237  57.594 -59.520  1.00  0.00     0.045 A 
HETATM   29  C   UNL     1     -45.843  56.381 -59.856  1.00  0.00     0.068 A 
HETATM   30  C   UNL     1     -45.057  55.231 -59.953  1.00  0.00     0.037 A 
HETATM   31  C   UNL     1     -43.683  55.286 -59.718  1.00  0.00     0.003 A 
HETATM   32  C   UNL     1     -43.082  56.498 -59.383  1.00  0.00     0.009 A 
BRANCH  29  33
HETATM   33  O   UNL     1     -47.172  56.187 -60.109  1.00  0.00    -0.356 OA
HETATM   34  C   UNL     1     -47.650  56.581 -61.389  1.00  0.00     0.210 C 
ENDBRANCH  29  33
ENDBRANCH  26  27
ENDBRANCH  23  26
ENDBRANCH   4  22
TORSDOF 8
ENDMDL
MODEL 7
REMARK VINA RESULT:      -7.5     15.402     20.221
REMARK  8 active torsions:
REMARK  status: ('A' for Active; 'I' for Inactive)
REMARK    1  A    between atoms: C_6  and  N_7 
REMARK       I    between atoms: N_7  and  C_8 
REMARK    2  A    between atoms: C_8  and  C_9 
REMARK    3  A    between atoms: C_9  and  N_10 
REMARK    4  A    between atoms: C_13  and  C_14 
REMARK       I    between atoms: C_14  and  N_15 
REMARK    5  A    between atoms: N_15  and  C_16 
REMARK    6  A    between atoms: C_16  and  C_17 
REMARK    7  A    between atoms: C_19  and  O_20 
REMARK    8  A    between atoms: C_26  and  N_27 
ROOT
HETATM    1  N   UNL     1     -34.934  41.354 -51.727  1.00  0.00    -0.248 N 
HETATM    2  N   UNL     1     -35.858  40.731 -50.966  1.00  0.00     0.007 NA
HETATM    3  N   UNL     1     -35.223  39.876 -50.182  1.00  0.00    -0.150 NA
HETATM    4  C   UNL     1     -33.885  39.899 -50.504  1.00  0.00     0.186 A 
HETATM    5  C   UNL     1     -33.670  40.866 -51.479  1.00  0.00     0.151 A 
ENDROOT
BRANCH   1   6
HETATM    6  C   UNL     1     -35.383  42.303 -52.721  1.00  0.00     0.251 C 
BRANCH   6   7
HETATM    7  C   UNL     1     -35.421  41.735 -54.129  1.00  0.00     0.241 C 
HETATM    8  N   UNL     1     -36.581  42.025 -54.827  1.00  0.00    -0.326 N 
HETATM    9  H   UNL     1     -37.166  42.765 -54.437  1.00  0.00     0.169 HD
HETATM   10  O   UNL     1     -34.507  41.014 -54.521  1.00  0.00    -0.271 OA
BRANCH   8  11
HETATM   11  C   UNL     1     -37.015  41.495 -56.059  1.00  0.00     0.036 A 
HETATM   12  C   UNL     1     -36.966  42.184 -57.271  1.00  0.00     0.053 A 
HETATM   13  C   UNL     1     -37.375  41.558 -58.457  1.00  0.00     0.042 A 
HETATM   14  C   UNL     1     -37.846  40.236 -58.452  1.00  0.00    -0.040 A 
HETATM   15 CL   UNL     1     -37.267  42.464 -59.926  1.00  0.00    -0.084 Cl
HETATM   16  C   UNL     1     -38.272  39.535 -59.711  1.00  0.00     0.050 C 
HETATM   17  C   UNL     1     -37.898  39.554 -57.230  1.00  0.00     0.011 A 
HETATM   18  C   UNL     1     -37.485  40.178 -56.050  1.00  0.00     0.030 A 
ENDBRANCH   8  11
ENDBRANCH   6   7
ENDBRANCH   1   6
BRANCH   5  19
HETATM   19  N   UNL     1     -32.548  41.315 -52.101  1.00  0.00    -0.382 N 
HETATM   20  H   UNL     1     -32.060  42.122 -51.711  1.00  0.00     0.157 HD
HETATM   21  H   UNL     1     -32.475  41.324 -53.119  1.00  0.00     0.157 HD
ENDBRANCH   5  19
BRANCH   4  22
HETATM   22  C   UNL     1     -32.935  38.998 -49.866  1.00  0.00     0.275 C 
HETATM   23  N   UNL     1     -33.224  38.681 -48.555  1.00  0.00    -0.351 N 
HETATM   24  H   UNL     1     -34.028  39.107 -48.109  1.00  0.00     0.163 HD
HETATM   25  O   UNL     1     -31.932  38.581 -50.438  1.00  0.00    -0.266 OA
BRANCH  23  26
HETATM   26  C   UNL     1     -32.353  37.829 -47.780  1.00  0.00     0.161 C 
BRANCH  26  27
HETATM   27  C   UNL     1     -31.534  38.627 -46.800  1.00  0.00    -0.038 A 
HETATM   28  C   UNL     1     -30.400  39.335 -47.240  1.00  0.00     0.045 A 
HETATM   29  C   UNL     1     -29.617  40.059 -46.339  1.00  0.00     0.068 A 
HETATM   30  C   UNL     1     -29.972  40.077 -44.989  1.00  0.00     0.037 A 
HETATM   31  C   UNL     1     -31.094  39.380 -44.539  1.00  0.00     0.003 A 
HETATM   32  C   UNL     1     -31.873  38.659 -45.441  1.00  0.00     0.009 A 
BRANCH  29  33
HETATM   33  O   UNL     1     -28.496  40.780 -46.643  1.00  0.00    -0.356 OA
HETATM   34  C   UNL     1     -27.496  40.124 -47.413  1.00  0.00     0.210 C 
ENDBRANCH  29  33
ENDBRANCH  26  27
ENDBRANCH  23  26
ENDBRANCH   4  22
TORSDOF 8
ENDMDL
MODEL 8
REMARK VINA RESULT:      -7.3      2.836      3.747
REMARK  8 active torsions:
REMARK  status: ('A' for Active; 'I' for Inactive)
REMARK    1  A    between atoms: C_6  and  N_7 
REMARK       I    between atoms: N_7  and  C_8 
REMARK    2  A    between atoms: C_8  and  C_9 
REMARK    3  A    between atoms: C_9  and  N_10 
REMARK    4  A    between atoms: C_13  and  C_14 
REMARK       I    between atoms: C_14  and  N_15 
REMARK    5  A    between atoms: N_15  and  C_16 
REMARK    6  A    between atoms: C_16  and  C_17 
REMARK    7  A    between atoms: C_19  and  O_20 
REMARK    8  A    between atoms: C_26  and  N_27 
ROOT
HETATM    1  N   UNL     1     -42.018  56.787 -50.770  1.00  0.00    -0.248 N 
HETATM    2  N   UNL     1     -43.172  56.248 -51.218  1.00  0.00     0.007 NA
HETATM    3  N   UNL     1     -43.638  57.035 -52.173  1.00  0.00    -0.150 NA
HETATM    4  C   UNL     1     -42.811  58.130 -52.280  1.00  0.00     0.186 A 
HETATM    5  C   UNL     1     -41.742  57.978 -51.404  1.00  0.00     0.151 A 
ENDROOT
BRANCH   1   6
HETATM    6  C   UNL     1     -41.335  56.140 -49.671  1.00  0.00     0.251 C 
BRANCH   6   7
HETATM    7  C   UNL     1     -40.667  54.832 -50.058  1.00  0.00     0.241 C 
HETATM    8  N   UNL     1     -40.671  54.572 -51.418  1.00  0.00    -0.326 N 
HETATM    9  H   UNL     1     -40.892  55.364 -52.025  1.00  0.00     0.169 HD
HETATM   10  O   UNL     1     -40.259  54.073 -49.183  1.00  0.00    -0.271 OA
BRANCH   8  11
HETATM   11  C   UNL     1     -40.319  53.380 -52.082  1.00  0.00     0.036 A 
HETATM   12  C   UNL     1     -39.881  52.223 -51.438  1.00  0.00     0.053 A 
HETATM   13  C   UNL     1     -39.599  51.066 -52.178  1.00  0.00     0.042 A 
HETATM   14  C   UNL     1     -39.744  51.046 -53.574  1.00  0.00    -0.040 A 
HETATM   15 CL   UNL     1     -39.080  49.662 -51.312  1.00  0.00    -0.084 Cl
HETATM   16  C   UNL     1     -39.469  49.815 -54.389  1.00  0.00     0.050 C 
HETATM   17  C   UNL     1     -40.179  52.214 -54.213  1.00  0.00     0.011 A 
HETATM   18  C   UNL     1     -40.464  53.365 -53.473  1.00  0.00     0.030 A 
ENDBRANCH   8  11
ENDBRANCH   6   7
ENDBRANCH   1   6
BRANCH   5  19
HETATM   19  N   UNL     1     -40.642  58.734 -51.151  1.00  0.00    -0.382 N 
HETATM   20  H   UNL     1     -40.668  59.393 -50.372  1.00  0.00     0.157 HD
HETATM   21  H   UNL     1     -40.077  59.117 -51.909  1.00  0.00     0.157 HD
ENDBRANCH   5  19
BRANCH   4  22
HETATM   22  C   UNL     1     -43.112  59.223 -53.194  1.00  0.00     0.275 C 
HETATM   23  N   UNL     1     -42.203  59.394 -54.217  1.00  0.00    -0.351 N 
HETATM   24  H   UNL     1     -41.384  58.799 -54.253  1.00  0.00     0.163 HD
HETATM   25  O   UNL     1     -44.082  59.962 -53.045  1.00  0.00    -0.266 OA
BRANCH  23  26
HETATM   26  C   UNL     1     -42.348  60.460 -55.179  1.00  0.00     0.161 C 
BRANCH  26  27
HETATM   27  C   UNL     1     -42.268  59.940 -56.591  1.00  0.00    -0.038 A 
HETATM   28  C   UNL     1     -41.828  60.783 -57.628  1.00  0.00     0.045 A 
HETATM   29  C   UNL     1     -41.772  60.323 -58.946  1.00  0.00     0.068 A 
HETATM   30  C   UNL     1     -42.156  59.010 -59.226  1.00  0.00     0.037 A 
HETATM   31  C   UNL     1     -42.593  58.164 -58.207  1.00  0.00     0.003 A 
HETATM   32  C   UNL     1     -42.648  58.626 -56.893  1.00  0.00     0.009 A 
BRANCH  29  33
HETATM   33  O   UNL     1     -41.368  61.044 -60.035  1.00  0.00    -0.356 OA
HETATM   34  C   UNL     1     -41.102  62.426 -59.831  1.00  0.00     0.210 C 
ENDBRANCH  29  33
ENDBRANCH  26  27
ENDBRANCH  23  26
ENDBRANCH   4  22
TORSDOF 8
ENDMDL
MODEL 9
REMARK VINA RESULT:      -7.2     15.514     18.947
REMARK  8 active torsions:
REMARK  status: ('A' for Active; 'I' for Inactive)
REMARK    1  A    between atoms: C_6  and  N_7 
REMARK       I    between atoms: N_7  and  C_8 
REMARK    2  A    between atoms: C_8  and  C_9 
REMARK    3  A    between atoms: C_9  and  N_10 
REMARK    4  A    between atoms: C_13  and  C_14 
REMARK       I    between atoms: C_14  and  N_15 
REMARK    5  A    between atoms: N_15  and  C_16 
REMARK    6  A    between atoms: C_16  and  C_17 
REMARK    7  A    between atoms: C_19  and  O_20 
REMARK    8  A    between atoms: C_26  and  N_27 
ROOT
HETATM    1  N   UNL     1     -36.519  41.803 -56.388  1.00  0.00    -0.248 N 
HETATM    2  N   UNL     1     -37.838  41.597 -56.188  1.00  0.00     0.007 NA
HETATM    3  N   UNL     1     -37.988  41.107 -54.970  1.00  0.00    -0.150 NA
HETATM    4  C   UNL     1     -36.742  40.925 -54.414  1.00  0.00     0.186 A 
HETATM    5  C   UNL     1     -35.778  41.395 -55.300  1.00  0.00     0.151 A 
ENDROOT
BRANCH   1   6
HETATM    6  C   UNL     1     -36.082  42.284 -57.680  1.00  0.00     0.251 C 
BRANCH   6   7
HETATM    7  C   UNL     1     -36.934  41.783 -58.833  1.00  0.00     0.241 C 
HETATM    8  N   UNL     1     -37.197  40.424 -58.797  1.00  0.00    -0.326 N 
HETATM    9  H   UNL     1     -37.009  39.955 -57.909  1.00  0.00     0.169 HD
HETATM   10  O   UNL     1     -37.255  42.553 -59.734  1.00  0.00    -0.271 OA
BRANCH   8  11
HETATM   11  C   UNL     1     -37.778  39.619 -59.797  1.00  0.00     0.036 A 
HETATM   12  C   UNL     1     -38.954  38.889 -59.633  1.00  0.00     0.053 A 
HETATM   13  C   UNL     1     -39.485  38.154 -60.702  1.00  0.00     0.042 A 
HETATM   14  C   UNL     1     -38.846  38.129 -61.951  1.00  0.00    -0.040 A 
HETATM   15 CL   UNL     1     -40.959  37.290 -60.434  1.00  0.00    -0.084 Cl
HETATM   16  C   UNL     1     -39.404  37.366 -63.119  1.00  0.00     0.050 C 
HETATM   17  C   UNL     1     -37.662  38.860 -62.106  1.00  0.00     0.011 A 
HETATM   18  C   UNL     1     -37.137  39.596 -61.041  1.00  0.00     0.030 A 
ENDBRANCH   8  11
ENDBRANCH   6   7
ENDBRANCH   1   6
BRANCH   5  19
HETATM   19  N   UNL     1     -34.425  41.489 -55.226  1.00  0.00    -0.382 N 
HETATM   20  H   UNL     1     -33.901  41.714 -56.073  1.00  0.00     0.157 HD
HETATM   21  H   UNL     1     -33.881  40.853 -54.641  1.00  0.00     0.157 HD
ENDBRANCH   5  19
BRANCH   4  22
HETATM   22  C   UNL     1     -36.576  40.317 -53.102  1.00  0.00     0.275 C 
HETATM   23  N   UNL     1     -36.021  41.141 -52.144  1.00  0.00    -0.351 N 
HETATM   24  H   UNL     1     -35.732  42.076 -52.405  1.00  0.00     0.163 HD
HETATM   25  O   UNL     1     -36.873  39.147 -52.872  1.00  0.00    -0.266 OA
BRANCH  23  26
HETATM   26  C   UNL     1     -35.762  40.666 -50.806  1.00  0.00     0.161 C 
BRANCH  26  27
HETATM   27  C   UNL     1     -34.307  40.324 -50.617  1.00  0.00    -0.038 A 
HETATM   28  C   UNL     1     -33.901  39.553 -49.512  1.00  0.00     0.045 A 
HETATM   29  C   UNL     1     -32.553  39.249 -49.310  1.00  0.00     0.068 A 
HETATM   30  C   UNL     1     -31.605  39.717 -50.222  1.00  0.00     0.037 A 
HETATM   31  C   UNL     1     -31.994  40.482 -51.323  1.00  0.00     0.003 A 
HETATM   32  C   UNL     1     -33.339  40.784 -51.521  1.00  0.00     0.009 A 
BRANCH  29  33
HETATM   33  O   UNL     1     -32.038  38.516 -48.278  1.00  0.00    -0.356 OA
HETATM   34  C   UNL     1     -31.254  39.214 -47.319  1.00  0.00     0.210 C 
ENDBRANCH  29  33
ENDBRANCH  26  27
ENDBRANCH  23  26
ENDBRANCH   4  22
TORSDOF 8
ENDMDL
MODEL 10
REMARK VINA RESULT:      -7.2      2.241      2.981
REMARK  8 active torsions:
REMARK  status: ('A' for Active; 'I' for Inactive)
REMARK    1  A    between atoms: C_6  and  N_7 
REMARK       I    between atoms: N_7  and  C_8 
REMARK    2  A    between atoms: C_8  and  C_9 
REMARK    3  A    between atoms: C_9  and  N_10 
REMARK    4  A    between atoms: C_13  and  C_14 
REMARK       I    between atoms: C_14  and  N_15 
REMARK    5  A    between atoms: N_15  and  C_16 
REMARK    6  A    between atoms: C_16  and  C_17 
REMARK    7  A    between atoms: C_19  and  O_20 
REMARK    8  A    between atoms: C_26  and  N_27 
ROOT
HETATM    1  N   UNL     1     -42.559  57.364 -51.976  1.00  0.00    -0.248 N 
HETATM    2  N   UNL     1     -43.568  56.487 -52.166  1.00  0.00     0.007 NA
HETATM    3  N   UNL     1     -44.085  56.723 -53.360  1.00  0.00    -0.150 NA
HETATM    4  C   UNL     1     -43.449  57.815 -53.904  1.00  0.00     0.186 A 
HETATM    5  C   UNL     1     -42.440  58.229 -53.041  1.00  0.00     0.151 A 
ENDROOT
BRANCH   1   6
HETATM    6  C   UNL     1     -41.863  57.352 -50.708  1.00  0.00     0.251 C 
BRANCH   6   7
HETATM    7  C   UNL     1     -41.320  55.986 -50.328  1.00  0.00     0.241 C 
HETATM    8  N   UNL     1     -40.981  55.188 -51.407  1.00  0.00    -0.326 N 
HETATM    9  H   UNL     1     -40.900  55.663 -52.308  1.00  0.00     0.169 HD
HETATM   10  O   UNL     1     -41.294  55.647 -49.147  1.00  0.00    -0.271 OA
BRANCH   8  11
HETATM   11  C   UNL     1     -40.642  53.820 -51.411  1.00  0.00     0.036 A 
HETATM   12  C   UNL     1     -40.237  53.115 -52.544  1.00  0.00     0.053 A 
HETATM   13  C   UNL     1     -39.871  51.765 -52.443  1.00  0.00     0.042 A 
HETATM   14  C   UNL     1     -39.909  51.095 -51.211  1.00  0.00    -0.040 A 
HETATM   15 CL   UNL     1     -39.358  50.959 -53.885  1.00  0.00    -0.084 Cl
HETATM   16  C   UNL     1     -39.503  49.655 -51.070  1.00  0.00     0.050 C 
HETATM   17  C   UNL     1     -40.323  51.809 -50.079  1.00  0.00     0.011 A 
HETATM   18  C   UNL     1     -40.683  53.156 -50.181  1.00  0.00     0.030 A 
ENDBRANCH   8  11
ENDBRANCH   6   7
ENDBRANCH   1   6
BRANCH   5  19
HETATM   19  N   UNL     1     -41.505  59.213 -53.119  1.00  0.00    -0.382 N 
HETATM   20  H   UNL     1     -40.546  58.960 -53.359  1.00  0.00     0.157 HD
HETATM   21  H   UNL     1     -41.504  59.994 -52.463  1.00  0.00     0.157 HD
ENDBRANCH   5  19
BRANCH   4  22
HETATM   22  C   UNL     1     -43.858  58.373 -55.186  1.00  0.00     0.275 C 
HETATM   23  N   UNL     1     -44.579  57.514 -55.990  1.00  0.00    -0.351 N 
HETATM   24  H   UNL     1     -44.743  56.565 -55.676  1.00  0.00     0.163 HD
HETATM   25  O   UNL     1     -43.554  59.509 -55.541  1.00  0.00    -0.266 OA
BRANCH  23  26
HETATM   26  C   UNL     1     -45.021  57.914 -57.305  1.00  0.00     0.161 C 
BRANCH  26  27
HETATM   27  C   UNL     1     -43.983  57.606 -58.351  1.00  0.00    -0.038 A 
HETATM   28  C   UNL     1     -43.433  58.644 -59.127  1.00  0.00     0.045 A 
HETATM   29  C   UNL     1     -42.487  58.371 -60.117  1.00  0.00     0.068 A 
HETATM   30  C   UNL     1     -42.086  57.051 -60.331  1.00  0.00     0.037 A 
HETATM   31  C   UNL     1     -42.621  56.012 -59.568  1.00  0.00     0.003 A 
HETATM   32  C   UNL     1     -43.565  56.288 -58.581  1.00  0.00     0.009 A 
BRANCH  29  33
HETATM   33  O   UNL     1     -41.887  59.289 -60.933  1.00  0.00    -0.356 OA
HETATM   34  C   UNL     1     -41.832  60.630 -60.465  1.00  0.00     0.210 C 
ENDBRANCH  29  33
ENDBRANCH  26  27
ENDBRANCH  23  26
ENDBRANCH   4  22
TORSDOF 8
ENDMDL
