MODEL 1
REMARK VINA RESULT:      -6.8      0.000      0.000
REMARK  10 active torsions:
REMARK  status: ('A' for Active; 'I' for Inactive)
REMARK    1  A    between atoms: C_2  and  O_3 
REMARK    2  A    between atoms: O_3  and  C_4 
REMARK    3  A    between atoms: C_4  and  C_5 
REMARK    4  A    between atoms: C_6  and  C_7 
REMARK    5  A    between atoms: C_16  and  C_17 
REMARK    6  A    between atoms: C_17  and  C_18 
REMARK       I    between atoms: C_18  and  N_19 
REMARK    7  A    between atoms: N_19  and  C_20 
REMARK    8  A    between atoms: C_20  and  C_21 
REMARK    9  A    between atoms: C_21  and  N_22 
REMARK   10  A    between atoms: C_31  and  C_32 
ROOT
HETATM    1  C   UNL     1     -44.987  58.981 -52.224  1.00  0.00     0.078 C 
HETATM    2  C   UNL     1     -44.346  57.654 -52.512  1.00  0.00     0.167 C 
HETATM    3  N   UNL     1     -44.073  57.445 -53.956  1.00  0.00    -0.318 N 
HETATM    4  C   UNL     1     -43.651  56.439 -54.654  1.00  0.00     0.011 C 
HETATM    5  C   UNL     1     -44.239  58.712 -54.830  1.00  0.00     0.170 C 
HETATM    6  S   UNL     1     -43.772  58.435 -56.473  1.00  0.00    -0.086 SA
HETATM    7  C   UNL     1     -43.527  56.674 -56.144  1.00  0.00     0.135 C 
HETATM    8  N   UNL     1     -44.663  59.853 -54.423  1.00  0.00    -0.219 NA
HETATM    9  C   UNL     1     -45.117  59.986 -53.120  1.00  0.00     0.157 C 
ENDROOT
BRANCH   4  10
HETATM   10  C   UNL     1     -43.270  55.117 -54.050  1.00  0.00     0.156 C 
BRANCH  10  11
HETATM   11  C   UNL     1     -41.798  54.781 -54.050  1.00  0.00     0.223 C 
HETATM   12  N   UNL     1     -41.519  53.496 -54.444  1.00  0.00    -0.359 N 
HETATM   13  H   UNL     1     -42.302  52.860 -54.591  1.00  0.00     0.162 HD
HETATM   14  O   UNL     1     -40.926  55.602 -53.775  1.00  0.00    -0.273 OA
BRANCH  12  15
HETATM   15  C   UNL     1     -40.208  52.852 -54.336  1.00  0.00     0.150 C 
BRANCH  15  16
HETATM   16  C   UNL     1     -40.174  51.521 -53.553  1.00  0.00     0.253 C 
BRANCH  16  17
HETATM   17  N   UNL     1     -39.418  51.634 -52.244  1.00  0.00    -0.077 N 
HETATM   18  H   UNL     1     -38.424  51.816 -52.480  1.00  0.00     0.279 HD
HETATM   19  C   UNL     1     -39.872  52.789 -51.388  1.00  0.00     0.269 C 
HETATM   20  C   UNL     1     -39.468  50.350 -51.458  1.00  0.00     0.269 C 
ENDBRANCH  16  17
ENDBRANCH  15  16
ENDBRANCH  12  15
ENDBRANCH  10  11
ENDBRANCH   4  10
BRANCH   2  21
HETATM   21  C   UNL     1     -43.068  57.430 -51.700  1.00  0.00    -0.024 A 
HETATM   22  C   UNL     1     -42.897  56.317 -50.841  1.00  0.00    -0.053 A 
HETATM   23  C   UNL     1     -43.977  55.317 -50.522  1.00  0.00     0.049 C 
HETATM   24  C   UNL     1     -41.675  56.157 -50.164  1.00  0.00     0.008 A 
HETATM   25  C   UNL     1     -40.628  57.059 -50.334  1.00  0.00     0.007 A 
HETATM   26  C   UNL     1     -40.781  58.164 -51.166  1.00  0.00    -0.061 A 
HETATM   27  C   UNL     1     -39.673  59.170 -51.301  1.00  0.00     0.048 C 
HETATM   28  C   UNL     1     -42.004  58.360 -51.818  1.00  0.00     0.017 A 
ENDBRANCH   2  21
BRANCH   1  29
HETATM   29  C   UNL     1     -45.628  59.038 -50.894  1.00  0.00     0.294 C 
HETATM   30  O   UNL     1     -46.654  58.417 -50.667  1.00  0.00    -0.259 OA
BRANCH  29  31
HETATM   31  O   UNL     1     -44.894  59.778 -50.045  1.00  0.00    -0.318 OA
BRANCH  31  32
HETATM   32  C   UNL     1     -45.630  60.514 -49.050  1.00  0.00     0.174 C 
HETATM   33  C   UNL     1     -44.705  61.427 -48.270  1.00  0.00     0.034 C 
ENDBRANCH  31  32
ENDBRANCH  29  31
ENDBRANCH   1  29
BRANCH   9  34
HETATM   34  C   UNL     1     -45.870  61.298 -52.806  1.00  0.00     0.435 C 
HETATM   35  F   UNL     1     -45.181  62.068 -51.929  1.00  0.00    -0.165 F 
HETATM   36  F   UNL     1     -46.048  62.051 -53.920  1.00  0.00    -0.165 F 
HETATM   37  F   UNL     1     -47.084  61.051 -52.265  1.00  0.00    -0.165 F 
ENDBRANCH   9  34
TORSDOF 10
ENDMDL
MODEL 2
REMARK VINA RESULT:      -6.5      3.218      5.838
REMARK  10 active torsions:
REMARK  status: ('A' for Active; 'I' for Inactive)
REMARK    1  A    between atoms: C_2  and  O_3 
REMARK    2  A    between atoms: O_3  and  C_4 
REMARK    3  A    between atoms: C_4  and  C_5 
REMARK    4  A    between atoms: C_6  and  C_7 
REMARK    5  A    between atoms: C_16  and  C_17 
REMARK    6  A    between atoms: C_17  and  C_18 
REMARK       I    between atoms: C_18  and  N_19 
REMARK    7  A    between atoms: N_19  and  C_20 
REMARK    8  A    between atoms: C_20  and  C_21 
REMARK    9  A    between atoms: C_21  and  N_22 
REMARK   10  A    between atoms: C_31  and  C_32 
ROOT
HETATM    1  C   UNL     1     -43.128  58.190 -57.034  1.00  0.00     0.078 C 
HETATM    2  C   UNL     1     -42.251  58.003 -55.829  1.00  0.00     0.167 C 
HETATM    3  N   UNL     1     -42.466  59.042 -54.791  1.00  0.00    -0.318 N 
HETATM    4  C   UNL     1     -41.872  59.334 -53.677  1.00  0.00     0.011 C 
HETATM    5  C   UNL     1     -43.713  59.929 -55.020  1.00  0.00     0.170 C 
HETATM    6  S   UNL     1     -43.984  61.022 -53.706  1.00  0.00    -0.086 SA
HETATM    7  C   UNL     1     -42.436  60.518 -52.920  1.00  0.00     0.135 C 
HETATM    8  N   UNL     1     -44.485  59.887 -56.044  1.00  0.00    -0.219 NA
HETATM    9  C   UNL     1     -44.160  59.061 -57.110  1.00  0.00     0.157 C 
ENDROOT
BRANCH   4  10
HETATM   10  C   UNL     1     -40.716  58.549 -53.127  1.00  0.00     0.156 C 
BRANCH  10  11
HETATM   11  C   UNL     1     -40.907  57.947 -51.755  1.00  0.00     0.223 C 
HETATM   12  N   UNL     1     -41.564  56.742 -51.761  1.00  0.00    -0.359 N 
HETATM   13  H   UNL     1     -41.956  56.415 -52.643  1.00  0.00     0.162 HD
HETATM   14  O   UNL     1     -40.465  58.464 -50.732  1.00  0.00    -0.273 OA
BRANCH  12  15
HETATM   15  C   UNL     1     -42.060  56.051 -50.569  1.00  0.00     0.150 C 
BRANCH  15  16
HETATM   16  C   UNL     1     -41.909  54.515 -50.568  1.00  0.00     0.253 C 
BRANCH  16  17
HETATM   17  N   UNL     1     -40.473  54.070 -50.772  1.00  0.00    -0.077 N 
HETATM   18  H   UNL     1     -40.094  54.618 -51.568  1.00  0.00     0.279 HD
HETATM   19  C   UNL     1     -39.584  54.361 -49.591  1.00  0.00     0.269 C 
HETATM   20  C   UNL     1     -40.388  52.613 -51.145  1.00  0.00     0.269 C 
ENDBRANCH  16  17
ENDBRANCH  15  16
ENDBRANCH  12  15
ENDBRANCH  10  11
ENDBRANCH   4  10
BRANCH   2  21
HETATM   21  C   UNL     1     -42.389  56.608 -55.212  1.00  0.00    -0.024 A 
HETATM   22  C   UNL     1     -43.595  56.153 -54.625  1.00  0.00    -0.053 A 
HETATM   23  C   UNL     1     -44.815  57.011 -54.415  1.00  0.00     0.049 C 
HETATM   24  C   UNL     1     -43.657  54.842 -54.120  1.00  0.00     0.008 A 
HETATM   25  C   UNL     1     -42.565  53.981 -54.202  1.00  0.00     0.007 A 
HETATM   26  C   UNL     1     -41.369  54.415 -54.766  1.00  0.00    -0.061 A 
HETATM   27  C   UNL     1     -40.173  53.506 -54.798  1.00  0.00     0.048 C 
HETATM   28  C   UNL     1     -41.278  55.729 -55.240  1.00  0.00     0.017 A 
ENDBRANCH   2  21
BRANCH   1  29
HETATM   29  C   UNL     1     -42.655  57.441 -58.216  1.00  0.00     0.294 C 
HETATM   30  O   UNL     1     -41.748  57.874 -58.908  1.00  0.00    -0.259 OA
BRANCH  29  31
HETATM   31  O   UNL     1     -43.308  56.272 -58.330  1.00  0.00    -0.318 OA
BRANCH  31  32
HETATM   32  C   UNL     1     -43.390  55.719 -59.656  1.00  0.00     0.174 C 
HETATM   33  C   UNL     1     -44.410  54.599 -59.706  1.00  0.00     0.034 C 
ENDBRANCH  31  32
ENDBRANCH  29  31
ENDBRANCH   1  29
BRANCH   9  34
HETATM   34  C   UNL     1     -44.974  59.288 -58.402  1.00  0.00     0.435 C 
HETATM   35  F   UNL     1     -45.621  58.160 -58.785  1.00  0.00    -0.165 F 
HETATM   36  F   UNL     1     -45.927  60.238 -58.233  1.00  0.00    -0.165 F 
HETATM   37  F   UNL     1     -44.176  59.667 -59.426  1.00  0.00    -0.165 F 
ENDBRANCH   9  34
TORSDOF 10
ENDMDL
MODEL 3
REMARK VINA RESULT:      -6.3      4.582      7.439
REMARK  10 active torsions:
REMARK  status: ('A' for Active; 'I' for Inactive)
REMARK    1  A    between atoms: C_2  and  O_3 
REMARK    2  A    between atoms: O_3  and  C_4 
REMARK    3  A    between atoms: C_4  and  C_5 
REMARK    4  A    between atoms: C_6  and  C_7 
REMARK    5  A    between atoms: C_16  and  C_17 
REMARK    6  A    between atoms: C_17  and  C_18 
REMARK       I    between atoms: C_18  and  N_19 
REMARK    7  A    between atoms: N_19  and  C_20 
REMARK    8  A    between atoms: C_20  and  C_21 
REMARK    9  A    between atoms: C_21  and  N_22 
REMARK   10  A    between atoms: C_31  and  C_32 
ROOT
HETATM    1  C   UNL     1     -42.331  59.611 -59.015  1.00  0.00     0.078 C 
HETATM    2  C   UNL     1     -42.736  58.294 -58.418  1.00  0.00     0.167 C 
HETATM    3  N   UNL     1     -42.445  58.205 -56.965  1.00  0.00    -0.318 N 
HETATM    4  C   UNL     1     -42.517  57.250 -56.092  1.00  0.00     0.011 C 
HETATM    5  C   UNL     1     -42.052  59.548 -56.306  1.00  0.00     0.170 C 
HETATM    6  S   UNL     1     -41.865  59.402 -54.592  1.00  0.00    -0.086 SA
HETATM    7  C   UNL     1     -42.100  57.612 -54.683  1.00  0.00     0.135 C 
HETATM    8  N   UNL     1     -41.881  60.662 -56.919  1.00  0.00    -0.219 NA
HETATM    9  C   UNL     1     -41.946  60.695 -58.304  1.00  0.00     0.157 C 
ENDROOT
BRANCH   4  10
HETATM   10  C   UNL     1     -43.008  55.868 -56.418  1.00  0.00     0.156 C 
BRANCH  10  11
HETATM   11  C   UNL     1     -42.998  54.870 -55.284  1.00  0.00     0.223 C 
HETATM   12  N   UNL     1     -41.795  54.234 -55.111  1.00  0.00    -0.359 N 
HETATM   13  H   UNL     1     -41.065  54.393 -55.804  1.00  0.00     0.162 HD
HETATM   14  O   UNL     1     -43.965  54.687 -54.548  1.00  0.00    -0.273 OA
BRANCH  12  15
HETATM   15  C   UNL     1     -41.573  53.084 -54.232  1.00  0.00     0.150 C 
BRANCH  15  16
HETATM   16  C   UNL     1     -40.211  52.372 -54.384  1.00  0.00     0.253 C 
BRANCH  16  17
HETATM   17  N   UNL     1     -40.127  51.095 -53.570  1.00  0.00    -0.077 N 
HETATM   18  H   UNL     1     -41.100  50.798 -53.365  1.00  0.00     0.279 HD
HETATM   19  C   UNL     1     -39.478  49.955 -54.312  1.00  0.00     0.269 C 
HETATM   20  C   UNL     1     -39.436  51.319 -52.250  1.00  0.00     0.269 C 
ENDBRANCH  16  17
ENDBRANCH  15  16
ENDBRANCH  12  15
ENDBRANCH  10  11
ENDBRANCH   4  10
BRANCH   2  21
HETATM   21  C   UNL     1     -44.206  57.956 -58.681  1.00  0.00    -0.024 A 
HETATM   22  C   UNL     1     -44.605  56.799 -59.392  1.00  0.00    -0.053 A 
HETATM   23  C   UNL     1     -43.655  55.856 -60.083  1.00  0.00     0.049 C 
HETATM   24  C   UNL     1     -45.977  56.534 -59.553  1.00  0.00     0.008 A 
HETATM   25  C   UNL     1     -46.946  57.375 -59.011  1.00  0.00     0.007 A 
HETATM   26  C   UNL     1     -46.572  58.522 -58.317  1.00  0.00    -0.061 A 
HETATM   27  C   UNL     1     -47.618  59.462 -57.787  1.00  0.00     0.048 C 
HETATM   28  C   UNL     1     -45.211  58.821 -58.181  1.00  0.00     0.017 A 
ENDBRANCH   2  21
BRANCH   1  29
HETATM   29  C   UNL     1     -42.228  59.571 -60.488  1.00  0.00     0.294 C 
HETATM   30  O   UNL     1     -41.388  58.876 -61.038  1.00  0.00    -0.259 OA
BRANCH  29  31
HETATM   31  O   UNL     1     -43.190  60.322 -61.052  1.00  0.00    -0.318 OA
BRANCH  31  32
HETATM   32  C   UNL     1     -42.848  60.960 -62.296  1.00  0.00     0.174 C 
HETATM   33  C   UNL     1     -44.046  60.999 -63.223  1.00  0.00     0.034 C 
ENDBRANCH  31  32
ENDBRANCH  29  31
ENDBRANCH   1  29
BRANCH   9  34
HETATM   34  C   UNL     1     -41.446  61.998 -58.965  1.00  0.00     0.435 C 
HETATM   35  F   UNL     1     -40.803  62.792 -58.074  1.00  0.00    -0.165 F 
HETATM   36  F   UNL     1     -40.563  61.746 -59.962  1.00  0.00    -0.165 F 
HETATM   37  F   UNL     1     -42.472  62.713 -59.481  1.00  0.00    -0.165 F 
ENDBRANCH   9  34
TORSDOF 10
ENDMDL
MODEL 4
REMARK VINA RESULT:      -6.1      3.046      4.259
REMARK  10 active torsions:
REMARK  status: ('A' for Active; 'I' for Inactive)
REMARK    1  A    between atoms: C_2  and  O_3 
REMARK    2  A    between atoms: O_3  and  C_4 
REMARK    3  A    between atoms: C_4  and  C_5 
REMARK    4  A    between atoms: C_6  and  C_7 
REMARK    5  A    between atoms: C_16  and  C_17 
REMARK    6  A    between atoms: C_17  and  C_18 
REMARK       I    between atoms: C_18  and  N_19 
REMARK    7  A    between atoms: N_19  and  C_20 
REMARK    8  A    between atoms: C_20  and  C_21 
REMARK    9  A    between atoms: C_21  and  N_22 
REMARK   10  A    between atoms: C_31  and  C_32 
ROOT
HETATM    1  C   UNL     1     -43.171  59.785 -55.015  1.00  0.00     0.078 C 
HETATM    2  C   UNL     1     -43.524  58.956 -53.813  1.00  0.00     0.167 C 
HETATM    3  N   UNL     1     -43.325  57.502 -54.036  1.00  0.00    -0.318 N 
HETATM    4  C   UNL     1     -43.599  56.442 -53.343  1.00  0.00     0.011 C 
HETATM    5  C   UNL     1     -42.550  57.151 -55.328  1.00  0.00     0.170 C 
HETATM    6  S   UNL     1     -42.230  55.455 -55.456  1.00  0.00    -0.086 SA
HETATM    7  C   UNL     1     -43.219  55.122 -53.980  1.00  0.00     0.135 C 
HETATM    8  N   UNL     1     -42.164  57.988 -56.222  1.00  0.00    -0.219 NA
HETATM    9  C   UNL     1     -42.537  59.319 -56.114  1.00  0.00     0.157 C 
ENDROOT
BRANCH   4  10
HETATM   10  C   UNL     1     -44.224  56.486 -51.978  1.00  0.00     0.156 C 
BRANCH  10  11
HETATM   11  C   UNL     1     -43.435  55.845 -50.860  1.00  0.00     0.223 C 
HETATM   12  N   UNL     1     -42.342  56.573 -50.461  1.00  0.00    -0.359 N 
HETATM   13  H   UNL     1     -42.092  57.398 -51.004  1.00  0.00     0.162 HD
HETATM   14  O   UNL     1     -43.776  54.796 -50.319  1.00  0.00    -0.273 OA
BRANCH  12  15
HETATM   15  C   UNL     1     -41.300  56.090 -49.552  1.00  0.00     0.150 C 
BRANCH  15  16
HETATM   16  C   UNL     1     -40.346  55.021 -50.128  1.00  0.00     0.253 C 
BRANCH  16  17
HETATM   17  N   UNL     1     -40.807  53.607 -49.830  1.00  0.00    -0.077 N 
HETATM   18  H   UNL     1     -41.828  53.574 -50.011  1.00  0.00     0.279 HD
HETATM   19  C   UNL     1     -40.180  52.573 -50.729  1.00  0.00     0.269 C 
HETATM   20  C   UNL     1     -40.592  53.243 -48.385  1.00  0.00     0.269 C 
ENDBRANCH  16  17
ENDBRANCH  15  16
ENDBRANCH  12  15
ENDBRANCH  10  11
ENDBRANCH   4  10
BRANCH   2  21
HETATM   21  C   UNL     1     -42.777  59.400 -52.553  1.00  0.00    -0.024 A 
HETATM   22  C   UNL     1     -43.430  60.019 -51.459  1.00  0.00    -0.053 A 
HETATM   23  C   UNL     1     -44.878  60.433 -51.459  1.00  0.00     0.049 C 
HETATM   24  C   UNL     1     -42.682  60.356 -50.318  1.00  0.00     0.008 A 
HETATM   25  C   UNL     1     -41.320  60.079 -50.235  1.00  0.00     0.007 A 
HETATM   26  C   UNL     1     -40.659  59.480 -51.304  1.00  0.00    -0.061 A 
HETATM   27  C   UNL     1     -39.178  59.238 -51.239  1.00  0.00     0.048 C 
HETATM   28  C   UNL     1     -41.381  59.172 -52.463  1.00  0.00     0.017 A 
ENDBRANCH   2  21
BRANCH   1  29
HETATM   29  C   UNL     1     -43.737  61.149 -54.963  1.00  0.00     0.294 C 
HETATM   30  O   UNL     1     -44.882  61.365 -55.326  1.00  0.00    -0.259 OA
BRANCH  29  31
HETATM   31  O   UNL     1     -42.854  62.008 -54.426  1.00  0.00    -0.318 OA
BRANCH  31  32
HETATM   32  C   UNL     1     -43.363  63.313 -54.093  1.00  0.00     0.174 C 
HETATM   33  C   UNL     1     -43.188  63.593 -52.614  1.00  0.00     0.034 C 
ENDBRANCH  31  32
ENDBRANCH  29  31
ENDBRANCH   1  29
BRANCH   9  34
HETATM   34  C   UNL     1     -42.280  60.187 -57.366  1.00  0.00     0.435 C 
HETATM   35  F   UNL     1     -43.441  60.549 -57.965  1.00  0.00    -0.165 F 
HETATM   36  F   UNL     1     -41.635  61.338 -57.053  1.00  0.00    -0.165 F 
HETATM   37  F   UNL     1     -41.539  59.523 -58.282  1.00  0.00    -0.165 F 
ENDBRANCH   9  34
TORSDOF 10
ENDMDL
MODEL 5
REMARK VINA RESULT:      -6.1      3.614      6.401
REMARK  10 active torsions:
REMARK  status: ('A' for Active; 'I' for Inactive)
REMARK    1  A    between atoms: C_2  and  O_3 
REMARK    2  A    between atoms: O_3  and  C_4 
REMARK    3  A    between atoms: C_4  and  C_5 
REMARK    4  A    between atoms: C_6  and  C_7 
REMARK    5  A    between atoms: C_16  and  C_17 
REMARK    6  A    between atoms: C_17  and  C_18 
REMARK       I    between atoms: C_18  and  N_19 
REMARK    7  A    between atoms: N_19  and  C_20 
REMARK    8  A    between atoms: C_20  and  C_21 
REMARK    9  A    between atoms: C_21  and  N_22 
REMARK   10  A    between atoms: C_31  and  C_32 
ROOT
HETATM    1  C   UNL     1     -44.078  57.645 -57.711  1.00  0.00     0.078 C 
HETATM    2  C   UNL     1     -43.058  57.871 -56.632  1.00  0.00     0.167 C 
HETATM    3  N   UNL     1     -43.348  59.070 -55.806  1.00  0.00    -0.318 N 
HETATM    4  C   UNL     1     -42.703  59.694 -54.872  1.00  0.00     0.011 C 
HETATM    5  C   UNL     1     -44.753  59.678 -56.029  1.00  0.00     0.170 C 
HETATM    6  S   UNL     1     -45.078  60.983 -54.939  1.00  0.00    -0.086 SA
HETATM    7  C   UNL     1     -43.390  60.915 -54.298  1.00  0.00     0.135 C 
HETATM    8  N   UNL     1     -45.609  59.288 -56.902  1.00  0.00    -0.219 NA
HETATM    9  C   UNL     1     -45.254  58.305 -57.813  1.00  0.00     0.157 C 
ENDROOT
BRANCH   4  10
HETATM   10  C   UNL     1     -41.370  59.242 -54.345  1.00  0.00     0.156 C 
BRANCH  10  11
HETATM   11  C   UNL     1     -41.266  59.069 -52.848  1.00  0.00     0.223 C 
HETATM   12  N   UNL     1     -41.473  57.782 -52.421  1.00  0.00    -0.359 N 
HETATM   13  H   UNL     1     -41.783  57.093 -53.106  1.00  0.00     0.162 HD
HETATM   14  O   UNL     1     -40.965  59.987 -52.090  1.00  0.00    -0.273 OA
BRANCH  12  15
HETATM   15  C   UNL     1     -41.635  57.379 -51.022  1.00  0.00     0.150 C 
BRANCH  15  16
HETATM   16  C   UNL     1     -42.072  55.917 -50.788  1.00  0.00     0.253 C 
BRANCH  16  17
HETATM   17  N   UNL     1     -43.503  55.806 -50.298  1.00  0.00    -0.077 N 
HETATM   18  H   UNL     1     -43.490  55.983 -49.275  1.00  0.00     0.279 HD
HETATM   19  C   UNL     1     -44.422  56.838 -50.900  1.00  0.00     0.269 C 
HETATM   20  C   UNL     1     -44.060  54.423 -50.511  1.00  0.00     0.269 C 
ENDBRANCH  16  17
ENDBRANCH  15  16
ENDBRANCH  12  15
ENDBRANCH  10  11
ENDBRANCH   4  10
BRANCH   2  21
HETATM   21  C   UNL     1     -42.873  56.647 -55.731  1.00  0.00    -0.024 A 
HETATM   22  C   UNL     1     -43.868  56.214 -54.822  1.00  0.00    -0.053 A 
HETATM   23  C   UNL     1     -45.141  56.967 -54.534  1.00  0.00     0.049 C 
HETATM   24  C   UNL     1     -43.642  55.054 -54.062  1.00  0.00     0.008 A 
HETATM   25  C   UNL     1     -42.469  54.314 -54.199  1.00  0.00     0.007 A 
HETATM   26  C   UNL     1     -41.476  54.730 -55.080  1.00  0.00    -0.061 A 
HETATM   27  C   UNL     1     -40.186  53.967 -55.182  1.00  0.00     0.048 C 
HETATM   28  C   UNL     1     -41.669  55.904 -55.817  1.00  0.00     0.017 A 
ENDBRANCH   2  21
BRANCH   1  29
HETATM   29  C   UNL     1     -43.605  56.732 -58.772  1.00  0.00     0.294 C 
HETATM   30  O   UNL     1     -42.714  57.070 -59.536  1.00  0.00    -0.259 OA
BRANCH  29  31
HETATM   31  O   UNL     1     -44.236  55.548 -58.697  1.00  0.00    -0.318 OA
BRANCH  31  32
HETATM   32  C   UNL     1     -44.065  54.667 -59.822  1.00  0.00     0.174 C 
HETATM   33  C   UNL     1     -45.050  55.010 -60.922  1.00  0.00     0.034 C 
ENDBRANCH  31  32
ENDBRANCH  29  31
ENDBRANCH   1  29
BRANCH   9  34
HETATM   34  C   UNL     1     -46.228  58.106 -58.994  1.00  0.00     0.435 C 
HETATM   35  F   UNL     1     -47.189  59.062 -59.011  1.00  0.00    -0.165 F 
HETATM   36  F   UNL     1     -45.590  58.183 -60.188  1.00  0.00    -0.165 F 
HETATM   37  F   UNL     1     -46.848  56.907 -58.924  1.00  0.00    -0.165 F 
ENDBRANCH   9  34
TORSDOF 10
ENDMDL
MODEL 6
REMARK VINA RESULT:      -5.9      4.696      7.586
REMARK  10 active torsions:
REMARK  status: ('A' for Active; 'I' for Inactive)
REMARK    1  A    between atoms: C_2  and  O_3 
REMARK    2  A    between atoms: O_3  and  C_4 
REMARK    3  A    between atoms: C_4  and  C_5 
REMARK    4  A    between atoms: C_6  and  C_7 
REMARK    5  A    between atoms: C_16  and  C_17 
REMARK    6  A    between atoms: C_17  and  C_18 
REMARK       I    between atoms: C_18  and  N_19 
REMARK    7  A    between atoms: N_19  and  C_20 
REMARK    8  A    between atoms: C_20  and  C_21 
REMARK    9  A    between atoms: C_21  and  N_22 
REMARK   10  A    between atoms: C_31  and  C_32 
ROOT
HETATM    1  C   UNL     1     -44.820  57.700 -58.229  1.00  0.00     0.078 C 
HETATM    2  C   UNL     1     -44.625  58.496 -56.970  1.00  0.00     0.167 C 
HETATM    3  N   UNL     1     -43.746  57.815 -55.986  1.00  0.00    -0.318 N 
HETATM    4  C   UNL     1     -43.404  58.067 -54.763  1.00  0.00     0.011 C 
HETATM    5  C   UNL     1     -42.995  56.582 -56.544  1.00  0.00     0.170 C 
HETATM    6  S   UNL     1     -41.884  55.921 -55.393  1.00  0.00    -0.086 SA
HETATM    7  C   UNL     1     -42.466  57.067 -54.121  1.00  0.00     0.135 C 
HETATM    8  N   UNL     1     -43.143  56.080 -57.715  1.00  0.00    -0.219 NA
HETATM    9  C   UNL     1     -44.120  56.591 -58.557  1.00  0.00     0.157 C 
ENDROOT
BRANCH   4  10
HETATM   10  C   UNL     1     -43.867  59.280 -54.008  1.00  0.00     0.156 C 
BRANCH  10  11
HETATM   11  C   UNL     1     -42.850  59.934 -53.103  1.00  0.00     0.223 C 
HETATM   12  N   UNL     1     -43.178  59.889 -51.772  1.00  0.00    -0.359 N 
HETATM   13  H   UNL     1     -44.099  59.535 -51.517  1.00  0.00     0.162 HD
HETATM   14  O   UNL     1     -41.797  60.412 -53.518  1.00  0.00    -0.273 OA
BRANCH  12  15
HETATM   15  C   UNL     1     -42.482  60.621 -50.711  1.00  0.00     0.150 C 
BRANCH  15  16
HETATM   16  C   UNL     1     -41.337  59.861 -50.008  1.00  0.00     0.253 C 
BRANCH  16  17
HETATM   17  N   UNL     1     -40.518  59.020 -50.968  1.00  0.00    -0.077 N 
HETATM   18  H   UNL     1     -40.832  59.260 -51.928  1.00  0.00     0.279 HD
HETATM   19  C   UNL     1     -39.042  59.316 -50.913  1.00  0.00     0.269 C 
HETATM   20  C   UNL     1     -40.764  57.547 -50.769  1.00  0.00     0.269 C 
ENDBRANCH  16  17
ENDBRANCH  15  16
ENDBRANCH  12  15
ENDBRANCH  10  11
ENDBRANCH   4  10
BRANCH   2  21
HETATM   21  C   UNL     1     -44.109  59.911 -57.243  1.00  0.00    -0.024 A 
HETATM   22  C   UNL     1     -44.881  61.068 -56.975  1.00  0.00    -0.053 A 
HETATM   23  C   UNL     1     -46.320  61.044 -56.532  1.00  0.00     0.049 C 
HETATM   24  C   UNL     1     -44.319  62.335 -57.209  1.00  0.00     0.008 A 
HETATM   25  C   UNL     1     -43.016  62.474 -57.682  1.00  0.00     0.007 A 
HETATM   26  C   UNL     1     -42.246  61.348 -57.960  1.00  0.00    -0.061 A 
HETATM   27  C   UNL     1     -40.863  61.498 -58.528  1.00  0.00     0.048 C 
HETATM   28  C   UNL     1     -42.803  60.079 -57.768  1.00  0.00     0.017 A 
ENDBRANCH   2  21
BRANCH   1  29
HETATM   29  C   UNL     1     -45.984  58.148 -59.021  1.00  0.00     0.294 C 
HETATM   30  O   UNL     1     -47.122  57.929 -58.639  1.00  0.00    -0.259 OA
BRANCH  29  31
HETATM   31  O   UNL     1     -45.584  58.837 -60.104  1.00  0.00    -0.318 OA
BRANCH  31  32
HETATM   32  C   UNL     1     -46.215  60.114 -60.310  1.00  0.00     0.174 C 
HETATM   33  C   UNL     1     -45.186  61.164 -60.681  1.00  0.00     0.034 C 
ENDBRANCH  31  32
ENDBRANCH  29  31
ENDBRANCH   1  29
BRANCH   9  34
HETATM   34  C   UNL     1     -44.421  55.751 -59.817  1.00  0.00     0.435 C 
HETATM   35  F   UNL     1     -44.123  56.432 -60.951  1.00  0.00    -0.165 F 
HETATM   36  F   UNL     1     -43.683  54.614 -59.848  1.00  0.00    -0.165 F 
HETATM   37  F   UNL     1     -45.728  55.408 -59.879  1.00  0.00    -0.165 F 
ENDBRANCH   9  34
TORSDOF 10
ENDMDL
MODEL 7
REMARK VINA RESULT:      -5.9     17.623     20.733
REMARK  10 active torsions:
REMARK  status: ('A' for Active; 'I' for Inactive)
REMARK    1  A    between atoms: C_2  and  O_3 
REMARK    2  A    between atoms: O_3  and  C_4 
REMARK    3  A    between atoms: C_4  and  C_5 
REMARK    4  A    between atoms: C_6  and  C_7 
REMARK    5  A    between atoms: C_16  and  C_17 
REMARK    6  A    between atoms: C_17  and  C_18 
REMARK       I    between atoms: C_18  and  N_19 
REMARK    7  A    between atoms: N_19  and  C_20 
REMARK    8  A    between atoms: C_20  and  C_21 
REMARK    9  A    between atoms: C_21  and  N_22 
REMARK   10  A    between atoms: C_31  and  C_32 
ROOT
HETATM    1  C   UNL     1     -35.932  40.181 -52.982  1.00  0.00     0.078 C 
HETATM    2  C   UNL     1     -34.979  40.279 -54.139  1.00  0.00     0.167 C 
HETATM    3  N   UNL     1     -33.737  39.494 -53.932  1.00  0.00    -0.318 N 
HETATM    4  C   UNL     1     -32.627  39.380 -54.590  1.00  0.00     0.011 C 
HETATM    5  C   UNL     1     -33.782  38.528 -52.724  1.00  0.00     0.170 C 
HETATM    6  S   UNL     1     -32.362  37.544 -52.623  1.00  0.00    -0.086 SA
HETATM    7  C   UNL     1     -31.597  38.446 -53.991  1.00  0.00     0.135 C 
HETATM    8  N   UNL     1     -34.741  38.432 -51.877  1.00  0.00    -0.219 NA
HETATM    9  C   UNL     1     -35.807  39.315 -51.951  1.00  0.00     0.157 C 
ENDROOT
BRANCH   4  10
HETATM   10  C   UNL     1     -32.357  40.092 -55.885  1.00  0.00     0.156 C 
BRANCH  10  11
HETATM   11  C   UNL     1     -31.178  39.597 -56.689  1.00  0.00     0.223 C 
HETATM   12  N   UNL     1     -31.448  38.487 -57.449  1.00  0.00    -0.359 N 
HETATM   13  H   UNL     1     -32.353  38.033 -57.330  1.00  0.00     0.162 HD
HETATM   14  O   UNL     1     -30.092  40.171 -56.702  1.00  0.00    -0.273 OA
BRANCH  12  15
HETATM   15  C   UNL     1     -30.442  37.687 -58.151  1.00  0.00     0.150 C 
BRANCH  15  16
HETATM   16  C   UNL     1     -29.536  36.810 -57.261  1.00  0.00     0.253 C 
BRANCH  16  17
HETATM   17  N   UNL     1     -28.073  37.198 -57.356  1.00  0.00    -0.077 N 
HETATM   18  H   UNL     1     -27.539  36.332 -57.563  1.00  0.00     0.279 HD
HETATM   19  C   UNL     1     -27.781  38.159 -58.479  1.00  0.00     0.269 C 
HETATM   20  C   UNL     1     -27.555  37.746 -56.051  1.00  0.00     0.269 C 
ENDBRANCH  16  17
ENDBRANCH  15  16
ENDBRANCH  12  15
ENDBRANCH  10  11
ENDBRANCH   4  10
BRANCH   2  21
HETATM   21  C   UNL     1     -35.629  39.892 -55.470  1.00  0.00    -0.024 A 
HETATM   22  C   UNL     1     -35.728  40.792 -56.559  1.00  0.00    -0.053 A 
HETATM   23  C   UNL     1     -35.344  42.247 -56.496  1.00  0.00     0.049 C 
HETATM   24  C   UNL     1     -36.297  40.347 -57.765  1.00  0.00     0.008 A 
HETATM   25  C   UNL     1     -36.747  39.037 -57.914  1.00  0.00     0.007 A 
HETATM   26  C   UNL     1     -36.667  38.141 -56.852  1.00  0.00    -0.061 A 
HETATM   27  C   UNL     1     -37.209  36.747 -56.994  1.00  0.00     0.048 C 
HETATM   28  C   UNL     1     -36.138  38.579 -55.632  1.00  0.00     0.017 A 
ENDBRANCH   2  21
BRANCH   1  29
HETATM   29  C   UNL     1     -36.953  41.249 -52.982  1.00  0.00     0.294 C 
HETATM   30  O   UNL     1     -36.650  42.404 -52.728  1.00  0.00    -0.259 OA
BRANCH  29  31
HETATM   31  O   UNL     1     -38.151  40.760 -53.347  1.00  0.00    -0.318 OA
BRANCH  31  32
HETATM   32  C   UNL     1     -39.294  41.324 -52.680  1.00  0.00     0.174 C 
HETATM   33  C   UNL     1     -40.473  41.418 -53.628  1.00  0.00     0.034 C 
ENDBRANCH  31  32
ENDBRANCH  29  31
ENDBRANCH   1  29
BRANCH   9  34
HETATM   34  C   UNL     1     -36.759  39.316 -50.735  1.00  0.00     0.435 C 
HETATM   35  F   UNL     1     -36.277  38.548 -49.727  1.00  0.00    -0.165 F 
HETATM   36  F   UNL     1     -36.918  40.562 -50.224  1.00  0.00    -0.165 F 
HETATM   37  F   UNL     1     -37.979  38.837 -51.065  1.00  0.00    -0.165 F 
ENDBRANCH   9  34
TORSDOF 10
ENDMDL
MODEL 8
REMARK VINA RESULT:      -5.8      1.840      2.175
REMARK  10 active torsions:
REMARK  status: ('A' for Active; 'I' for Inactive)
REMARK    1  A    between atoms: C_2  and  O_3 
REMARK    2  A    between atoms: O_3  and  C_4 
REMARK    3  A    between atoms: C_4  and  C_5 
REMARK    4  A    between atoms: C_6  and  C_7 
REMARK    5  A    between atoms: C_16  and  C_17 
REMARK    6  A    between atoms: C_17  and  C_18 
REMARK       I    between atoms: C_18  and  N_19 
REMARK    7  A    between atoms: N_19  and  C_20 
REMARK    8  A    between atoms: C_20  and  C_21 
REMARK    9  A    between atoms: C_21  and  N_22 
REMARK   10  A    between atoms: C_31  and  C_32 
ROOT
HETATM    1  C   UNL     1     -43.762  60.689 -53.398  1.00  0.00     0.078 C 
HETATM    2  C   UNL     1     -43.573  59.203 -53.516  1.00  0.00     0.167 C 
HETATM    3  N   UNL     1     -43.127  58.784 -54.868  1.00  0.00    -0.318 N 
HETATM    4  C   UNL     1     -42.955  57.634 -55.440  1.00  0.00     0.011 C 
HETATM    5  C   UNL     1     -42.684  59.947 -55.788  1.00  0.00     0.170 C 
HETATM    6  S   UNL     1     -42.046  59.381 -57.293  1.00  0.00    -0.086 SA
HETATM    7  C   UNL     1     -42.485  57.676 -56.878  1.00  0.00     0.135 C 
HETATM    8  N   UNL     1     -42.759  61.196 -55.504  1.00  0.00    -0.219 NA
HETATM    9  C   UNL     1     -43.372  61.593 -54.325  1.00  0.00     0.157 C 
ENDROOT
BRANCH   4  10
HETATM   10  C   UNL     1     -43.168  56.322 -54.739  1.00  0.00     0.156 C 
BRANCH  10  11
HETATM   11  C   UNL     1     -41.924  55.590 -54.295  1.00  0.00     0.223 C 
HETATM   12  N   UNL     1     -42.143  54.283 -53.941  1.00  0.00    -0.359 N 
HETATM   13  H   UNL     1     -43.107  53.953 -53.897  1.00  0.00     0.162 HD
HETATM   14  O   UNL     1     -40.808  56.104 -54.305  1.00  0.00    -0.273 OA
BRANCH  12  15
HETATM   15  C   UNL     1     -41.162  53.417 -53.282  1.00  0.00     0.150 C 
BRANCH  15  16
HETATM   16  C   UNL     1     -40.454  52.389 -54.191  1.00  0.00     0.253 C 
BRANCH  16  17
HETATM   17  N   UNL     1     -40.213  51.063 -53.495  1.00  0.00    -0.077 N 
HETATM   18  H   UNL     1     -41.141  50.696 -53.208  1.00  0.00     0.279 HD
HETATM   19  C   UNL     1     -39.599  50.020 -54.392  1.00  0.00     0.269 C 
HETATM   20  C   UNL     1     -39.388  51.231 -52.246  1.00  0.00     0.269 C 
ENDBRANCH  16  17
ENDBRANCH  15  16
ENDBRANCH  12  15
ENDBRANCH  10  11
ENDBRANCH   4  10
BRANCH   2  21
HETATM   21  C   UNL     1     -42.622  58.645 -52.454  1.00  0.00    -0.024 A 
HETATM   22  C   UNL     1     -43.016  57.648 -51.529  1.00  0.00    -0.053 A 
HETATM   23  C   UNL     1     -44.423  57.128 -51.388  1.00  0.00     0.049 C 
HETATM   24  C   UNL     1     -42.072  57.153 -50.613  1.00  0.00     0.008 A 
HETATM   25  C   UNL     1     -40.756  57.611 -50.610  1.00  0.00     0.007 A 
HETATM   26  C   UNL     1     -40.354  58.598 -51.505  1.00  0.00    -0.061 A 
HETATM   27  C   UNL     1     -38.951  59.135 -51.460  1.00  0.00     0.048 C 
HETATM   28  C   UNL     1     -41.291  59.128 -52.398  1.00  0.00     0.017 A 
ENDBRANCH   2  21
BRANCH   1  29
HETATM   29  C   UNL     1     -44.578  61.077 -52.229  1.00  0.00     0.294 C 
HETATM   30  O   UNL     1     -45.789  60.922 -52.233  1.00  0.00    -0.259 OA
BRANCH  29  31
HETATM   31  O   UNL     1     -43.796  61.526 -51.233  1.00  0.00    -0.318 OA
BRANCH  31  32
HETATM   32  C   UNL     1     -44.382  62.515 -50.366  1.00  0.00     0.174 C 
HETATM   33  C   UNL     1     -43.335  63.512 -49.910  1.00  0.00     0.034 C 
ENDBRANCH  31  32
ENDBRANCH  29  31
ENDBRANCH   1  29
BRANCH   9  34
HETATM   34  C   UNL     1     -43.673  63.102 -54.204  1.00  0.00     0.435 C 
HETATM   35  F   UNL     1     -42.965  63.671 -53.198  1.00  0.00    -0.165 F 
HETATM   36  F   UNL     1     -43.337  63.771 -55.335  1.00  0.00    -0.165 F 
HETATM   37  F   UNL     1     -44.984  63.324 -53.956  1.00  0.00    -0.165 F 
ENDBRANCH   9  34
TORSDOF 10
ENDMDL
MODEL 9
REMARK VINA RESULT:      -5.5      4.478      7.992
REMARK  10 active torsions:
REMARK  status: ('A' for Active; 'I' for Inactive)
REMARK    1  A    between atoms: C_2  and  O_3 
REMARK    2  A    between atoms: O_3  and  C_4 
REMARK    3  A    between atoms: C_4  and  C_5 
REMARK    4  A    between atoms: C_6  and  C_7 
REMARK    5  A    between atoms: C_16  and  C_17 
REMARK    6  A    between atoms: C_17  and  C_18 
REMARK       I    between atoms: C_18  and  N_19 
REMARK    7  A    between atoms: N_19  and  C_20 
REMARK    8  A    between atoms: C_20  and  C_21 
REMARK    9  A    between atoms: C_21  and  N_22 
REMARK   10  A    between atoms: C_31  and  C_32 
ROOT
HETATM    1  C   UNL     1     -44.618  57.659 -57.970  1.00  0.00     0.078 C 
HETATM    2  C   UNL     1     -44.333  58.373 -56.680  1.00  0.00     0.167 C 
HETATM    3  N   UNL     1     -43.401  57.625 -55.799  1.00  0.00    -0.318 N 
HETATM    4  C   UNL     1     -42.979  57.797 -54.587  1.00  0.00     0.011 C 
HETATM    5  C   UNL     1     -42.702  56.423 -56.479  1.00  0.00     0.170 C 
HETATM    6  S   UNL     1     -41.529  55.683 -55.445  1.00  0.00    -0.086 SA
HETATM    7  C   UNL     1     -42.013  56.752 -54.070  1.00  0.00     0.135 C 
HETATM    8  N   UNL     1     -42.931  55.997 -57.667  1.00  0.00    -0.219 NA
HETATM    9  C   UNL     1     -43.954  56.567 -58.411  1.00  0.00     0.157 C 
ENDROOT
BRANCH   4  10
HETATM   10  C   UNL     1     -43.378  58.966 -53.731  1.00  0.00     0.156 C 
BRANCH  10  11
HETATM   11  C   UNL     1     -44.524  58.735 -52.775  1.00  0.00     0.223 C 
HETATM   12  N   UNL     1     -45.164  59.884 -52.384  1.00  0.00    -0.359 N 
HETATM   13  H   UNL     1     -44.762  60.777 -52.667  1.00  0.00     0.162 HD
HETATM   14  O   UNL     1     -44.885  57.614 -52.424  1.00  0.00    -0.273 OA
BRANCH  12  15
HETATM   15  C   UNL     1     -46.162  59.966 -51.314  1.00  0.00     0.150 C 
BRANCH  15  16
HETATM   16  C   UNL     1     -45.618  59.841 -49.875  1.00  0.00     0.253 C 
BRANCH  16  17
HETATM   17  N   UNL     1     -45.468  61.185 -49.189  1.00  0.00    -0.077 N 
HETATM   18  H   UNL     1     -44.496  61.508 -49.359  1.00  0.00     0.279 HD
HETATM   19  C   UNL     1     -46.376  62.248 -49.751  1.00  0.00     0.269 C 
HETATM   20  C   UNL     1     -45.652  61.075 -47.698  1.00  0.00     0.269 C 
ENDBRANCH  16  17
ENDBRANCH  15  16
ENDBRANCH  12  15
ENDBRANCH  10  11
ENDBRANCH   4  10
BRANCH   2  21
HETATM   21  C   UNL     1     -43.818  59.799 -56.898  1.00  0.00    -0.024 A 
HETATM   22  C   UNL     1     -44.518  60.939 -56.435  1.00  0.00    -0.053 A 
HETATM   23  C   UNL     1     -45.888  60.900 -55.811  1.00  0.00     0.049 C 
HETATM   24  C   UNL     1     -43.957  62.213 -56.633  1.00  0.00     0.008 A 
HETATM   25  C   UNL     1     -42.722  62.372 -57.259  1.00  0.00     0.007 A 
HETATM   26  C   UNL     1     -42.025  61.263 -57.729  1.00  0.00    -0.061 A 
HETATM   27  C   UNL     1     -40.724  61.440 -58.458  1.00  0.00     0.048 C 
HETATM   28  C   UNL     1     -42.587  59.991 -57.573  1.00  0.00     0.017 A 
ENDBRANCH   2  21
BRANCH   1  29
HETATM   29  C   UNL     1     -45.824  58.165 -58.656  1.00  0.00     0.294 C 
HETATM   30  O   UNL     1     -46.939  57.911 -58.229  1.00  0.00    -0.259 OA
BRANCH  29  31
HETATM   31  O   UNL     1     -45.486  58.939 -59.702  1.00  0.00    -0.318 OA
BRANCH  31  32
HETATM   32  C   UNL     1     -46.102  60.239 -59.752  1.00  0.00     0.174 C 
HETATM   33  C   UNL     1     -45.085  61.298 -60.127  1.00  0.00     0.034 C 
ENDBRANCH  31  32
ENDBRANCH  29  31
ENDBRANCH   1  29
BRANCH   9  34
HETATM   34  C   UNL     1     -44.345  55.809 -59.698  1.00  0.00     0.435 C 
HETATM   35  F   UNL     1     -43.658  54.646 -59.817  1.00  0.00    -0.165 F 
HETATM   36  F   UNL     1     -45.661  55.480 -59.705  1.00  0.00    -0.165 F 
HETATM   37  F   UNL     1     -44.089  56.548 -60.801  1.00  0.00    -0.165 F 
ENDBRANCH   9  34
TORSDOF 10
ENDMDL
MODEL 10
REMARK VINA RESULT:      -5.5      4.698      7.926
REMARK  10 active torsions:
REMARK  status: ('A' for Active; 'I' for Inactive)
REMARK    1  A    between atoms: C_2  and  O_3 
REMARK    2  A    between atoms: O_3  and  C_4 
REMARK    3  A    between atoms: C_4  and  C_5 
REMARK    4  A    between atoms: C_6  and  C_7 
REMARK    5  A    between atoms: C_16  and  C_17 
REMARK    6  A    between atoms: C_17  and  C_18 
REMARK       I    between atoms: C_18  and  N_19 
REMARK    7  A    between atoms: N_19  and  C_20 
REMARK    8  A    between atoms: C_20  and  C_21 
REMARK    9  A    between atoms: C_21  and  N_22 
REMARK   10  A    between atoms: C_31  and  C_32 
ROOT
HETATM    1  C   UNL     1     -42.702  58.663 -55.584  1.00  0.00     0.078 C 
HETATM    2  C   UNL     1     -42.551  59.204 -56.977  1.00  0.00     0.167 C 
HETATM    3  N   UNL     1     -42.651  58.152 -58.020  1.00  0.00    -0.318 N 
HETATM    4  C   UNL     1     -42.474  58.140 -59.303  1.00  0.00     0.011 C 
HETATM    5  C   UNL     1     -43.158  56.784 -57.504  1.00  0.00     0.170 C 
HETATM    6  S   UNL     1     -43.385  55.647 -58.788  1.00  0.00    -0.086 SA
HETATM    7  C   UNL     1     -42.679  56.804 -59.985  1.00  0.00     0.135 C 
HETATM    8  N   UNL     1     -43.399  56.487 -56.279  1.00  0.00    -0.219 NA
HETATM    9  C   UNL     1     -43.102  57.407 -55.283  1.00  0.00     0.157 C 
ENDROOT
BRANCH   4  10
HETATM   10  C   UNL     1     -42.118  59.363 -60.099  1.00  0.00     0.156 C 
BRANCH  10  11
HETATM   11  C   UNL     1     -43.193  59.903 -61.013  1.00  0.00     0.223 C 
HETATM   12  N   UNL     1     -44.468  59.724 -60.541  1.00  0.00    -0.359 N 
HETATM   13  H   UNL     1     -44.593  59.162 -59.699  1.00  0.00     0.162 HD
HETATM   14  O   UNL     1     -42.942  60.499 -62.058  1.00  0.00    -0.273 OA
BRANCH  12  15
HETATM   15  C   UNL     1     -45.690  59.961 -61.313  1.00  0.00     0.150 C 
BRANCH  15  16
HETATM   16  C   UNL     1     -46.934  59.161 -60.871  1.00  0.00     0.253 C 
BRANCH  16  17
HETATM   17  N   UNL     1     -46.615  57.711 -60.563  1.00  0.00    -0.077 N 
HETATM   18  H   UNL     1     -45.634  57.544 -60.860  1.00  0.00     0.279 HD
HETATM   19  C   UNL     1     -46.678  57.383 -59.094  1.00  0.00     0.269 C 
HETATM   20  C   UNL     1     -47.490  56.768 -61.347  1.00  0.00     0.269 C 
ENDBRANCH  16  17
ENDBRANCH  15  16
ENDBRANCH  12  15
ENDBRANCH  10  11
ENDBRANCH   4  10
BRANCH   2  21
HETATM   21  C   UNL     1     -43.537  60.336 -57.278  1.00  0.00    -0.024 A 
HETATM   22  C   UNL     1     -43.113  61.631 -57.665  1.00  0.00    -0.053 A 
HETATM   23  C   UNL     1     -41.676  62.082 -57.692  1.00  0.00     0.049 C 
HETATM   24  C   UNL     1     -44.081  62.604 -57.970  1.00  0.00     0.008 A 
HETATM   25  C   UNL     1     -45.442  62.315 -57.915  1.00  0.00     0.007 A 
HETATM   26  C   UNL     1     -45.877  61.052 -57.526  1.00  0.00    -0.061 A 
HETATM   27  C   UNL     1     -47.346  60.760 -57.407  1.00  0.00     0.048 C 
HETATM   28  C   UNL     1     -44.928  60.082 -57.183  1.00  0.00     0.017 A 
ENDBRANCH   2  21
BRANCH   1  29
HETATM   29  C   UNL     1     -42.206  59.590 -54.547  1.00  0.00     0.294 C 
HETATM   30  O   UNL     1     -41.012  59.692 -54.318  1.00  0.00    -0.259 OA
BRANCH  29  31
HETATM   31  O   UNL     1     -43.223  60.282 -54.004  1.00  0.00    -0.318 OA
BRANCH  31  32
HETATM   32  C   UNL     1     -43.025  61.702 -53.877  1.00  0.00     0.174 C 
HETATM   33  C   UNL     1     -44.297  62.452 -54.219  1.00  0.00     0.034 C 
ENDBRANCH  31  32
ENDBRANCH  29  31
ENDBRANCH   1  29
BRANCH   9  34
HETATM   34  C   UNL     1     -43.150  56.864 -53.838  1.00  0.00     0.435 C 
HETATM   35  F   UNL     1     -44.036  57.554 -53.079  1.00  0.00    -0.165 F 
HETATM   36  F   UNL     1     -43.544  55.567 -53.804  1.00  0.00    -0.165 F 
HETATM   37  F   UNL     1     -41.942  56.955 -53.238  1.00  0.00    -0.165 F 
ENDBRANCH   9  34
TORSDOF 10
ENDMDL
