MODEL 1
REMARK VINA RESULT:      -7.3      0.000      0.000
REMARK  10 active torsions:
REMARK  status: ('A' for Active; 'I' for Inactive)
REMARK    1  A    between atoms: C_2  and  N_3 
REMARK    2  A    between atoms: N_7  and  C_8 
REMARK    3  A    between atoms: C_8  and  C_9 
REMARK    4  A    between atoms: C_9  and  N_10 
REMARK    5  A    between atoms: N_10  and  C_11 
REMARK    6  A    between atoms: C_13  and  C_14 
REMARK    7  A    between atoms: C_14  and  N_15 
REMARK    8  A    between atoms: C_23  and  C_24 
REMARK    9  A    between atoms: C_24  and  O_25 
REMARK   10  A    between atoms: O_25  and  C_26 
ROOT
HETATM    1  C   UNL     1     -43.483  55.999 -53.629  1.00  0.00     0.139 A 
HETATM    2  N   UNL     1     -43.711  56.696 -54.772  1.00  0.00    -0.214 NA
HETATM    3  C   UNL     1     -42.940  56.480 -55.849  1.00  0.00     0.155 A 
HETATM    4  N   UNL     1     -41.888  55.656 -55.920  1.00  0.00    -0.224 NA
HETATM    5  C   UNL     1     -41.672  54.984 -54.779  1.00  0.00     0.115 A 
HETATM    6  C   UNL     1     -42.417  55.061 -53.613  1.00  0.00     0.053 A 
HETATM    7  S   UNL     1     -40.372  53.909 -54.681  1.00  0.00    -0.063 SA
HETATM    8  C   UNL     1     -40.752  53.465 -53.074  1.00  0.00     0.089 A 
HETATM    9  C   UNL     1     -41.907  54.109 -52.626  1.00  0.00    -0.022 A 
HETATM   10  C   UNL     1     -42.542  53.849 -51.290  1.00  0.00     0.051 C 
ENDROOT
BRANCH   1  11
HETATM   11  N   UNL     1     -44.304  56.220 -52.529  1.00  0.00    -0.372 N 
HETATM   12  H   UNL     1     -44.651  55.355 -52.128  1.00  0.00     0.161 HD
BRANCH  11  13
HETATM   13  C   UNL     1     -43.932  57.214 -51.531  1.00  0.00     0.145 C 
BRANCH  13  14
HETATM   14  C   UNL     1     -44.502  58.634 -51.797  1.00  0.00     0.092 C 
HETATM   15  C   UNL     1     -45.575  59.004 -50.757  1.00  0.00     0.033 C 
BRANCH  14  16
HETATM   16  N   UNL     1     -43.498  59.718 -51.932  1.00  0.00    -0.404 N 
HETATM   17  C   UNL     1     -42.538  59.566 -53.031  1.00  0.00     0.145 C 
HETATM   18  C   UNL     1     -41.167  58.956 -52.662  1.00  0.00     0.254 C 
HETATM   19  N   UNL     1     -40.564  59.653 -51.456  1.00  0.00    -0.068 N 
HETATM   20  H   UNL     1     -40.406  60.636 -51.719  1.00  0.00     0.280 HD
HETATM   21  C   UNL     1     -41.545  59.673 -50.290  1.00  0.00     0.254 C 
HETATM   22  C   UNL     1     -42.895  60.280 -50.718  1.00  0.00     0.145 C 
BRANCH  19  23
HETATM   23  C   UNL     1     -39.234  59.075 -51.019  1.00  0.00     0.230 C 
HETATM   24  C   UNL     1     -38.523  59.995 -50.045  1.00  0.00     0.034 C 
ENDBRANCH  19  23
ENDBRANCH  14  16
ENDBRANCH  13  14
ENDBRANCH  11  13
ENDBRANCH   1  11
BRANCH   3  25
HETATM   25  C   UNL     1     -43.282  57.199 -57.144  1.00  0.00     0.314 C 
BRANCH  25  26
HETATM   26  N   UNL     1     -42.471  56.713 -58.346  1.00  0.00    -0.072 N 
HETATM   27  H   UNL     1     -41.705  56.157 -57.926  1.00  0.00     0.279 HD
HETATM   28  C   UNL     1     -43.243  55.763 -59.216  1.00  0.00     0.269 C 
HETATM   29  C   UNL     1     -41.856  57.831 -59.125  1.00  0.00     0.269 C 
ENDBRANCH  25  26
ENDBRANCH   3  25
BRANCH   8  30
HETATM   30  C   UNL     1     -39.900  52.529 -52.339  1.00  0.00     0.300 C 
HETATM   31  O   UNL     1     -39.756  52.532 -51.123  1.00  0.00    -0.259 OA
BRANCH  30  32
HETATM   32  O   UNL     1     -39.297  51.641 -53.180  1.00  0.00    -0.317 OA
BRANCH  32  33
HETATM   33  C   UNL     1     -39.898  50.340 -53.264  1.00  0.00     0.174 C 
HETATM   34  C   UNL     1     -39.791  49.811 -54.683  1.00  0.00     0.034 C 
ENDBRANCH  32  33
ENDBRANCH  30  32
ENDBRANCH   8  30
TORSDOF 10
ENDMDL
MODEL 2
REMARK VINA RESULT:      -7.0      1.758      2.507
REMARK  10 active torsions:
REMARK  status: ('A' for Active; 'I' for Inactive)
REMARK    1  A    between atoms: C_2  and  N_3 
REMARK    2  A    between atoms: N_7  and  C_8 
REMARK    3  A    between atoms: C_8  and  C_9 
REMARK    4  A    between atoms: C_9  and  N_10 
REMARK    5  A    between atoms: N_10  and  C_11 
REMARK    6  A    between atoms: C_13  and  C_14 
REMARK    7  A    between atoms: C_14  and  N_15 
REMARK    8  A    between atoms: C_23  and  C_24 
REMARK    9  A    between atoms: C_24  and  O_25 
REMARK   10  A    between atoms: O_25  and  C_26 
ROOT
HETATM    1  C   UNL     1     -43.774  56.124 -54.498  1.00  0.00     0.139 A 
HETATM    2  N   UNL     1     -43.809  56.377 -55.831  1.00  0.00    -0.214 NA
HETATM    3  C   UNL     1     -42.893  55.816 -56.639  1.00  0.00     0.155 A 
HETATM    4  N   UNL     1     -41.871  55.041 -56.261  1.00  0.00    -0.224 NA
HETATM    5  C   UNL     1     -41.848  54.811 -54.939  1.00  0.00     0.115 A 
HETATM    6  C   UNL     1     -42.754  55.272 -53.998  1.00  0.00     0.053 A 
HETATM    7  S   UNL     1     -40.612  53.864 -54.282  1.00  0.00    -0.063 SA
HETATM    8  C   UNL     1     -41.240  53.997 -52.696  1.00  0.00     0.089 A 
HETATM    9  C   UNL     1     -42.428  54.733 -52.678  1.00  0.00    -0.022 A 
HETATM   10  C   UNL     1     -43.261  54.939 -51.446  1.00  0.00     0.051 C 
ENDROOT
BRANCH   1  11
HETATM   11  N   UNL     1     -44.742  56.696 -53.679  1.00  0.00    -0.372 N 
HETATM   12  H   UNL     1     -45.120  56.033 -53.010  1.00  0.00     0.161 HD
BRANCH  11  13
HETATM   13  C   UNL     1     -44.530  58.025 -53.122  1.00  0.00     0.145 C 
BRANCH  13  14
HETATM   14  C   UNL     1     -44.277  59.131 -54.183  1.00  0.00     0.092 C 
HETATM   15  C   UNL     1     -45.475  60.093 -54.277  1.00  0.00     0.033 C 
BRANCH  14  16
HETATM   16  N   UNL     1     -43.004  59.881 -54.042  1.00  0.00    -0.404 N 
HETATM   17  C   UNL     1     -41.792  59.163 -54.448  1.00  0.00     0.145 C 
HETATM   18  C   UNL     1     -40.990  58.479 -53.318  1.00  0.00     0.254 C 
HETATM   19  N   UNL     1     -40.740  59.436 -52.168  1.00  0.00    -0.068 N 
HETATM   20  H   UNL     1     -40.164  60.208 -52.532  1.00  0.00     0.280 HD
HETATM   21  C   UNL     1     -42.043  60.063 -51.685  1.00  0.00     0.254 C 
HETATM   22  C   UNL     1     -42.803  60.718 -52.854  1.00  0.00     0.145 C 
BRANCH  19  23
HETATM   23  C   UNL     1     -39.990  58.814 -51.008  1.00  0.00     0.230 C 
HETATM   24  C   UNL     1     -40.810  57.729 -50.335  1.00  0.00     0.034 C 
ENDBRANCH  19  23
ENDBRANCH  14  16
ENDBRANCH  13  14
ENDBRANCH  11  13
ENDBRANCH   1  11
BRANCH   3  25
HETATM   25  C   UNL     1     -43.016  56.034 -58.138  1.00  0.00     0.314 C 
BRANCH  25  26
HETATM   26  N   UNL     1     -44.397  55.686 -58.695  1.00  0.00    -0.072 N 
HETATM   27  H   UNL     1     -44.945  55.410 -57.861  1.00  0.00     0.279 HD
HETATM   28  C   UNL     1     -45.101  56.879 -59.276  1.00  0.00     0.269 C 
HETATM   29  C   UNL     1     -44.371  54.524 -59.635  1.00  0.00     0.269 C 
ENDBRANCH  25  26
ENDBRANCH   3  25
BRANCH   8  30
HETATM   30  C   UNL     1     -40.538  53.393 -51.564  1.00  0.00     0.300 C 
HETATM   31  O   UNL     1     -40.429  52.187 -51.379  1.00  0.00    -0.259 OA
BRANCH  30  32
HETATM   32  O   UNL     1     -40.003  54.345 -50.747  1.00  0.00    -0.317 OA
BRANCH  32  33
HETATM   33  C   UNL     1     -39.795  53.962 -49.379  1.00  0.00     0.174 C 
HETATM   34  C   UNL     1     -40.886  54.551 -48.504  1.00  0.00     0.034 C 
ENDBRANCH  32  33
ENDBRANCH  30  32
ENDBRANCH   8  30
TORSDOF 10
ENDMDL
MODEL 3
REMARK VINA RESULT:      -6.9      2.236      6.641
REMARK  10 active torsions:
REMARK  status: ('A' for Active; 'I' for Inactive)
REMARK    1  A    between atoms: C_2  and  N_3 
REMARK    2  A    between atoms: N_7  and  C_8 
REMARK    3  A    between atoms: C_8  and  C_9 
REMARK    4  A    between atoms: C_9  and  N_10 
REMARK    5  A    between atoms: N_10  and  C_11 
REMARK    6  A    between atoms: C_13  and  C_14 
REMARK    7  A    between atoms: C_14  and  N_15 
REMARK    8  A    between atoms: C_23  and  C_24 
REMARK    9  A    between atoms: C_24  and  O_25 
REMARK   10  A    between atoms: O_25  and  C_26 
ROOT
HETATM    1  C   UNL     1     -42.761  57.118 -53.757  1.00  0.00     0.139 A 
HETATM    2  N   UNL     1     -43.754  57.830 -53.164  1.00  0.00    -0.214 NA
HETATM    3  C   UNL     1     -44.231  57.441 -51.970  1.00  0.00     0.155 A 
HETATM    4  N   UNL     1     -43.861  56.353 -51.285  1.00  0.00    -0.224 NA
HETATM    5  C   UNL     1     -42.887  55.657 -51.891  1.00  0.00     0.115 A 
HETATM    6  C   UNL     1     -42.263  55.969 -53.088  1.00  0.00     0.053 A 
HETATM    7  S   UNL     1     -42.308  54.240 -51.174  1.00  0.00    -0.063 SA
HETATM    8  C   UNL     1     -41.165  53.979 -52.420  1.00  0.00     0.089 A 
HETATM    9  C   UNL     1     -41.197  55.007 -53.365  1.00  0.00    -0.022 A 
HETATM   10  C   UNL     1     -40.245  55.103 -54.523  1.00  0.00     0.051 C 
ENDROOT
BRANCH   1  11
HETATM   11  N   UNL     1     -42.265  57.546 -54.983  1.00  0.00    -0.372 N 
HETATM   12  H   UNL     1     -41.325  57.204 -55.158  1.00  0.00     0.161 HD
BRANCH  11  13
HETATM   13  C   UNL     1     -43.120  57.524 -56.162  1.00  0.00     0.145 C 
BRANCH  13  14
HETATM   14  C   UNL     1     -42.638  56.564 -57.284  1.00  0.00     0.092 C 
HETATM   15  C   UNL     1     -43.026  55.107 -56.971  1.00  0.00     0.033 C 
BRANCH  14  16
HETATM   16  N   UNL     1     -43.035  56.934 -58.665  1.00  0.00    -0.404 N 
HETATM   17  C   UNL     1     -44.007  58.026 -58.778  1.00  0.00     0.145 C 
HETATM   18  C   UNL     1     -45.486  57.611 -58.945  1.00  0.00     0.254 C 
HETATM   19  N   UNL     1     -45.645  56.578 -60.045  1.00  0.00    -0.068 N 
HETATM   20  H   UNL     1     -45.345  57.020 -60.925  1.00  0.00     0.280 HD
HETATM   21  C   UNL     1     -44.711  55.394 -59.819  1.00  0.00     0.254 C 
HETATM   22  C   UNL     1     -43.255  55.867 -59.648  1.00  0.00     0.145 C 
BRANCH  19  23
HETATM   23  C   UNL     1     -47.070  56.100 -60.233  1.00  0.00     0.230 C 
HETATM   24  C   UNL     1     -47.698  56.705 -61.474  1.00  0.00     0.034 C 
ENDBRANCH  19  23
ENDBRANCH  14  16
ENDBRANCH  13  14
ENDBRANCH  11  13
ENDBRANCH   1  11
BRANCH   3  25
HETATM   25  C   UNL     1     -45.268  58.312 -51.283  1.00  0.00     0.314 C 
BRANCH  25  26
HETATM   26  N   UNL     1     -45.077  59.808 -51.537  1.00  0.00    -0.072 N 
HETATM   27  H   UNL     1     -44.322  59.849 -52.245  1.00  0.00     0.279 HD
HETATM   28  C   UNL     1     -46.279  60.443 -52.176  1.00  0.00     0.269 C 
HETATM   29  C   UNL     1     -44.615  60.551 -50.325  1.00  0.00     0.269 C 
ENDBRANCH  25  26
ENDBRANCH   3  25
BRANCH   8  30
HETATM   30  C   UNL     1     -40.317  52.787 -52.413  1.00  0.00     0.300 C 
HETATM   31  O   UNL     1     -39.541  52.493 -51.512  1.00  0.00    -0.259 OA
BRANCH  30  32
HETATM   32  O   UNL     1     -40.512  52.033 -53.533  1.00  0.00    -0.317 OA
BRANCH  32  33
HETATM   33  C   UNL     1     -39.448  51.136 -53.887  1.00  0.00     0.174 C 
HETATM   34  C   UNL     1     -40.017  49.889 -54.536  1.00  0.00     0.034 C 
ENDBRANCH  32  33
ENDBRANCH  30  32
ENDBRANCH   8  30
TORSDOF 10
ENDMDL
MODEL 4
REMARK VINA RESULT:      -6.9      1.602      2.673
REMARK  10 active torsions:
REMARK  status: ('A' for Active; 'I' for Inactive)
REMARK    1  A    between atoms: C_2  and  N_3 
REMARK    2  A    between atoms: N_7  and  C_8 
REMARK    3  A    between atoms: C_8  and  C_9 
REMARK    4  A    between atoms: C_9  and  N_10 
REMARK    5  A    between atoms: N_10  and  C_11 
REMARK    6  A    between atoms: C_13  and  C_14 
REMARK    7  A    between atoms: C_14  and  N_15 
REMARK    8  A    between atoms: C_23  and  C_24 
REMARK    9  A    between atoms: C_24  and  O_25 
REMARK   10  A    between atoms: O_25  and  C_26 
ROOT
HETATM    1  C   UNL     1     -43.429  55.926 -54.020  1.00  0.00     0.139 A 
HETATM    2  N   UNL     1     -43.580  56.515 -55.234  1.00  0.00    -0.214 NA
HETATM    3  C   UNL     1     -42.784  56.155 -56.253  1.00  0.00     0.155 A 
HETATM    4  N   UNL     1     -41.775  55.278 -56.200  1.00  0.00    -0.224 NA
HETATM    5  C   UNL     1     -41.635  54.714 -54.990  1.00  0.00     0.115 A 
HETATM    6  C   UNL     1     -42.414  54.944 -53.869  1.00  0.00     0.053 A 
HETATM    7  S   UNL     1     -40.396  53.592 -54.735  1.00  0.00    -0.063 SA
HETATM    8  C   UNL     1     -40.855  53.331 -53.109  1.00  0.00     0.089 A 
HETATM    9  C   UNL     1     -41.990  54.073 -52.774  1.00  0.00    -0.022 A 
HETATM   10  C   UNL     1     -42.684  53.979 -51.445  1.00  0.00     0.051 C 
ENDROOT
BRANCH   1  11
HETATM   11  N   UNL     1     -44.275  56.297 -52.981  1.00  0.00    -0.372 N 
HETATM   12  H   UNL     1     -44.680  55.494 -52.511  1.00  0.00     0.161 HD
BRANCH  11  13
HETATM   13  C   UNL     1     -43.887  57.367 -52.073  1.00  0.00     0.145 C 
BRANCH  13  14
HETATM   14  C   UNL     1     -44.408  58.772 -52.480  1.00  0.00     0.092 C 
HETATM   15  C   UNL     1     -45.471  59.278 -51.488  1.00  0.00     0.033 C 
BRANCH  14  16
HETATM   16  N   UNL     1     -43.367  59.804 -52.712  1.00  0.00    -0.404 N 
HETATM   17  C   UNL     1     -43.849  61.098 -53.206  1.00  0.00     0.145 C 
HETATM   18  C   UNL     1     -43.770  61.320 -54.734  1.00  0.00     0.254 C 
HETATM   19  N   UNL     1     -42.393  60.971 -55.267  1.00  0.00    -0.068 N 
HETATM   20  H   UNL     1     -41.722  61.615 -54.825  1.00  0.00     0.280 HD
HETATM   21  C   UNL     1     -41.983  59.566 -54.843  1.00  0.00     0.254 C 
HETATM   22  C   UNL     1     -42.091  59.400 -53.316  1.00  0.00     0.145 C 
BRANCH  19  23
HETATM   23  C   UNL     1     -42.262  61.131 -56.768  1.00  0.00     0.230 C 
HETATM   24  C   UNL     1     -43.389  60.429 -57.501  1.00  0.00     0.034 C 
ENDBRANCH  19  23
ENDBRANCH  14  16
ENDBRANCH  13  14
ENDBRANCH  11  13
ENDBRANCH   1  11
BRANCH   3  25
HETATM   25  C   UNL     1     -43.042  56.755 -57.625  1.00  0.00     0.314 C 
BRANCH  25  26
HETATM   26  N   UNL     1     -44.293  56.203 -58.309  1.00  0.00    -0.072 N 
HETATM   27  H   UNL     1     -44.828  55.762 -57.540  1.00  0.00     0.279 HD
HETATM   28  C   UNL     1     -45.176  57.288 -58.858  1.00  0.00     0.269 C 
HETATM   29  C   UNL     1     -43.987  55.148 -59.323  1.00  0.00     0.269 C 
ENDBRANCH  25  26
ENDBRANCH   3  25
BRANCH   8  30
HETATM   30  C   UNL     1     -40.080  52.434 -52.251  1.00  0.00     0.300 C 
HETATM   31  O   UNL     1     -40.140  52.420 -51.029  1.00  0.00    -0.259 OA
BRANCH  30  32
HETATM   32  O   UNL     1     -39.290  51.602 -52.990  1.00  0.00    -0.317 OA
BRANCH  32  33
HETATM   33  C   UNL     1     -39.719  50.234 -53.078  1.00  0.00     0.174 C 
HETATM   34  C   UNL     1     -39.804  49.812 -54.533  1.00  0.00     0.034 C 
ENDBRANCH  32  33
ENDBRANCH  30  32
ENDBRANCH   8  30
TORSDOF 10
ENDMDL
MODEL 5
REMARK VINA RESULT:      -6.8      2.104      6.343
REMARK  10 active torsions:
REMARK  status: ('A' for Active; 'I' for Inactive)
REMARK    1  A    between atoms: C_2  and  N_3 
REMARK    2  A    between atoms: N_7  and  C_8 
REMARK    3  A    between atoms: C_8  and  C_9 
REMARK    4  A    between atoms: C_9  and  N_10 
REMARK    5  A    between atoms: N_10  and  C_11 
REMARK    6  A    between atoms: C_13  and  C_14 
REMARK    7  A    between atoms: C_14  and  N_15 
REMARK    8  A    between atoms: C_23  and  C_24 
REMARK    9  A    between atoms: C_24  and  O_25 
REMARK   10  A    between atoms: O_25  and  C_26 
ROOT
HETATM    1  C   UNL     1     -42.622  56.501 -54.245  1.00  0.00     0.139 A 
HETATM    2  N   UNL     1     -43.501  57.264 -53.544  1.00  0.00    -0.214 NA
HETATM    3  C   UNL     1     -43.806  56.936 -52.278  1.00  0.00     0.155 A 
HETATM    4  N   UNL     1     -43.363  55.866 -51.608  1.00  0.00    -0.224 NA
HETATM    5  C   UNL     1     -42.504  55.120 -52.319  1.00  0.00     0.115 A 
HETATM    6  C   UNL     1     -42.056  55.366 -53.607  1.00  0.00     0.053 A 
HETATM    7  S   UNL     1     -41.858  53.717 -51.634  1.00  0.00    -0.063 SA
HETATM    8  C   UNL     1     -40.916  53.374 -53.020  1.00  0.00     0.089 A 
HETATM    9  C   UNL     1     -41.064  54.364 -53.994  1.00  0.00    -0.022 A 
HETATM   10  C   UNL     1     -40.291  54.387 -55.282  1.00  0.00     0.051 C 
ENDROOT
BRANCH   1  11
HETATM   11  N   UNL     1     -42.302  56.867 -55.547  1.00  0.00    -0.372 N 
HETATM   12  H   UNL     1     -41.537  56.317 -55.924  1.00  0.00     0.161 HD
BRANCH  11  13
HETATM   13  C   UNL     1     -43.363  57.122 -56.513  1.00  0.00     0.145 C 
BRANCH  13  14
HETATM   14  C   UNL     1     -43.309  58.531 -57.165  1.00  0.00     0.092 C 
HETATM   15  C   UNL     1     -42.159  59.369 -56.578  1.00  0.00     0.033 C 
BRANCH  14  16
HETATM   16  N   UNL     1     -43.280  58.554 -58.648  1.00  0.00    -0.404 N 
HETATM   17  C   UNL     1     -44.576  58.734 -59.310  1.00  0.00     0.145 C 
HETATM   18  C   UNL     1     -45.283  57.448 -59.794  1.00  0.00     0.254 C 
HETATM   19  N   UNL     1     -44.338  56.573 -60.597  1.00  0.00    -0.068 N 
HETATM   20  H   UNL     1     -44.062  57.108 -61.432  1.00  0.00     0.280 HD
HETATM   21  C   UNL     1     -43.055  56.298 -59.820  1.00  0.00     0.254 C 
HETATM   22  C   UNL     1     -42.402  57.613 -59.354  1.00  0.00     0.145 C 
BRANCH  19  23
HETATM   23  C   UNL     1     -44.960  55.275 -61.068  1.00  0.00     0.230 C 
HETATM   24  C   UNL     1     -44.940  54.222 -59.977  1.00  0.00     0.034 C 
ENDBRANCH  19  23
ENDBRANCH  14  16
ENDBRANCH  13  14
ENDBRANCH  11  13
ENDBRANCH   1  11
BRANCH   3  25
HETATM   25  C   UNL     1     -44.712  57.863 -51.485  1.00  0.00     0.314 C 
BRANCH  25  26
HETATM   26  N   UNL     1     -44.567  59.336 -51.869  1.00  0.00    -0.072 N 
HETATM   27  H   UNL     1     -44.123  59.311 -52.804  1.00  0.00     0.279 HD
HETATM   28  C   UNL     1     -45.894  60.015 -52.059  1.00  0.00     0.269 C 
HETATM   29  C   UNL     1     -43.664  60.092 -50.949  1.00  0.00     0.269 C 
ENDBRANCH  25  26
ENDBRANCH   3  25
BRANCH   8  30
HETATM   30  C   UNL     1     -40.103  52.160 -53.086  1.00  0.00     0.300 C 
HETATM   31  O   UNL     1     -40.019  51.434 -54.068  1.00  0.00    -0.259 OA
BRANCH  30  32
HETATM   32  O   UNL     1     -39.435  51.946 -51.916  1.00  0.00    -0.317 OA
BRANCH  32  33
HETATM   33  C   UNL     1     -39.435  50.598 -51.422  1.00  0.00     0.174 C 
HETATM   34  C   UNL     1     -40.265  50.511 -50.155  1.00  0.00     0.034 C 
ENDBRANCH  32  33
ENDBRANCH  30  32
ENDBRANCH   8  30
TORSDOF 10
ENDMDL
MODEL 6
REMARK VINA RESULT:      -6.7      2.163      6.198
REMARK  10 active torsions:
REMARK  status: ('A' for Active; 'I' for Inactive)
REMARK    1  A    between atoms: C_2  and  N_3 
REMARK    2  A    between atoms: N_7  and  C_8 
REMARK    3  A    between atoms: C_8  and  C_9 
REMARK    4  A    between atoms: C_9  and  N_10 
REMARK    5  A    between atoms: N_10  and  C_11 
REMARK    6  A    between atoms: C_13  and  C_14 
REMARK    7  A    between atoms: C_14  and  N_15 
REMARK    8  A    between atoms: C_23  and  C_24 
REMARK    9  A    between atoms: C_24  and  O_25 
REMARK   10  A    between atoms: O_25  and  C_26 
ROOT
HETATM    1  C   UNL     1     -42.934  57.075 -53.726  1.00  0.00     0.139 A 
HETATM    2  N   UNL     1     -43.915  57.806 -53.137  1.00  0.00    -0.214 NA
HETATM    3  C   UNL     1     -44.325  57.494 -51.897  1.00  0.00     0.155 A 
HETATM    4  N   UNL     1     -43.895  56.468 -51.154  1.00  0.00    -0.224 NA
HETATM    5  C   UNL     1     -42.933  55.752 -51.757  1.00  0.00     0.115 A 
HETATM    6  C   UNL     1     -42.374  55.989 -53.002  1.00  0.00     0.053 A 
HETATM    7  S   UNL     1     -42.284  54.404 -50.970  1.00  0.00    -0.063 SA
HETATM    8  C   UNL     1     -41.195  54.078 -52.248  1.00  0.00     0.089 A 
HETATM    9  C   UNL     1     -41.298  55.034 -53.262  1.00  0.00    -0.022 A 
HETATM   10  C   UNL     1     -40.405  55.067 -54.469  1.00  0.00     0.051 C 
ENDROOT
BRANCH   1  11
HETATM   11  N   UNL     1     -42.508  57.424 -55.003  1.00  0.00    -0.372 N 
HETATM   12  H   UNL     1     -41.573  57.083 -55.203  1.00  0.00     0.161 HD
BRANCH  11  13
HETATM   13  C   UNL     1     -43.421  57.310 -56.131  1.00  0.00     0.145 C 
BRANCH  13  14
HETATM   14  C   UNL     1     -42.995  56.264 -57.197  1.00  0.00     0.092 C 
HETATM   15  C   UNL     1     -43.075  54.834 -56.632  1.00  0.00     0.033 C 
BRANCH  14  16
HETATM   16  N   UNL     1     -43.688  56.356 -58.505  1.00  0.00    -0.404 N 
HETATM   17  C   UNL     1     -42.826  56.298 -59.690  1.00  0.00     0.145 C 
HETATM   18  C   UNL     1     -42.428  57.655 -60.314  1.00  0.00     0.254 C 
HETATM   19  N   UNL     1     -43.643  58.539 -60.524  1.00  0.00    -0.068 N 
HETATM   20  H   UNL     1     -44.259  58.058 -61.194  1.00  0.00     0.280 HD
HETATM   21  C   UNL     1     -44.442  58.683 -59.234  1.00  0.00     0.254 C 
HETATM   22  C   UNL     1     -44.801  57.302 -58.653  1.00  0.00     0.145 C 
BRANCH  19  23
HETATM   23  C   UNL     1     -43.315  59.902 -61.098  1.00  0.00     0.230 C 
HETATM   24  C   UNL     1     -41.901  60.325 -60.749  1.00  0.00     0.034 C 
ENDBRANCH  19  23
ENDBRANCH  14  16
ENDBRANCH  13  14
ENDBRANCH  11  13
ENDBRANCH   1  11
BRANCH   3  25
HETATM   25  C   UNL     1     -45.351  58.390 -51.223  1.00  0.00     0.314 C 
BRANCH  25  26
HETATM   26  N   UNL     1     -45.108  59.881 -51.456  1.00  0.00    -0.072 N 
HETATM   27  H   UNL     1     -44.751  59.931 -52.426  1.00  0.00     0.279 HD
HETATM   28  C   UNL     1     -46.378  60.682 -51.440  1.00  0.00     0.269 C 
HETATM   29  C   UNL     1     -44.063  60.450 -50.550  1.00  0.00     0.269 C 
ENDBRANCH  25  26
ENDBRANCH   3  25
BRANCH   8  30
HETATM   30  C   UNL     1     -40.317  52.909 -52.197  1.00  0.00     0.300 C 
HETATM   31  O   UNL     1     -39.478  52.709 -51.328  1.00  0.00    -0.259 OA
BRANCH  30  32
HETATM   32  O   UNL     1     -40.562  52.060 -53.236  1.00  0.00    -0.317 OA
BRANCH  32  33
HETATM   33  C   UNL     1     -39.452  51.266 -53.682  1.00  0.00     0.174 C 
HETATM   34  C   UNL     1     -39.956  49.998 -54.346  1.00  0.00     0.034 C 
ENDBRANCH  32  33
ENDBRANCH  30  32
ENDBRANCH   8  30
TORSDOF 10
ENDMDL
MODEL 7
REMARK VINA RESULT:      -6.6      1.937      5.625
REMARK  10 active torsions:
REMARK  status: ('A' for Active; 'I' for Inactive)
REMARK    1  A    between atoms: C_2  and  N_3 
REMARK    2  A    between atoms: N_7  and  C_8 
REMARK    3  A    between atoms: C_8  and  C_9 
REMARK    4  A    between atoms: C_9  and  N_10 
REMARK    5  A    between atoms: N_10  and  C_11 
REMARK    6  A    between atoms: C_13  and  C_14 
REMARK    7  A    between atoms: C_14  and  N_15 
REMARK    8  A    between atoms: C_23  and  C_24 
REMARK    9  A    between atoms: C_24  and  O_25 
REMARK   10  A    between atoms: O_25  and  C_26 
ROOT
HETATM    1  C   UNL     1     -42.439  56.403 -54.863  1.00  0.00     0.139 A 
HETATM    2  N   UNL     1     -43.333  57.342 -54.460  1.00  0.00    -0.214 NA
HETATM    3  C   UNL     1     -43.690  57.410 -53.167  1.00  0.00     0.155 A 
HETATM    4  N   UNL     1     -43.288  56.591 -52.189  1.00  0.00    -0.224 NA
HETATM    5  C   UNL     1     -42.413  55.664 -52.609  1.00  0.00     0.115 A 
HETATM    6  C   UNL     1     -41.914  55.511 -53.892  1.00  0.00     0.053 A 
HETATM    7  S   UNL     1     -41.813  54.530 -51.509  1.00  0.00    -0.063 SA
HETATM    8  C   UNL     1     -40.824  53.785 -52.689  1.00  0.00     0.089 A 
HETATM    9  C   UNL     1     -40.921  54.437 -53.921  1.00  0.00    -0.022 A 
HETATM   10  C   UNL     1     -40.100  54.071 -55.124  1.00  0.00     0.051 C 
ENDROOT
BRANCH   1  11
HETATM   11  N   UNL     1     -42.066  56.359 -56.202  1.00  0.00    -0.372 N 
HETATM   12  H   UNL     1     -41.212  55.830 -56.346  1.00  0.00     0.161 HD
BRANCH  11  13
HETATM   13  C   UNL     1     -43.071  56.130 -57.231  1.00  0.00     0.145 C 
BRANCH  13  14
HETATM   14  C   UNL     1     -42.759  56.808 -58.593  1.00  0.00     0.092 C 
HETATM   15  C   UNL     1     -42.938  55.818 -59.758  1.00  0.00     0.033 C 
BRANCH  14  16
HETATM   16  N   UNL     1     -43.477  58.078 -58.861  1.00  0.00    -0.404 N 
HETATM   17  C   UNL     1     -42.922  58.913 -59.931  1.00  0.00     0.145 C 
HETATM   18  C   UNL     1     -41.986  60.060 -59.488  1.00  0.00     0.254 C 
HETATM   19  N   UNL     1     -42.614  60.882 -58.378  1.00  0.00    -0.068 N 
HETATM   20  H   UNL     1     -43.469  61.309 -58.761  1.00  0.00     0.280 HD
HETATM   21  C   UNL     1     -43.060  59.991 -57.224  1.00  0.00     0.254 C 
HETATM   22  C   UNL     1     -43.979  58.862 -57.725  1.00  0.00     0.145 C 
BRANCH  19  23
HETATM   23  C   UNL     1     -41.729  62.002 -57.872  1.00  0.00     0.230 C 
HETATM   24  C   UNL     1     -40.503  62.180 -58.748  1.00  0.00     0.034 C 
ENDBRANCH  19  23
ENDBRANCH  14  16
ENDBRANCH  13  14
ENDBRANCH  11  13
ENDBRANCH   1  11
BRANCH   3  25
HETATM   25  C   UNL     1     -44.613  58.535 -52.726  1.00  0.00     0.314 C 
BRANCH  25  26
HETATM   26  N   UNL     1     -44.397  58.970 -51.277  1.00  0.00    -0.072 N 
HETATM   27  H   UNL     1     -43.954  58.148 -50.829  1.00  0.00     0.279 HD
HETATM   28  C   UNL     1     -43.406  60.092 -51.153  1.00  0.00     0.269 C 
HETATM   29  C   UNL     1     -45.675  59.255 -50.557  1.00  0.00     0.269 C 
ENDBRANCH  25  26
ENDBRANCH   3  25
BRANCH   8  30
HETATM   30  C   UNL     1     -40.026  52.606 -52.354  1.00  0.00     0.300 C 
HETATM   31  O   UNL     1     -39.673  52.307 -51.221  1.00  0.00    -0.259 OA
BRANCH  30  32
HETATM   32  O   UNL     1     -39.737  51.870 -53.466  1.00  0.00    -0.317 OA
BRANCH  32  33
HETATM   33  C   UNL     1     -39.713  50.445 -53.295  1.00  0.00     0.174 C 
HETATM   34  C   UNL     1     -39.778  49.761 -54.648  1.00  0.00     0.034 C 
ENDBRANCH  32  33
ENDBRANCH  30  32
ENDBRANCH   8  30
TORSDOF 10
ENDMDL
MODEL 8
REMARK VINA RESULT:      -6.5      2.052      5.218
REMARK  10 active torsions:
REMARK  status: ('A' for Active; 'I' for Inactive)
REMARK    1  A    between atoms: C_2  and  N_3 
REMARK    2  A    between atoms: N_7  and  C_8 
REMARK    3  A    between atoms: C_8  and  C_9 
REMARK    4  A    between atoms: C_9  and  N_10 
REMARK    5  A    between atoms: N_10  and  C_11 
REMARK    6  A    between atoms: C_13  and  C_14 
REMARK    7  A    between atoms: C_14  and  N_15 
REMARK    8  A    between atoms: C_23  and  C_24 
REMARK    9  A    between atoms: C_24  and  O_25 
REMARK   10  A    between atoms: O_25  and  C_26 
ROOT
HETATM    1  C   UNL     1     -41.814  56.579 -54.067  1.00  0.00     0.139 A 
HETATM    2  N   UNL     1     -42.311  57.569 -53.282  1.00  0.00    -0.214 NA
HETATM    3  C   UNL     1     -42.318  57.420 -51.947  1.00  0.00     0.155 A 
HETATM    4  N   UNL     1     -41.921  56.338 -51.268  1.00  0.00    -0.224 NA
HETATM    5  C   UNL     1     -41.443  55.367 -52.062  1.00  0.00     0.115 A 
HETATM    6  C   UNL     1     -41.322  55.403 -53.441  1.00  0.00     0.053 A 
HETATM    7  S   UNL     1     -40.912  53.917 -51.373  1.00  0.00    -0.063 SA
HETATM    8  C   UNL     1     -40.463  53.265 -52.890  1.00  0.00     0.089 A 
HETATM    9  C   UNL     1     -40.679  54.181 -53.922  1.00  0.00    -0.022 A 
HETATM   10  C   UNL     1     -40.293  53.930 -55.352  1.00  0.00     0.051 C 
ENDROOT
BRANCH   1  11
HETATM   11  N   UNL     1     -41.796  56.758 -55.446  1.00  0.00    -0.372 N 
HETATM   12  H   UNL     1     -40.928  56.438 -55.864  1.00  0.00     0.161 HD
BRANCH  11  13
HETATM   13  C   UNL     1     -42.975  56.434 -56.238  1.00  0.00     0.145 C 
BRANCH  13  14
HETATM   14  C   UNL     1     -43.205  57.370 -57.456  1.00  0.00     0.092 C 
HETATM   15  C   UNL     1     -43.438  56.557 -58.742  1.00  0.00     0.033 C 
BRANCH  14  16
HETATM   16  N   UNL     1     -44.254  58.405 -57.285  1.00  0.00    -0.404 N 
HETATM   17  C   UNL     1     -43.778  59.790 -57.205  1.00  0.00     0.145 C 
HETATM   18  C   UNL     1     -43.605  60.374 -55.785  1.00  0.00     0.254 C 
HETATM   19  N   UNL     1     -44.844  60.137 -54.941  1.00  0.00    -0.068 N 
HETATM   20  H   UNL     1     -45.621  60.640 -55.391  1.00  0.00     0.280 HD
HETATM   21  C   UNL     1     -45.230  58.662 -54.941  1.00  0.00     0.254 C 
HETATM   22  C   UNL     1     -45.377  58.133 -56.380  1.00  0.00     0.145 C 
BRANCH  19  23
HETATM   23  C   UNL     1     -44.723  60.653 -53.522  1.00  0.00     0.230 C 
HETATM   24  C   UNL     1     -46.081  60.992 -52.938  1.00  0.00     0.034 C 
ENDBRANCH  19  23
ENDBRANCH  14  16
ENDBRANCH  13  14
ENDBRANCH  11  13
ENDBRANCH   1  11
BRANCH   3  25
HETATM   25  C   UNL     1     -42.784  58.583 -51.088  1.00  0.00     0.314 C 
BRANCH  25  26
HETATM   26  N   UNL     1     -41.843  59.788 -51.126  1.00  0.00    -0.072 N 
HETATM   27  H   UNL     1     -41.724  59.984 -52.136  1.00  0.00     0.279 HD
HETATM   28  C   UNL     1     -42.462  61.022 -50.535  1.00  0.00     0.269 C 
HETATM   29  C   UNL     1     -40.495  59.493 -50.551  1.00  0.00     0.269 C 
ENDBRANCH  25  26
ENDBRANCH   3  25
BRANCH   8  30
HETATM   30  C   UNL     1     -39.942  51.902 -52.989  1.00  0.00     0.300 C 
HETATM   31  O   UNL     1     -40.136  51.153 -53.938  1.00  0.00    -0.259 OA
BRANCH  30  32
HETATM   32  O   UNL     1     -39.196  51.575 -51.894  1.00  0.00    -0.317 OA
BRANCH  32  33
HETATM   33  C   UNL     1     -39.430  50.275 -51.333  1.00  0.00     0.174 C 
HETATM   34  C   UNL     1     -40.235  50.401 -50.053  1.00  0.00     0.034 C 
ENDBRANCH  32  33
ENDBRANCH  30  32
ENDBRANCH   8  30
TORSDOF 10
ENDMDL
MODEL 9
REMARK VINA RESULT:      -6.4      3.618      7.801
REMARK  10 active torsions:
REMARK  status: ('A' for Active; 'I' for Inactive)
REMARK    1  A    between atoms: C_2  and  N_3 
REMARK    2  A    between atoms: N_7  and  C_8 
REMARK    3  A    between atoms: C_8  and  C_9 
REMARK    4  A    between atoms: C_9  and  N_10 
REMARK    5  A    between atoms: N_10  and  C_11 
REMARK    6  A    between atoms: C_13  and  C_14 
REMARK    7  A    between atoms: C_14  and  N_15 
REMARK    8  A    between atoms: C_23  and  C_24 
REMARK    9  A    between atoms: C_24  and  O_25 
REMARK   10  A    between atoms: O_25  and  C_26 
ROOT
HETATM    1  C   UNL     1     -43.274  56.007 -54.887  1.00  0.00     0.139 A 
HETATM    2  N   UNL     1     -42.598  54.830 -54.925  1.00  0.00    -0.214 NA
HETATM    3  C   UNL     1     -42.365  54.159 -53.786  1.00  0.00     0.155 A 
HETATM    4  N   UNL     1     -42.693  54.555 -52.551  1.00  0.00    -0.224 NA
HETATM    5  C   UNL     1     -43.351  55.724 -52.533  1.00  0.00     0.115 A 
HETATM    6  C   UNL     1     -43.710  56.495 -53.627  1.00  0.00     0.053 A 
HETATM    7  S   UNL     1     -43.828  56.387 -51.053  1.00  0.00    -0.063 SA
HETATM    8  C   UNL     1     -44.568  57.736 -51.801  1.00  0.00     0.089 A 
HETATM    9  C   UNL     1     -44.489  57.654 -53.193  1.00  0.00    -0.022 A 
HETATM   10  C   UNL     1     -45.131  58.643 -54.123  1.00  0.00     0.051 C 
ENDROOT
BRANCH   1  11
HETATM   11  N   UNL     1     -43.524  56.679 -56.079  1.00  0.00    -0.372 N 
HETATM   12  H   UNL     1     -44.424  57.148 -56.074  1.00  0.00     0.161 HD
BRANCH  11  13
HETATM   13  C   UNL     1     -42.468  57.457 -56.711  1.00  0.00     0.145 C 
BRANCH  13  14
HETATM   14  C   UNL     1     -42.966  58.720 -57.465  1.00  0.00     0.092 C 
HETATM   15  C   UNL     1     -42.192  59.973 -57.018  1.00  0.00     0.033 C 
BRANCH  14  16
HETATM   16  N   UNL     1     -43.000  58.617 -58.945  1.00  0.00    -0.404 N 
HETATM   17  C   UNL     1     -44.307  58.841 -59.571  1.00  0.00     0.145 C 
HETATM   18  C   UNL     1     -45.127  57.577 -59.914  1.00  0.00     0.254 C 
HETATM   19  N   UNL     1     -44.286  56.568 -60.673  1.00  0.00    -0.068 N 
HETATM   20  H   UNL     1     -44.008  57.007 -61.561  1.00  0.00     0.280 HD
HETATM   21  C   UNL     1     -42.995  56.260 -59.923  1.00  0.00     0.254 C 
HETATM   22  C   UNL     1     -42.226  57.554 -59.599  1.00  0.00     0.145 C 
BRANCH  19  23
HETATM   23  C   UNL     1     -45.023  55.287 -61.006  1.00  0.00     0.230 C 
HETATM   24  C   UNL     1     -44.862  54.252 -59.909  1.00  0.00     0.034 C 
ENDBRANCH  19  23
ENDBRANCH  14  16
ENDBRANCH  13  14
ENDBRANCH  11  13
ENDBRANCH   1  11
BRANCH   3  25
HETATM   25  C   UNL     1     -41.697  52.796 -53.868  1.00  0.00     0.314 C 
BRANCH  25  26
HETATM   26  N   UNL     1     -40.261  52.787 -53.343  1.00  0.00    -0.072 N 
HETATM   27  H   UNL     1     -39.844  53.651 -53.732  1.00  0.00     0.279 HD
HETATM   28  C   UNL     1     -40.192  52.929 -51.850  1.00  0.00     0.269 C 
HETATM   29  C   UNL     1     -39.465  51.625 -53.845  1.00  0.00     0.269 C 
ENDBRANCH  25  26
ENDBRANCH   3  25
BRANCH   8  30
HETATM   30  C   UNL     1     -45.168  58.798 -50.993  1.00  0.00     0.300 C 
HETATM   31  O   UNL     1     -46.291  58.749 -50.507  1.00  0.00    -0.259 OA
BRANCH  30  32
HETATM   32  O   UNL     1     -44.309  59.846 -50.836  1.00  0.00    -0.317 OA
BRANCH  32  33
HETATM   33  C   UNL     1     -44.888  61.077 -50.375  1.00  0.00     0.174 C 
HETATM   34  C   UNL     1     -44.389  61.391 -48.977  1.00  0.00     0.034 C 
ENDBRANCH  32  33
ENDBRANCH  30  32
ENDBRANCH   8  30
TORSDOF 10
ENDMDL
MODEL 10
REMARK VINA RESULT:      -6.4      3.524      7.225
REMARK  10 active torsions:
REMARK  status: ('A' for Active; 'I' for Inactive)
REMARK    1  A    between atoms: C_2  and  N_3 
REMARK    2  A    between atoms: N_7  and  C_8 
REMARK    3  A    between atoms: C_8  and  C_9 
REMARK    4  A    between atoms: C_9  and  N_10 
REMARK    5  A    between atoms: N_10  and  C_11 
REMARK    6  A    between atoms: C_13  and  C_14 
REMARK    7  A    between atoms: C_14  and  N_15 
REMARK    8  A    between atoms: C_23  and  C_24 
REMARK    9  A    between atoms: C_24  and  O_25 
REMARK   10  A    between atoms: O_25  and  C_26 
ROOT
HETATM    1  C   UNL     1     -42.705  55.155 -55.463  1.00  0.00     0.139 A 
HETATM    2  N   UNL     1     -41.692  54.252 -55.513  1.00  0.00    -0.214 NA
HETATM    3  C   UNL     1     -41.035  53.924 -54.389  1.00  0.00     0.155 A 
HETATM    4  N   UNL     1     -41.237  54.445 -53.173  1.00  0.00    -0.224 NA
HETATM    5  C   UNL     1     -42.234  55.342 -53.145  1.00  0.00     0.115 A 
HETATM    6  C   UNL     1     -43.031  55.734 -54.208  1.00  0.00     0.053 A 
HETATM    7  S   UNL     1     -42.615  56.116 -51.692  1.00  0.00    -0.063 SA
HETATM    8  C   UNL     1     -43.894  57.003 -52.403  1.00  0.00     0.089 A 
HETATM    9  C   UNL     1     -44.057  56.669 -53.750  1.00  0.00    -0.022 A 
HETATM   10  C   UNL     1     -45.159  57.213 -54.614  1.00  0.00     0.051 C 
ENDROOT
BRANCH   1  11
HETATM   11  N   UNL     1     -43.387  55.467 -56.634  1.00  0.00    -0.372 N 
HETATM   12  H   UNL     1     -44.389  55.536 -56.488  1.00  0.00     0.161 HD
BRANCH  11  13
HETATM   13  C   UNL     1     -42.861  56.485 -57.533  1.00  0.00     0.145 C 
BRANCH  13  14
HETATM   14  C   UNL     1     -43.023  56.151 -59.042  1.00  0.00     0.092 C 
HETATM   15  C   UNL     1     -44.013  54.991 -59.249  1.00  0.00     0.033 C 
BRANCH  14  16
HETATM   16  N   UNL     1     -43.356  57.297 -59.924  1.00  0.00    -0.404 N 
HETATM   17  C   UNL     1     -42.220  58.109 -60.371  1.00  0.00     0.145 C 
HETATM   18  C   UNL     1     -41.938  59.395 -59.563  1.00  0.00     0.254 C 
HETATM   19  N   UNL     1     -43.202  60.215 -59.380  1.00  0.00    -0.068 N 
HETATM   20  H   UNL     1     -43.519  60.501 -60.316  1.00  0.00     0.280 HD
HETATM   21  C   UNL     1     -44.322  59.367 -58.787  1.00  0.00     0.254 C 
HETATM   22  C   UNL     1     -44.551  58.096 -59.626  1.00  0.00     0.145 C 
BRANCH  19  23
HETATM   23  C   UNL     1     -43.000  61.473 -58.560  1.00  0.00     0.230 C 
HETATM   24  C   UNL     1     -41.608  61.527 -57.960  1.00  0.00     0.034 C 
ENDBRANCH  19  23
ENDBRANCH  14  16
ENDBRANCH  13  14
ENDBRANCH  11  13
ENDBRANCH   1  11
BRANCH   3  25
HETATM   25  C   UNL     1     -39.976  52.837 -54.456  1.00  0.00     0.314 C 
BRANCH  25  26
HETATM   26  N   UNL     1     -40.290  51.623 -53.581  1.00  0.00    -0.072 N 
HETATM   27  H   UNL     1     -41.273  51.768 -53.290  1.00  0.00     0.279 HD
HETATM   28  C   UNL     1     -40.272  50.335 -54.353  1.00  0.00     0.269 C 
HETATM   29  C   UNL     1     -39.448  51.560 -52.347  1.00  0.00     0.269 C 
ENDBRANCH  25  26
ENDBRANCH   3  25
BRANCH   8  30
HETATM   30  C   UNL     1     -44.651  57.977 -51.618  1.00  0.00     0.300 C 
HETATM   31  O   UNL     1     -45.565  57.691 -50.854  1.00  0.00    -0.259 OA
BRANCH  30  32
HETATM   32  O   UNL     1     -44.199  59.246 -51.831  1.00  0.00    -0.317 OA
BRANCH  32  33
HETATM   33  C   UNL     1     -45.177  60.292 -51.738  1.00  0.00     0.174 C 
HETATM   34  C   UNL     1     -45.769  60.571 -53.106  1.00  0.00     0.034 C 
ENDBRANCH  32  33
ENDBRANCH  30  32
ENDBRANCH   8  30
TORSDOF 10
ENDMDL
