MODEL 1
REMARK VINA RESULT:      -7.7      0.000      0.000
REMARK  6 active torsions:
REMARK  status: ('A' for Active; 'I' for Inactive)
REMARK    1  A    between atoms: C_2  and  N_3 
REMARK    2  A    between atoms: C_2  and  C_18 
REMARK    3  A    between atoms: N_3  and  C_6 
REMARK    4  A    between atoms: C_6  and  C_7 
REMARK    5  A    between atoms: C_10  and  N_11 
REMARK       I    between atoms: N_11  and  C_12 
REMARK    6  A    between atoms: C_12  and  O_13 
ROOT
HETATM    1  N   UNL     1     -42.578  57.421 -53.162  1.00  0.00    -0.061 N 
HETATM    2  H   UNL     1     -42.629  57.695 -52.174  1.00  0.00     0.278 HD
HETATM    3  H   UNL     1     -43.121  56.551 -53.263  1.00  0.00     0.278 HD
ENDROOT
BRANCH   1   4
HETATM    4  C   UNL     1     -43.246  58.441 -54.054  1.00  0.00     0.241 C 
HETATM    5  C   UNL     1     -44.732  58.441 -53.704  1.00  0.00     0.047 C 
BRANCH   4   6
HETATM    6  C   UNL     1     -43.035  58.095 -55.505  1.00  0.00     0.106 A 
HETATM    7  S   UNL     1     -42.227  59.165 -56.565  1.00  0.00    -0.070 SA
HETATM    8  C   UNL     1     -42.376  58.013 -57.838  1.00  0.00     0.035 A 
HETATM    9  C   UNL     1     -43.039  56.882 -57.353  1.00  0.00     0.075 A 
HETATM   10  C   UNL     1     -41.934  58.102 -59.166  1.00  0.00     0.021 A 
HETATM   11  N   UNL     1     -43.405  56.937 -56.013  1.00  0.00    -0.243 NA
HETATM   12  C   UNL     1     -43.267  55.802 -58.228  1.00  0.00     0.033 A 
HETATM   13  C   UNL     1     -42.828  55.881 -59.555  1.00  0.00     0.002 A 
HETATM   14  C   UNL     1     -42.171  57.017 -60.015  1.00  0.00     0.002 A 
ENDBRANCH   4   6
ENDBRANCH   1   4
BRANCH   1  15
HETATM   15  C   UNL     1     -41.164  57.097 -53.510  1.00  0.00     0.271 C 
BRANCH  15  16
HETATM   16  C   UNL     1     -40.977  55.618 -53.698  1.00  0.00    -0.033 A 
HETATM   17  C   UNL     1     -41.442  54.708 -52.738  1.00  0.00     0.011 A 
HETATM   18  C   UNL     1     -41.243  53.331 -52.899  1.00  0.00     0.030 A 
HETATM   19  C   UNL     1     -40.588  52.832 -54.025  1.00  0.00     0.036 A 
HETATM   20  C   UNL     1     -40.151  53.740 -54.996  1.00  0.00     0.030 A 
HETATM   21  C   UNL     1     -40.335  55.118 -54.834  1.00  0.00     0.011 A 
BRANCH  19  22
HETATM   22  N   UNL     1     -40.345  51.472 -54.279  1.00  0.00    -0.303 N 
HETATM   23  C   UNL     1     -39.710  50.497 -53.556  1.00  0.00     0.364 C 
HETATM   24  O   UNL     1     -39.658  49.350 -53.989  1.00  0.00    -0.238 OA
HETATM   25  H   UNL     1     -40.669  51.098 -55.163  1.00  0.00     0.171 HD
BRANCH  23  26
HETATM   26  O   UNL     1     -39.136  50.903 -52.398  1.00  0.00    -0.309 OA
HETATM   27  C   UNL     1     -39.530  50.140 -51.255  1.00  0.00     0.215 C 
ENDBRANCH  23  26
ENDBRANCH  19  22
ENDBRANCH  15  16
ENDBRANCH   1  15
TORSDOF 6
ENDMDL
MODEL 2
REMARK VINA RESULT:      -7.6      3.879      7.294
REMARK  6 active torsions:
REMARK  status: ('A' for Active; 'I' for Inactive)
REMARK    1  A    between atoms: C_2  and  N_3 
REMARK    2  A    between atoms: C_2  and  C_18 
REMARK    3  A    between atoms: N_3  and  C_6 
REMARK    4  A    between atoms: C_6  and  C_7 
REMARK    5  A    between atoms: C_10  and  N_11 
REMARK       I    between atoms: N_11  and  C_12 
REMARK    6  A    between atoms: C_12  and  O_13 
ROOT
HETATM    1  N   UNL     1     -42.845  56.832 -53.882  1.00  0.00    -0.061 N 
HETATM    2  H   UNL     1     -43.134  55.927 -54.270  1.00  0.00     0.278 HD
HETATM    3  H   UNL     1     -43.703  57.329 -53.600  1.00  0.00     0.278 HD
ENDROOT
BRANCH   1   4
HETATM    4  C   UNL     1     -42.026  56.659 -52.625  1.00  0.00     0.241 C 
HETATM    5  C   UNL     1     -40.976  57.768 -52.615  1.00  0.00     0.047 C 
BRANCH   4   6
HETATM    6  C   UNL     1     -41.373  55.301 -52.601  1.00  0.00     0.106 A 
HETATM    7  S   UNL     1     -40.927  54.555 -51.129  1.00  0.00    -0.070 SA
HETATM    8  C   UNL     1     -40.395  53.165 -51.997  1.00  0.00     0.035 A 
HETATM    9  C   UNL     1     -40.600  53.375 -53.364  1.00  0.00     0.075 A 
HETATM   10  C   UNL     1     -39.841  51.974 -51.504  1.00  0.00     0.021 A 
HETATM   11  N   UNL     1     -41.168  54.600 -53.697  1.00  0.00    -0.243 NA
HETATM   12  C   UNL     1     -40.239  52.358 -54.269  1.00  0.00     0.033 A 
HETATM   13  C   UNL     1     -39.687  51.166 -53.786  1.00  0.00     0.002 A 
HETATM   14  C   UNL     1     -39.492  50.979 -52.422  1.00  0.00     0.002 A 
ENDBRANCH   4   6
ENDBRANCH   1   4
BRANCH   1  15
HETATM   15  C   UNL     1     -42.202  57.644 -54.956  1.00  0.00     0.271 C 
BRANCH  15  16
HETATM   16  C   UNL     1     -42.560  57.121 -56.319  1.00  0.00    -0.033 A 
HETATM   17  C   UNL     1     -42.578  57.973 -57.432  1.00  0.00     0.011 A 
HETATM   18  C   UNL     1     -42.939  57.492 -58.698  1.00  0.00     0.030 A 
HETATM   19  C   UNL     1     -43.276  56.151 -58.882  1.00  0.00     0.036 A 
HETATM   20  C   UNL     1     -43.228  55.297 -57.774  1.00  0.00     0.030 A 
HETATM   21  C   UNL     1     -42.882  55.774 -56.505  1.00  0.00     0.011 A 
BRANCH  19  22
HETATM   22  N   UNL     1     -43.645  55.575 -60.108  1.00  0.00    -0.303 N 
HETATM   23  C   UNL     1     -44.862  55.369 -60.702  1.00  0.00     0.364 C 
HETATM   24  O   UNL     1     -44.921  54.865 -61.819  1.00  0.00    -0.238 OA
HETATM   25  H   UNL     1     -42.904  55.211 -60.694  1.00  0.00     0.171 HD
BRANCH  23  26
HETATM   26  O   UNL     1     -45.944  55.716 -59.963  1.00  0.00    -0.309 OA
HETATM   27  C   UNL     1     -47.040  56.214 -60.735  1.00  0.00     0.215 C 
ENDBRANCH  23  26
ENDBRANCH  19  22
ENDBRANCH  15  16
ENDBRANCH   1  15
TORSDOF 6
ENDMDL
MODEL 3
REMARK VINA RESULT:      -7.5      1.538      1.965
REMARK  6 active torsions:
REMARK  status: ('A' for Active; 'I' for Inactive)
REMARK    1  A    between atoms: C_2  and  N_3 
REMARK    2  A    between atoms: C_2  and  C_18 
REMARK    3  A    between atoms: N_3  and  C_6 
REMARK    4  A    between atoms: C_6  and  C_7 
REMARK    5  A    between atoms: C_10  and  N_11 
REMARK       I    between atoms: N_11  and  C_12 
REMARK    6  A    between atoms: C_12  and  O_13 
ROOT
HETATM    1  N   UNL     1     -42.706  57.420 -54.761  1.00  0.00    -0.061 N 
HETATM    2  H   UNL     1     -43.324  58.050 -54.238  1.00  0.00     0.278 HD
HETATM    3  H   UNL     1     -43.243  56.562 -54.955  1.00  0.00     0.278 HD
ENDROOT
BRANCH   1   4
HETATM    4  C   UNL     1     -42.334  57.999 -56.106  1.00  0.00     0.241 C 
HETATM    5  C   UNL     1     -42.469  59.515 -55.996  1.00  0.00     0.047 C 
BRANCH   4   6
HETATM    6  C   UNL     1     -43.235  57.455 -57.184  1.00  0.00     0.106 A 
HETATM    7  S   UNL     1     -44.661  58.276 -57.648  1.00  0.00    -0.070 SA
HETATM    8  C   UNL     1     -44.953  57.082 -58.855  1.00  0.00     0.035 A 
HETATM    9  C   UNL     1     -43.927  56.133 -58.815  1.00  0.00     0.075 A 
HETATM   10  C   UNL     1     -46.010  56.994 -59.774  1.00  0.00     0.021 A 
HETATM   11  N   UNL     1     -42.945  56.361 -57.858  1.00  0.00    -0.243 NA
HETATM   12  C   UNL     1     -43.960  55.059 -59.727  1.00  0.00     0.033 A 
HETATM   13  C   UNL     1     -45.009  54.965 -60.648  1.00  0.00     0.002 A 
HETATM   14  C   UNL     1     -46.019  55.921 -60.668  1.00  0.00     0.002 A 
ENDBRANCH   4   6
ENDBRANCH   1   4
BRANCH   1  15
HETATM   15  C   UNL     1     -41.556  57.030 -53.894  1.00  0.00     0.271 C 
BRANCH  15  16
HETATM   16  C   UNL     1     -41.287  55.554 -53.982  1.00  0.00    -0.033 A 
HETATM   17  C   UNL     1     -41.946  54.653 -53.134  1.00  0.00     0.011 A 
HETATM   18  C   UNL     1     -41.675  53.279 -53.196  1.00  0.00     0.030 A 
HETATM   19  C   UNL     1     -40.751  52.775 -54.113  1.00  0.00     0.036 A 
HETATM   20  C   UNL     1     -40.116  53.674 -54.978  1.00  0.00     0.030 A 
HETATM   21  C   UNL     1     -40.373  55.048 -54.911  1.00  0.00     0.011 A 
BRANCH  19  22
HETATM   22  N   UNL     1     -40.415  51.419 -54.255  1.00  0.00    -0.303 N 
HETATM   23  C   UNL     1     -39.719  50.552 -53.454  1.00  0.00     0.364 C 
HETATM   24  O   UNL     1     -39.587  49.379 -53.792  1.00  0.00    -0.238 OA
HETATM   25  H   UNL     1     -40.708  50.954 -55.105  1.00  0.00     0.171 HD
BRANCH  23  26
HETATM   26  O   UNL     1     -39.180  51.089 -52.334  1.00  0.00    -0.309 OA
HETATM   27  C   UNL     1     -39.617  50.467 -51.122  1.00  0.00     0.215 C 
ENDBRANCH  23  26
ENDBRANCH  19  22
ENDBRANCH  15  16
ENDBRANCH   1  15
TORSDOF 6
ENDMDL
MODEL 4
REMARK VINA RESULT:      -7.4      3.603      7.178
REMARK  6 active torsions:
REMARK  status: ('A' for Active; 'I' for Inactive)
REMARK    1  A    between atoms: C_2  and  N_3 
REMARK    2  A    between atoms: C_2  and  C_18 
REMARK    3  A    between atoms: N_3  and  C_6 
REMARK    4  A    between atoms: C_6  and  C_7 
REMARK    5  A    between atoms: C_10  and  N_11 
REMARK       I    between atoms: N_11  and  C_12 
REMARK    6  A    between atoms: C_12  and  O_13 
ROOT
HETATM    1  N   UNL     1     -40.979  56.625 -53.195  1.00  0.00    -0.061 N 
HETATM    2  H   UNL     1     -40.111  57.096 -52.917  1.00  0.00     0.278 HD
HETATM    3  H   UNL     1     -40.752  56.021 -53.998  1.00  0.00     0.278 HD
ENDROOT
BRANCH   1   4
HETATM    4  C   UNL     1     -41.484  55.707 -52.106  1.00  0.00     0.241 C 
HETATM    5  C   UNL     1     -41.016  56.288 -50.774  1.00  0.00     0.047 C 
BRANCH   4   6
HETATM    6  C   UNL     1     -40.950  54.311 -52.300  1.00  0.00     0.106 A 
HETATM    7  S   UNL     1     -40.261  53.434 -51.004  1.00  0.00    -0.070 SA
HETATM    8  C   UNL     1     -40.036  52.079 -52.044  1.00  0.00     0.035 A 
HETATM    9  C   UNL     1     -40.510  52.399 -53.320  1.00  0.00     0.075 A 
HETATM   10  C   UNL     1     -39.484  50.823 -51.751  1.00  0.00     0.021 A 
HETATM   11  N   UNL     1     -41.037  53.679 -53.453  1.00  0.00    -0.243 NA
HETATM   12  C   UNL     1     -40.429  51.428 -54.337  1.00  0.00     0.033 A 
HETATM   13  C   UNL     1     -39.883  50.172 -54.054  1.00  0.00     0.002 A 
HETATM   14  C   UNL     1     -39.418  49.876 -52.777  1.00  0.00     0.002 A 
ENDBRANCH   4   6
ENDBRANCH   1   4
BRANCH   1  15
HETATM   15  C   UNL     1     -41.958  57.642 -53.675  1.00  0.00     0.271 C 
BRANCH  15  16
HETATM   16  C   UNL     1     -42.532  57.256 -55.009  1.00  0.00    -0.033 A 
HETATM   17  C   UNL     1     -43.430  58.101 -55.676  1.00  0.00     0.011 A 
HETATM   18  C   UNL     1     -43.987  57.728 -56.907  1.00  0.00     0.030 A 
HETATM   19  C   UNL     1     -43.652  56.512 -57.502  1.00  0.00     0.036 A 
HETATM   20  C   UNL     1     -42.733  55.683 -56.848  1.00  0.00     0.030 A 
HETATM   21  C   UNL     1     -42.184  56.044 -55.613  1.00  0.00     0.011 A 
BRANCH  19  22
HETATM   22  N   UNL     1     -44.152  56.052 -58.731  1.00  0.00    -0.303 N 
HETATM   23  C   UNL     1     -43.567  55.872 -59.957  1.00  0.00     0.364 C 
HETATM   24  O   UNL     1     -44.223  55.413 -60.887  1.00  0.00    -0.238 OA
HETATM   25  H   UNL     1     -45.134  55.810 -58.773  1.00  0.00     0.171 HD
BRANCH  23  26
HETATM   26  O   UNL     1     -42.274  56.265 -60.055  1.00  0.00    -0.309 OA
HETATM   27  C   UNL     1     -42.110  57.657 -60.337  1.00  0.00     0.215 C 
ENDBRANCH  23  26
ENDBRANCH  19  22
ENDBRANCH  15  16
ENDBRANCH   1  15
TORSDOF 6
ENDMDL
MODEL 5
REMARK VINA RESULT:      -7.1      4.038      7.318
REMARK  6 active torsions:
REMARK  status: ('A' for Active; 'I' for Inactive)
REMARK    1  A    between atoms: C_2  and  N_3 
REMARK    2  A    between atoms: C_2  and  C_18 
REMARK    3  A    between atoms: N_3  and  C_6 
REMARK    4  A    between atoms: C_6  and  C_7 
REMARK    5  A    between atoms: C_10  and  N_11 
REMARK       I    between atoms: N_11  and  C_12 
REMARK    6  A    between atoms: C_12  and  O_13 
ROOT
HETATM    1  N   UNL     1     -43.115  56.478 -50.738  1.00  0.00    -0.061 N 
HETATM    2  H   UNL     1     -43.427  55.827 -51.467  1.00  0.00     0.278 HD
HETATM    3  H   UNL     1     -43.710  56.318 -49.913  1.00  0.00     0.278 HD
ENDROOT
BRANCH   1   4
HETATM    4  C   UNL     1     -41.699  56.181 -50.301  1.00  0.00     0.241 C 
HETATM    5  C   UNL     1     -40.869  57.431 -50.584  1.00  0.00     0.047 C 
BRANCH   4   6
HETATM    6  C   UNL     1     -41.153  54.992 -51.047  1.00  0.00     0.106 A 
HETATM    7  S   UNL     1     -40.236  53.788 -50.252  1.00  0.00    -0.070 SA
HETATM    8  C   UNL     1     -40.130  52.900 -51.724  1.00  0.00     0.035 A 
HETATM    9  C   UNL     1     -40.811  53.596 -52.727  1.00  0.00     0.075 A 
HETATM   10  C   UNL     1     -39.494  51.674 -51.973  1.00  0.00     0.021 A 
HETATM   11  N   UNL     1     -41.399  54.790 -52.326  1.00  0.00    -0.243 NA
HETATM   12  C   UNL     1     -40.858  53.046 -54.023  1.00  0.00     0.033 A 
HETATM   13  C   UNL     1     -40.229  51.823 -54.280  1.00  0.00     0.002 A 
HETATM   14  C   UNL     1     -39.557  51.148 -53.266  1.00  0.00     0.002 A 
ENDBRANCH   4   6
ENDBRANCH   1   4
BRANCH   1  15
HETATM   15  C   UNL     1     -43.362  57.878 -51.191  1.00  0.00     0.271 C 
BRANCH  15  16
HETATM   16  C   UNL     1     -43.980  57.903 -52.561  1.00  0.00    -0.033 A 
HETATM   17  C   UNL     1     -44.563  59.075 -53.064  1.00  0.00     0.011 A 
HETATM   18  C   UNL     1     -45.163  59.091 -54.330  1.00  0.00     0.030 A 
HETATM   19  C   UNL     1     -45.184  57.945 -55.125  1.00  0.00     0.036 A 
HETATM   20  C   UNL     1     -44.575  56.785 -54.632  1.00  0.00     0.030 A 
HETATM   21  C   UNL     1     -43.986  56.758 -53.364  1.00  0.00     0.011 A 
BRANCH  19  22
HETATM   22  N   UNL     1     -45.756  57.863 -56.405  1.00  0.00    -0.303 N 
HETATM   23  C   UNL     1     -45.227  57.985 -57.662  1.00  0.00     0.364 C 
HETATM   24  O   UNL     1     -45.945  57.832 -58.646  1.00  0.00    -0.238 OA
HETATM   25  H   UNL     1     -46.754  57.698 -56.459  1.00  0.00     0.171 HD
BRANCH  23  26
HETATM   26  O   UNL     1     -43.914  58.315 -57.718  1.00  0.00    -0.309 OA
HETATM   27  C   UNL     1     -43.065  57.252 -58.157  1.00  0.00     0.215 C 
ENDBRANCH  23  26
ENDBRANCH  19  22
ENDBRANCH  15  16
ENDBRANCH   1  15
TORSDOF 6
ENDMDL
MODEL 6
REMARK VINA RESULT:      -6.9      2.049      4.565
REMARK  6 active torsions:
REMARK  status: ('A' for Active; 'I' for Inactive)
REMARK    1  A    between atoms: C_2  and  N_3 
REMARK    2  A    between atoms: C_2  and  C_18 
REMARK    3  A    between atoms: N_3  and  C_6 
REMARK    4  A    between atoms: C_6  and  C_7 
REMARK    5  A    between atoms: C_10  and  N_11 
REMARK       I    between atoms: N_11  and  C_12 
REMARK    6  A    between atoms: C_12  and  O_13 
ROOT
HETATM    1  N   UNL     1     -43.996  56.704 -55.621  1.00  0.00    -0.061 N 
HETATM    2  H   UNL     1     -44.174  56.340 -54.678  1.00  0.00     0.278 HD
HETATM    3  H   UNL     1     -44.863  56.574 -56.164  1.00  0.00     0.278 HD
ENDROOT
BRANCH   1   4
HETATM    4  C   UNL     1     -43.732  58.191 -55.598  1.00  0.00     0.241 C 
HETATM    5  C   UNL     1     -42.917  58.523 -56.845  1.00  0.00     0.047 C 
BRANCH   4   6
HETATM    6  C   UNL     1     -42.984  58.577 -54.349  1.00  0.00     0.106 A 
HETATM    7  S   UNL     1     -43.807  59.130 -52.955  1.00  0.00    -0.070 SA
HETATM    8  C   UNL     1     -42.306  59.237 -52.115  1.00  0.00     0.035 A 
HETATM    9  C   UNL     1     -41.275  58.838 -52.970  1.00  0.00     0.075 A 
HETATM   10  C   UNL     1     -42.061  59.642 -50.794  1.00  0.00     0.021 A 
HETATM   11  N   UNL     1     -41.676  58.455 -54.245  1.00  0.00    -0.243 NA
HETATM   12  C   UNL     1     -39.952  58.842 -52.486  1.00  0.00     0.033 A 
HETATM   13  C   UNL     1     -39.698  59.241 -51.169  1.00  0.00     0.002 A 
HETATM   14  C   UNL     1     -40.740  59.635 -50.337  1.00  0.00     0.002 A 
ENDBRANCH   4   6
ENDBRANCH   1   4
BRANCH   1  15
HETATM   15  C   UNL     1     -42.941  55.878 -56.276  1.00  0.00     0.271 C 
BRANCH  15  16
HETATM   16  C   UNL     1     -42.234  55.007 -55.276  1.00  0.00    -0.033 A 
HETATM   17  C   UNL     1     -40.904  54.615 -55.479  1.00  0.00     0.011 A 
HETATM   18  C   UNL     1     -40.254  53.780 -54.561  1.00  0.00     0.030 A 
HETATM   19  C   UNL     1     -40.911  53.330 -53.416  1.00  0.00     0.036 A 
HETATM   20  C   UNL     1     -42.230  53.747 -53.200  1.00  0.00     0.030 A 
HETATM   21  C   UNL     1     -42.889  54.570 -54.120  1.00  0.00     0.011 A 
BRANCH  19  22
HETATM   22  N   UNL     1     -40.346  52.497 -52.437  1.00  0.00    -0.303 N 
HETATM   23  C   UNL     1     -39.534  51.397 -52.518  1.00  0.00     0.364 C 
HETATM   24  O   UNL     1     -39.137  50.852 -51.492  1.00  0.00    -0.238 OA
HETATM   25  H   UNL     1     -40.567  52.699 -51.469  1.00  0.00     0.171 HD
BRANCH  23  26
HETATM   26  O   UNL     1     -39.256  50.962 -53.770  1.00  0.00    -0.309 OA
HETATM   27  C   UNL     1     -40.053  49.852 -54.191  1.00  0.00     0.215 C 
ENDBRANCH  23  26
ENDBRANCH  19  22
ENDBRANCH  15  16
ENDBRANCH   1  15
TORSDOF 6
ENDMDL
MODEL 7
REMARK VINA RESULT:      -6.9      4.564      8.520
REMARK  6 active torsions:
REMARK  status: ('A' for Active; 'I' for Inactive)
REMARK    1  A    between atoms: C_2  and  N_3 
REMARK    2  A    between atoms: C_2  and  C_18 
REMARK    3  A    between atoms: N_3  and  C_6 
REMARK    4  A    between atoms: C_6  and  C_7 
REMARK    5  A    between atoms: C_10  and  N_11 
REMARK       I    between atoms: N_11  and  C_12 
REMARK    6  A    between atoms: C_12  and  O_13 
ROOT
HETATM    1  N   UNL     1     -41.540  55.383 -55.923  1.00  0.00    -0.061 N 
HETATM    2  H   UNL     1     -41.158  56.274 -56.258  1.00  0.00     0.278 HD
HETATM    3  H   UNL     1     -40.862  54.649 -56.176  1.00  0.00     0.278 HD
ENDROOT
BRANCH   1   4
HETATM    4  C   UNL     1     -41.645  55.358 -54.416  1.00  0.00     0.241 C 
HETATM    5  C   UNL     1     -40.881  56.571 -53.892  1.00  0.00     0.047 C 
BRANCH   4   6
HETATM    6  C   UNL     1     -41.069  54.080 -53.866  1.00  0.00     0.106 A 
HETATM    7  S   UNL     1     -40.689  53.918 -52.206  1.00  0.00    -0.070 SA
HETATM    8  C   UNL     1     -40.219  52.282 -52.476  1.00  0.00     0.035 A 
HETATM    9  C   UNL     1     -40.389  51.976 -53.829  1.00  0.00     0.075 A 
HETATM   10  C   UNL     1     -39.739  51.338 -51.556  1.00  0.00     0.021 A 
HETATM   11  N   UNL     1     -40.883  53.012 -54.615  1.00  0.00    -0.243 NA
HETATM   12  C   UNL     1     -40.068  50.680 -54.278  1.00  0.00     0.033 A 
HETATM   13  C   UNL     1     -39.591  49.730 -53.367  1.00  0.00     0.002 A 
HETATM   14  C   UNL     1     -39.430  50.058 -52.025  1.00  0.00     0.002 A 
ENDBRANCH   4   6
ENDBRANCH   1   4
BRANCH   1  15
HETATM   15  C   UNL     1     -42.804  55.083 -56.656  1.00  0.00     0.271 C 
BRANCH  15  16
HETATM   16  C   UNL     1     -43.094  56.134 -57.689  1.00  0.00    -0.033 A 
HETATM   17  C   UNL     1     -43.466  57.431 -57.308  1.00  0.00     0.011 A 
HETATM   18  C   UNL     1     -43.764  58.404 -58.272  1.00  0.00     0.030 A 
HETATM   19  C   UNL     1     -43.685  58.109 -59.633  1.00  0.00     0.036 A 
HETATM   20  C   UNL     1     -43.286  56.821 -60.010  1.00  0.00     0.030 A 
HETATM   21  C   UNL     1     -43.000  55.841 -59.053  1.00  0.00     0.011 A 
BRANCH  19  22
HETATM   22  N   UNL     1     -43.959  59.013 -60.671  1.00  0.00    -0.303 N 
HETATM   23  C   UNL     1     -43.177  59.922 -61.334  1.00  0.00     0.364 C 
HETATM   24  O   UNL     1     -43.654  60.586 -62.250  1.00  0.00    -0.238 OA
HETATM   25  H   UNL     1     -44.910  59.049 -61.019  1.00  0.00     0.171 HD
BRANCH  23  26
HETATM   26  O   UNL     1     -41.906  60.045 -60.883  1.00  0.00    -0.309 OA
HETATM   27  C   UNL     1     -41.609  61.325 -60.321  1.00  0.00     0.215 C 
ENDBRANCH  23  26
ENDBRANCH  19  22
ENDBRANCH  15  16
ENDBRANCH   1  15
TORSDOF 6
ENDMDL
MODEL 8
REMARK VINA RESULT:      -6.8      5.473      8.720
REMARK  6 active torsions:
REMARK  status: ('A' for Active; 'I' for Inactive)
REMARK    1  A    between atoms: C_2  and  N_3 
REMARK    2  A    between atoms: C_2  and  C_18 
REMARK    3  A    between atoms: N_3  and  C_6 
REMARK    4  A    between atoms: C_6  and  C_7 
REMARK    5  A    between atoms: C_10  and  N_11 
REMARK       I    between atoms: N_11  and  C_12 
REMARK    6  A    between atoms: C_12  and  O_13 
ROOT
HETATM    1  N   UNL     1     -41.820  57.050 -52.194  1.00  0.00    -0.061 N 
HETATM    2  H   UNL     1     -41.294  57.859 -51.843  1.00  0.00     0.278 HD
HETATM    3  H   UNL     1     -41.286  56.665 -52.988  1.00  0.00     0.278 HD
ENDROOT
BRANCH   1   4
HETATM    4  C   UNL     1     -41.895  55.949 -51.163  1.00  0.00     0.241 C 
HETATM    5  C   UNL     1     -41.141  56.436 -49.928  1.00  0.00     0.047 C 
BRANCH   4   6
HETATM    6  C   UNL     1     -41.286  54.679 -51.698  1.00  0.00     0.106 A 
HETATM    7  S   UNL     1     -40.284  53.695 -50.724  1.00  0.00    -0.070 SA
HETATM    8  C   UNL     1     -40.144  52.563 -52.016  1.00  0.00     0.035 A 
HETATM    9  C   UNL     1     -40.883  53.026 -53.109  1.00  0.00     0.075 A 
HETATM   10  C   UNL     1     -39.436  51.353 -52.058  1.00  0.00     0.021 A 
HETATM   11  N   UNL     1     -41.538  54.236 -52.913  1.00  0.00    -0.243 NA
HETATM   12  C   UNL     1     -40.914  52.250 -54.285  1.00  0.00     0.033 A 
HETATM   13  C   UNL     1     -40.213  51.040 -54.334  1.00  0.00     0.002 A 
HETATM   14  C   UNL     1     -39.485  50.600 -53.234  1.00  0.00     0.002 A 
ENDBRANCH   4   6
ENDBRANCH   1   4
BRANCH   1  15
HETATM   15  C   UNL     1     -43.132  57.513 -52.732  1.00  0.00     0.271 C 
BRANCH  15  16
HETATM   16  C   UNL     1     -43.727  58.585 -51.863  1.00  0.00    -0.033 A 
HETATM   17  C   UNL     1     -42.909  59.534 -51.234  1.00  0.00     0.011 A 
HETATM   18  C   UNL     1     -43.460  60.517 -50.401  1.00  0.00     0.030 A 
HETATM   19  C   UNL     1     -44.837  60.582 -50.189  1.00  0.00     0.036 A 
HETATM   20  C   UNL     1     -45.654  59.651 -50.842  1.00  0.00     0.030 A 
HETATM   21  C   UNL     1     -45.109  58.659 -51.663  1.00  0.00     0.011 A 
BRANCH  19  22
HETATM   22  N   UNL     1     -45.484  61.529 -49.379  1.00  0.00    -0.303 N 
HETATM   23  C   UNL     1     -46.014  61.457 -48.118  1.00  0.00     0.364 C 
HETATM   24  O   UNL     1     -46.506  62.457 -47.602  1.00  0.00    -0.238 OA
HETATM   25  H   UNL     1     -45.624  62.455 -49.765  1.00  0.00     0.171 HD
BRANCH  23  26
HETATM   26  O   UNL     1     -45.985  60.234 -47.536  1.00  0.00    -0.309 OA
HETATM   27  C   UNL     1     -45.975  60.269 -46.107  1.00  0.00     0.215 C 
ENDBRANCH  23  26
ENDBRANCH  19  22
ENDBRANCH  15  16
ENDBRANCH   1  15
TORSDOF 6
ENDMDL
MODEL 9
REMARK VINA RESULT:      -6.7      2.180      3.499
REMARK  6 active torsions:
REMARK  status: ('A' for Active; 'I' for Inactive)
REMARK    1  A    between atoms: C_2  and  N_3 
REMARK    2  A    between atoms: C_2  and  C_18 
REMARK    3  A    between atoms: N_3  and  C_6 
REMARK    4  A    between atoms: C_6  and  C_7 
REMARK    5  A    between atoms: C_10  and  N_11 
REMARK       I    between atoms: N_11  and  C_12 
REMARK    6  A    between atoms: C_12  and  O_13 
ROOT
HETATM    1  N   UNL     1     -42.042  56.573 -56.508  1.00  0.00    -0.061 N 
HETATM    2  H   UNL     1     -41.461  55.773 -56.783  1.00  0.00     0.278 HD
HETATM    3  H   UNL     1     -41.410  57.377 -56.381  1.00  0.00     0.278 HD
ENDROOT
BRANCH   1   4
HETATM    4  C   UNL     1     -43.003  56.962 -57.607  1.00  0.00     0.241 C 
HETATM    5  C   UNL     1     -43.112  55.769 -58.554  1.00  0.00     0.047 C 
BRANCH   4   6
HETATM    6  C   UNL     1     -42.506  58.183 -58.337  1.00  0.00     0.106 A 
HETATM    7  S   UNL     1     -42.668  58.333 -60.032  1.00  0.00    -0.070 SA
HETATM    8  C   UNL     1     -41.970  59.907 -59.958  1.00  0.00     0.035 A 
HETATM    9  C   UNL     1     -41.661  60.206 -58.627  1.00  0.00     0.075 A 
HETATM   10  C   UNL     1     -41.718  60.811 -61.000  1.00  0.00     0.021 A 
HETATM   11  N   UNL     1     -41.979  59.214 -57.707  1.00  0.00    -0.243 NA
HETATM   12  C   UNL     1     -41.081  61.454 -58.330  1.00  0.00     0.033 A 
HETATM   13  C   UNL     1     -40.828  62.364 -59.362  1.00  0.00     0.002 A 
HETATM   14  C   UNL     1     -41.143  62.044 -60.678  1.00  0.00     0.002 A 
ENDBRANCH   4   6
ENDBRANCH   1   4
BRANCH   1  15
HETATM   15  C   UNL     1     -42.668  56.294 -55.183  1.00  0.00     0.271 C 
BRANCH  15  16
HETATM   16  C   UNL     1     -41.912  55.228 -54.440  1.00  0.00    -0.033 A 
HETATM   17  C   UNL     1     -40.860  54.535 -55.054  1.00  0.00     0.011 A 
HETATM   18  C   UNL     1     -40.172  53.522 -54.371  1.00  0.00     0.030 A 
HETATM   19  C   UNL     1     -40.512  53.190 -53.059  1.00  0.00     0.036 A 
HETATM   20  C   UNL     1     -41.544  53.904 -52.439  1.00  0.00     0.030 A 
HETATM   21  C   UNL     1     -42.242  54.906 -53.120  1.00  0.00     0.011 A 
BRANCH  19  22
HETATM   22  N   UNL     1     -39.882  52.197 -52.292  1.00  0.00    -0.303 N 
HETATM   23  C   UNL     1     -39.725  50.848 -52.476  1.00  0.00     0.364 C 
HETATM   24  O   UNL     1     -39.089  50.189 -51.659  1.00  0.00    -0.238 OA
HETATM   25  H   UNL     1     -39.463  52.482 -51.415  1.00  0.00     0.171 HD
BRANCH  23  26
HETATM   26  O   UNL     1     -40.339  50.328 -53.566  1.00  0.00    -0.309 OA
HETATM   27  C   UNL     1     -39.439  49.811 -54.550  1.00  0.00     0.215 C 
ENDBRANCH  23  26
ENDBRANCH  19  22
ENDBRANCH  15  16
ENDBRANCH   1  15
TORSDOF 6
ENDMDL
MODEL 10
REMARK VINA RESULT:      -6.6      1.953      2.500
REMARK  6 active torsions:
REMARK  status: ('A' for Active; 'I' for Inactive)
REMARK    1  A    between atoms: C_2  and  N_3 
REMARK    2  A    between atoms: C_2  and  C_18 
REMARK    3  A    between atoms: N_3  and  C_6 
REMARK    4  A    between atoms: C_6  and  C_7 
REMARK    5  A    between atoms: C_10  and  N_11 
REMARK       I    between atoms: N_11  and  C_12 
REMARK    6  A    between atoms: C_12  and  O_13 
ROOT
HETATM    1  N   UNL     1     -42.602  57.608 -52.468  1.00  0.00    -0.061 N 
HETATM    2  H   UNL     1     -43.316  58.334 -52.335  1.00  0.00     0.278 HD
HETATM    3  H   UNL     1     -43.098  56.740 -52.719  1.00  0.00     0.278 HD
ENDROOT
BRANCH   1   4
HETATM    4  C   UNL     1     -41.698  57.930 -53.635  1.00  0.00     0.241 C 
HETATM    5  C   UNL     1     -41.314  59.403 -53.515  1.00  0.00     0.047 C 
BRANCH   4   6
HETATM    6  C   UNL     1     -42.402  57.663 -54.940  1.00  0.00     0.106 A 
HETATM    7  S   UNL     1     -43.435  58.827 -55.647  1.00  0.00    -0.070 SA
HETATM    8  C   UNL     1     -43.685  57.783 -56.995  1.00  0.00     0.035 A 
HETATM    9  C   UNL     1     -42.951  56.609 -56.804  1.00  0.00     0.075 A 
HETATM   10  C   UNL     1     -44.469  57.991 -58.140  1.00  0.00     0.021 A 
HETATM   11  N   UNL     1     -42.214  56.554 -55.627  1.00  0.00    -0.243 NA
HETATM   12  C   UNL     1     -43.003  55.607 -57.794  1.00  0.00     0.033 A 
HETATM   13  C   UNL     1     -43.781  55.807 -58.940  1.00  0.00     0.002 A 
HETATM   14  C   UNL     1     -44.503  56.983 -59.108  1.00  0.00     0.002 A 
ENDBRANCH   4   6
ENDBRANCH   1   4
BRANCH   1  15
HETATM   15  C   UNL     1     -41.908  57.357 -51.173  1.00  0.00     0.271 C 
BRANCH  15  16
HETATM   16  C   UNL     1     -41.511  55.914 -51.041  1.00  0.00    -0.033 A 
HETATM   17  C   UNL     1     -42.120  54.927 -51.830  1.00  0.00     0.011 A 
HETATM   18  C   UNL     1     -41.770  53.578 -51.687  1.00  0.00     0.030 A 
HETATM   19  C   UNL     1     -40.798  53.186 -50.766  1.00  0.00     0.036 A 
HETATM   20  C   UNL     1     -40.172  54.176 -50.000  1.00  0.00     0.030 A 
HETATM   21  C   UNL     1     -40.526  55.524 -50.128  1.00  0.00     0.011 A 
BRANCH  19  22
HETATM   22  N   UNL     1     -40.377  51.863 -50.553  1.00  0.00    -0.303 N 
HETATM   23  C   UNL     1     -39.611  51.007 -51.298  1.00  0.00     0.364 C 
HETATM   24  O   UNL     1     -39.349  49.888 -50.868  1.00  0.00    -0.238 OA
HETATM   25  H   UNL     1     -40.689  51.407 -49.704  1.00  0.00     0.171 HD
BRANCH  23  26
HETATM   26  O   UNL     1     -39.224  51.469 -52.511  1.00  0.00    -0.309 OA
HETATM   27  C   UNL     1     -39.708  50.693 -53.611  1.00  0.00     0.215 C 
ENDBRANCH  23  26
ENDBRANCH  19  22
ENDBRANCH  15  16
ENDBRANCH   1  15
TORSDOF 6
ENDMDL
