MODEL 1
REMARK VINA RESULT:      -7.8      0.000      0.000
REMARK  11 active torsions:
REMARK  status: ('A' for Active; 'I' for Inactive)
REMARK    1  A    between atoms: C_4  and  C_5 
REMARK    2  A    between atoms: C_5  and  N_6 
REMARK    3  A    between atoms: C_7  and  S_8 
REMARK    4  A    between atoms: C_9  and  C_10 
REMARK       I    between atoms: C_10  and  N_11 
REMARK    5  A    between atoms: N_11  and  C_12 
REMARK    6  A    between atoms: C_15  and  O_16 
REMARK    7  A    between atoms: O_16  and  C_17 
REMARK    8  A    between atoms: C_27  and  C_28 
REMARK       I    between atoms: C_28  and  N_29 
REMARK    9  A    between atoms: N_29  and  C_30 
REMARK   10  A    between atoms: C_30  and  C_31 
REMARK   11  A    between atoms: C_31  and  O_32 
ROOT
HETATM    1  N   UNL     1     -41.736  57.891 -54.046  1.00  0.00    -0.321 N 
HETATM    2  C   UNL     1     -42.295  58.400 -55.235  1.00  0.00     0.104 A 
HETATM    3  C   UNL     1     -42.439  57.345 -56.139  1.00  0.00     0.142 A 
HETATM    4  N   UNL     1     -41.942  56.242 -55.435  1.00  0.00    -0.301 N 
HETATM    5  C   UNL     1     -41.553  56.576 -54.209  1.00  0.00     0.116 A 
HETATM    6  C   UNL     1     -41.869  54.835 -55.917  1.00  0.00     0.100 A 
HETATM    7  C   UNL     1     -41.363  53.914 -55.004  1.00  0.00     0.035 A 
HETATM    8  C   UNL     1     -40.956  54.313 -53.728  1.00  0.00     0.036 A 
HETATM    9  C   UNL     1     -41.048  55.645 -53.316  1.00  0.00     0.066 A 
ENDROOT
BRANCH   3  10
HETATM   10  C   UNL     1     -42.947  57.291 -57.508  1.00  0.00     0.276 C 
HETATM   11  N   UNL     1     -44.246  56.810 -57.596  1.00  0.00    -0.322 N 
HETATM   12  H   UNL     1     -44.743  56.586 -56.740  1.00  0.00     0.169 HD
HETATM   13  O   UNL     1     -42.283  57.605 -58.495  1.00  0.00    -0.266 OA
BRANCH  11  14
HETATM   14  C   UNL     1     -45.017  56.598 -58.764  1.00  0.00     0.035 A 
HETATM   15  C   UNL     1     -44.756  55.620 -59.722  1.00  0.00     0.032 A 
HETATM   16  C   UNL     1     -45.584  55.490 -60.844  1.00  0.00     0.039 A 
HETATM   17  C   UNL     1     -46.681  56.332 -61.034  1.00  0.00     0.075 A 
HETATM   18  C   UNL     1     -46.946  57.309 -60.079  1.00  0.00     0.039 A 
HETATM   19  C   UNL     1     -46.121  57.439 -58.954  1.00  0.00     0.032 A 
BRANCH  17  20
HETATM   20  O   UNL     1     -47.393  56.093 -62.172  1.00  0.00    -0.290 OA
BRANCH  20  21
HETATM   21  C   UNL     1     -48.424  57.005 -62.530  1.00  0.00     0.505 C 
HETATM   22  F   UNL     1     -48.483  57.127 -63.878  1.00  0.00    -0.184 F 
HETATM   23  F   UNL     1     -49.621  56.542 -62.095  1.00  0.00    -0.184 F 
ENDBRANCH  20  21
ENDBRANCH  17  20
ENDBRANCH  11  14
ENDBRANCH   3  10
BRANCH   2  24
HETATM   24  S   UNL     1     -42.712  60.085 -55.526  1.00  0.00    -0.123 SA
HETATM   25  H   UNL     1     -43.484  60.358 -54.466  1.00  0.00     0.108 HD
ENDBRANCH   2  24
BRANCH   1  26
HETATM   26  C   UNL     1     -41.409  58.628 -52.818  1.00  0.00     0.177 C 
BRANCH  26  27
HETATM   27  C   UNL     1     -42.666  58.960 -52.075  1.00  0.00     0.001 A 
HETATM   28  S   UNL     1     -42.926  60.544 -51.468  1.00  0.00    -0.105 SA
HETATM   29  C   UNL     1     -44.454  60.123 -50.832  1.00  0.00     0.050 A 
HETATM   30  C   UNL     1     -44.759  58.800 -51.056  1.00  0.00     0.008 A 
HETATM   31  C   UNL     1     -43.724  58.125 -51.765  1.00  0.00     0.017 A 
ENDBRANCH  26  27
ENDBRANCH   1  26
BRANCH   8  32
HETATM   32  C   UNL     1     -40.482  53.341 -52.717  1.00  0.00     0.251 C 
HETATM   33  N   UNL     1     -39.868  52.199 -53.171  1.00  0.00    -0.355 N 
HETATM   34  H   UNL     1     -39.662  52.074 -54.152  1.00  0.00     0.162 HD
HETATM   35  O   UNL     1     -40.618  53.617 -51.530  1.00  0.00    -0.268 OA
BRANCH  33  36
HETATM   36  C   UNL     1     -39.413  51.145 -52.264  1.00  0.00     0.148 C 
BRANCH  36  37
HETATM   37  C   UNL     1     -39.846  49.735 -52.688  1.00  0.00     0.183 C 
BRANCH  37  38
HETATM   38  O   UNL     1     -39.319  49.371 -53.960  1.00  0.00    -0.399 OA
HETATM   39  H   UNL     1     -39.851  48.621 -54.300  1.00  0.00     0.209 HD
ENDBRANCH  37  38
ENDBRANCH  36  37
ENDBRANCH  33  36
ENDBRANCH   8  32
TORSDOF 11
ENDMDL
MODEL 2
REMARK VINA RESULT:      -7.5      5.197      9.586
REMARK  11 active torsions:
REMARK  status: ('A' for Active; 'I' for Inactive)
REMARK    1  A    between atoms: C_4  and  C_5 
REMARK    2  A    between atoms: C_5  and  N_6 
REMARK    3  A    between atoms: C_7  and  S_8 
REMARK    4  A    between atoms: C_9  and  C_10 
REMARK       I    between atoms: C_10  and  N_11 
REMARK    5  A    between atoms: N_11  and  C_12 
REMARK    6  A    between atoms: C_15  and  O_16 
REMARK    7  A    between atoms: O_16  and  C_17 
REMARK    8  A    between atoms: C_27  and  C_28 
REMARK       I    between atoms: C_28  and  N_29 
REMARK    9  A    between atoms: N_29  and  C_30 
REMARK   10  A    between atoms: C_30  and  C_31 
REMARK   11  A    between atoms: C_31  and  O_32 
ROOT
HETATM    1  N   UNL     1     -44.085  58.595 -55.287  1.00  0.00    -0.321 N 
HETATM    2  C   UNL     1     -43.518  57.315 -55.445  1.00  0.00     0.104 A 
HETATM    3  C   UNL     1     -43.585  56.650 -54.219  1.00  0.00     0.142 A 
HETATM    4  N   UNL     1     -44.190  57.587 -53.374  1.00  0.00    -0.301 N 
HETATM    5  C   UNL     1     -44.491  58.709 -54.018  1.00  0.00     0.116 A 
HETATM    6  C   UNL     1     -44.526  57.404 -51.934  1.00  0.00     0.100 A 
HETATM    7  C   UNL     1     -45.160  58.482 -51.324  1.00  0.00     0.035 A 
HETATM    8  C   UNL     1     -45.449  59.647 -52.040  1.00  0.00     0.036 A 
HETATM    9  C   UNL     1     -45.119  59.774 -53.392  1.00  0.00     0.066 A 
ENDROOT
BRANCH   3  10
HETATM   10  C   UNL     1     -43.146  55.320 -53.801  1.00  0.00     0.276 C 
HETATM   11  N   UNL     1     -41.839  55.294 -53.332  1.00  0.00    -0.322 N 
HETATM   12  H   UNL     1     -41.324  56.166 -53.272  1.00  0.00     0.169 HD
HETATM   13  O   UNL     1     -43.846  54.312 -53.885  1.00  0.00    -0.266 OA
BRANCH  11  14
HETATM   14  C   UNL     1     -41.099  54.173 -52.887  1.00  0.00     0.035 A 
HETATM   15  C   UNL     1     -40.701  53.111 -53.698  1.00  0.00     0.032 A 
HETATM   16  C   UNL     1     -39.966  52.047 -53.158  1.00  0.00     0.039 A 
HETATM   17  C   UNL     1     -39.619  52.020 -51.806  1.00  0.00     0.075 A 
HETATM   18  C   UNL     1     -40.014  53.078 -50.995  1.00  0.00     0.039 A 
HETATM   19  C   UNL     1     -40.746  54.146 -51.532  1.00  0.00     0.032 A 
BRANCH  17  20
HETATM   20  O   UNL     1     -38.908  50.921 -51.422  1.00  0.00    -0.290 OA
BRANCH  20  21
HETATM   21  C   UNL     1     -39.608  49.838 -50.821  1.00  0.00     0.505 C 
HETATM   22  F   UNL     1     -40.544  50.315 -49.965  1.00  0.00    -0.184 F 
HETATM   23  F   UNL     1     -40.240  49.112 -51.775  1.00  0.00    -0.184 F 
ENDBRANCH  20  21
ENDBRANCH  17  20
ENDBRANCH  11  14
ENDBRANCH   3  10
BRANCH   2  24
HETATM   24  S   UNL     1     -42.826  56.684 -56.937  1.00  0.00    -0.123 SA
HETATM   25  H   UNL     1     -43.528  55.556 -57.104  1.00  0.00     0.108 HD
ENDBRANCH   2  24
BRANCH   1  26
HETATM   26  C   UNL     1     -44.237  59.644 -56.305  1.00  0.00     0.177 C 
BRANCH  26  27
HETATM   27  C   UNL     1     -45.332  59.273 -57.256  1.00  0.00     0.001 A 
HETATM   28  S   UNL     1     -45.428  60.009 -58.803  1.00  0.00    -0.105 SA
HETATM   29  C   UNL     1     -46.815  59.105 -59.223  1.00  0.00     0.050 A 
HETATM   30  C   UNL     1     -47.214  58.271 -58.204  1.00  0.00     0.008 A 
HETATM   31  C   UNL     1     -46.366  58.374 -57.064  1.00  0.00     0.017 A 
ENDBRANCH  26  27
ENDBRANCH   1  26
BRANCH   8  32
HETATM   32  C   UNL     1     -46.186  60.778 -51.432  1.00  0.00     0.251 C 
HETATM   33  N   UNL     1     -45.781  61.208 -50.192  1.00  0.00    -0.355 N 
HETATM   34  H   UNL     1     -44.952  60.831 -49.756  1.00  0.00     0.162 HD
HETATM   35  O   UNL     1     -47.087  61.302 -52.076  1.00  0.00    -0.268 OA
BRANCH  33  36
HETATM   36  C   UNL     1     -46.474  62.278 -49.473  1.00  0.00     0.148 C 
BRANCH  36  37
HETATM   37  C   UNL     1     -46.359  62.172 -47.947  1.00  0.00     0.183 C 
BRANCH  37  38
HETATM   38  O   UNL     1     -47.623  61.957 -47.327  1.00  0.00    -0.399 OA
HETATM   39  H   UNL     1     -47.510  62.095 -46.363  1.00  0.00     0.209 HD
ENDBRANCH  37  38
ENDBRANCH  36  37
ENDBRANCH  33  36
ENDBRANCH   8  32
TORSDOF 11
ENDMDL
MODEL 3
REMARK VINA RESULT:      -7.5      4.511      9.014
REMARK  11 active torsions:
REMARK  status: ('A' for Active; 'I' for Inactive)
REMARK    1  A    between atoms: C_4  and  C_5 
REMARK    2  A    between atoms: C_5  and  N_6 
REMARK    3  A    between atoms: C_7  and  S_8 
REMARK    4  A    between atoms: C_9  and  C_10 
REMARK       I    between atoms: C_10  and  N_11 
REMARK    5  A    between atoms: N_11  and  C_12 
REMARK    6  A    between atoms: C_15  and  O_16 
REMARK    7  A    between atoms: O_16  and  C_17 
REMARK    8  A    between atoms: C_27  and  C_28 
REMARK       I    between atoms: C_28  and  N_29 
REMARK    9  A    between atoms: N_29  and  C_30 
REMARK   10  A    between atoms: C_30  and  C_31 
REMARK   11  A    between atoms: C_31  and  O_32 
ROOT
HETATM    1  N   UNL     1     -44.400  58.706 -54.780  1.00  0.00    -0.321 N 
HETATM    2  C   UNL     1     -43.480  58.245 -53.817  1.00  0.00     0.104 A 
HETATM    3  C   UNL     1     -42.699  57.244 -54.399  1.00  0.00     0.142 A 
HETATM    4  N   UNL     1     -43.207  57.150 -55.699  1.00  0.00    -0.301 N 
HETATM    5  C   UNL     1     -44.187  58.022 -55.910  1.00  0.00     0.116 A 
HETATM    6  C   UNL     1     -42.731  56.242 -56.780  1.00  0.00     0.100 A 
HETATM    7  C   UNL     1     -43.385  56.369 -58.002  1.00  0.00     0.035 A 
HETATM    8  C   UNL     1     -44.417  57.295 -58.174  1.00  0.00     0.036 A 
HETATM    9  C   UNL     1     -44.829  58.132 -57.133  1.00  0.00     0.066 A 
ENDROOT
BRANCH   3  10
HETATM   10  C   UNL     1     -41.614  56.419 -53.873  1.00  0.00     0.276 C 
HETATM   11  N   UNL     1     -42.012  55.130 -53.543  1.00  0.00    -0.322 N 
HETATM   12  H   UNL     1     -42.971  54.853 -53.725  1.00  0.00     0.169 HD
HETATM   13  O   UNL     1     -40.466  56.828 -53.704  1.00  0.00    -0.266 OA
BRANCH  11  14
HETATM   14  C   UNL     1     -41.227  54.097 -52.980  1.00  0.00     0.035 A 
HETATM   15  C   UNL     1     -40.800  54.056 -51.653  1.00  0.00     0.032 A 
HETATM   16  C   UNL     1     -40.026  52.983 -51.192  1.00  0.00     0.039 A 
HETATM   17  C   UNL     1     -39.661  51.937 -52.042  1.00  0.00     0.075 A 
HETATM   18  C   UNL     1     -40.086  51.974 -53.366  1.00  0.00     0.039 A 
HETATM   19  C   UNL     1     -40.863  53.044 -53.829  1.00  0.00     0.032 A 
BRANCH  17  20
HETATM   20  O   UNL     1     -38.904  50.965 -51.458  1.00  0.00    -0.290 OA
BRANCH  20  21
HETATM   21  C   UNL     1     -39.558  49.798 -50.973  1.00  0.00     0.505 C 
HETATM   22  F   UNL     1     -40.560  50.150 -50.132  1.00  0.00    -0.184 F 
HETATM   23  F   UNL     1     -40.098  49.110 -52.008  1.00  0.00    -0.184 F 
ENDBRANCH  20  21
ENDBRANCH  17  20
ENDBRANCH  11  14
ENDBRANCH   3  10
BRANCH   2  24
HETATM   24  S   UNL     1     -43.364  58.826 -52.159  1.00  0.00    -0.123 SA
HETATM   25  H   UNL     1     -43.436  60.152 -52.332  1.00  0.00     0.108 HD
ENDBRANCH   2  24
BRANCH   1  26
HETATM   26  C   UNL     1     -45.417  59.755 -54.624  1.00  0.00     0.177 C 
BRANCH  26  27
HETATM   27  C   UNL     1     -44.870  61.067 -55.092  1.00  0.00     0.001 A 
HETATM   28  S   UNL     1     -45.547  61.856 -56.458  1.00  0.00    -0.105 SA
HETATM   29  C   UNL     1     -44.465  63.169 -56.322  1.00  0.00     0.050 A 
HETATM   30  C   UNL     1     -43.589  63.009 -55.273  1.00  0.00     0.008 A 
HETATM   31  C   UNL     1     -43.815  61.792 -54.568  1.00  0.00     0.017 A 
ENDBRANCH  26  27
ENDBRANCH   1  26
BRANCH   8  32
HETATM   32  C   UNL     1     -45.079  57.498 -59.484  1.00  0.00     0.251 C 
HETATM   33  N   UNL     1     -46.429  57.742 -59.483  1.00  0.00    -0.355 N 
HETATM   34  H   UNL     1     -46.934  57.874 -58.618  1.00  0.00     0.162 HD
HETATM   35  O   UNL     1     -44.388  57.482 -60.496  1.00  0.00    -0.268 OA
BRANCH  33  36
HETATM   36  C   UNL     1     -47.195  57.899 -60.721  1.00  0.00     0.148 C 
BRANCH  36  37
HETATM   37  C   UNL     1     -47.674  56.572 -61.324  1.00  0.00     0.183 C 
BRANCH  37  38
HETATM   38  O   UNL     1     -46.650  55.918 -62.067  1.00  0.00    -0.399 OA
HETATM   39  H   UNL     1     -46.916  54.982 -62.183  1.00  0.00     0.209 HD
ENDBRANCH  37  38
ENDBRANCH  36  37
ENDBRANCH  33  36
ENDBRANCH   8  32
TORSDOF 11
ENDMDL
MODEL 4
REMARK VINA RESULT:      -7.4      1.466      1.848
REMARK  11 active torsions:
REMARK  status: ('A' for Active; 'I' for Inactive)
REMARK    1  A    between atoms: C_4  and  C_5 
REMARK    2  A    between atoms: C_5  and  N_6 
REMARK    3  A    between atoms: C_7  and  S_8 
REMARK    4  A    between atoms: C_9  and  C_10 
REMARK       I    between atoms: C_10  and  N_11 
REMARK    5  A    between atoms: N_11  and  C_12 
REMARK    6  A    between atoms: C_15  and  O_16 
REMARK    7  A    between atoms: O_16  and  C_17 
REMARK    8  A    between atoms: C_27  and  C_28 
REMARK       I    between atoms: C_28  and  N_29 
REMARK    9  A    between atoms: N_29  and  C_30 
REMARK   10  A    between atoms: C_30  and  C_31 
REMARK   11  A    between atoms: C_31  and  O_32 
ROOT
HETATM    1  N   UNL     1     -43.486  57.177 -53.120  1.00  0.00    -0.321 N 
HETATM    2  C   UNL     1     -44.104  57.920 -54.146  1.00  0.00     0.104 A 
HETATM    3  C   UNL     1     -43.746  57.357 -55.373  1.00  0.00     0.142 A 
HETATM    4  N   UNL     1     -42.911  56.294 -55.011  1.00  0.00    -0.301 N 
HETATM    5  C   UNL     1     -42.785  56.193 -53.693  1.00  0.00     0.116 A 
HETATM    6  C   UNL     1     -42.247  55.328 -55.931  1.00  0.00     0.100 A 
HETATM    7  C   UNL     1     -41.492  54.334 -55.314  1.00  0.00     0.035 A 
HETATM    8  C   UNL     1     -41.380  54.274 -53.922  1.00  0.00     0.036 A 
HETATM    9  C   UNL     1     -42.025  55.200 -53.097  1.00  0.00     0.066 A 
ENDROOT
BRANCH   3  10
HETATM   10  C   UNL     1     -44.080  57.715 -56.749  1.00  0.00     0.276 C 
HETATM   11  N   UNL     1     -45.410  57.482 -57.072  1.00  0.00    -0.322 N 
HETATM   12  H   UNL     1     -46.036  57.140 -56.350  1.00  0.00     0.169 HD
HETATM   13  O   UNL     1     -43.262  58.148 -57.560  1.00  0.00    -0.266 OA
BRANCH  11  14
HETATM   14  C   UNL     1     -46.049  57.682 -58.319  1.00  0.00     0.035 A 
HETATM   15  C   UNL     1     -46.033  56.772 -59.375  1.00  0.00     0.032 A 
HETATM   16  C   UNL     1     -46.702  57.065 -60.571  1.00  0.00     0.039 A 
HETATM   17  C   UNL     1     -47.392  58.268 -60.737  1.00  0.00     0.075 A 
HETATM   18  C   UNL     1     -47.411  59.177 -59.685  1.00  0.00     0.039 A 
HETATM   19  C   UNL     1     -46.747  58.885 -58.486  1.00  0.00     0.032 A 
BRANCH  17  20
HETATM   20  O   UNL     1     -47.990  58.418 -61.954  1.00  0.00    -0.290 OA
BRANCH  20  21
HETATM   21  C   UNL     1     -48.797  57.354 -62.446  1.00  0.00     0.505 C 
HETATM   22  F   UNL     1     -49.999  57.837 -62.845  1.00  0.00    -0.184 F 
HETATM   23  F   UNL     1     -48.197  56.779 -63.516  1.00  0.00    -0.184 F 
ENDBRANCH  20  21
ENDBRANCH  17  20
ENDBRANCH  11  14
ENDBRANCH   3  10
BRANCH   2  24
HETATM   24  S   UNL     1     -45.130  59.331 -53.906  1.00  0.00    -0.123 SA
HETATM   25  H   UNL     1     -45.207  59.823 -55.149  1.00  0.00     0.108 HD
ENDBRANCH   2  24
BRANCH   1  26
HETATM   26  C   UNL     1     -43.577  57.397 -51.670  1.00  0.00     0.177 C 
BRANCH  26  27
HETATM   27  C   UNL     1     -42.454  58.277 -51.218  1.00  0.00     0.001 A 
HETATM   28  S   UNL     1     -42.707  59.957 -50.974  1.00  0.00    -0.105 SA
HETATM   29  C   UNL     1     -41.087  60.202 -50.494  1.00  0.00     0.050 A 
HETATM   30  C   UNL     1     -40.356  59.036 -50.535  1.00  0.00     0.008 A 
HETATM   31  C   UNL     1     -41.141  57.927 -50.962  1.00  0.00     0.017 A 
ENDBRANCH  26  27
ENDBRANCH   1  26
BRANCH   8  32
HETATM   32  C   UNL     1     -40.641  53.186 -53.242  1.00  0.00     0.251 C 
HETATM   33  N   UNL     1     -39.936  52.308 -54.027  1.00  0.00    -0.355 N 
HETATM   34  H   UNL     1     -39.845  52.458 -55.023  1.00  0.00     0.162 HD
HETATM   35  O   UNL     1     -40.659  53.144 -52.017  1.00  0.00    -0.268 OA
BRANCH  33  36
HETATM   36  C   UNL     1     -39.218  51.163 -53.467  1.00  0.00     0.148 C 
BRANCH  36  37
HETATM   37  C   UNL     1     -39.957  49.828 -53.633  1.00  0.00     0.183 C 
BRANCH  37  38
HETATM   38  O   UNL     1     -40.017  49.414 -54.995  1.00  0.00    -0.399 OA
HETATM   39  H   UNL     1     -40.289  48.472 -55.008  1.00  0.00     0.209 HD
ENDBRANCH  37  38
ENDBRANCH  36  37
ENDBRANCH  33  36
ENDBRANCH   8  32
TORSDOF 11
ENDMDL
MODEL 5
REMARK VINA RESULT:      -7.4      5.392      9.816
REMARK  11 active torsions:
REMARK  status: ('A' for Active; 'I' for Inactive)
REMARK    1  A    between atoms: C_4  and  C_5 
REMARK    2  A    between atoms: C_5  and  N_6 
REMARK    3  A    between atoms: C_7  and  S_8 
REMARK    4  A    between atoms: C_9  and  C_10 
REMARK       I    between atoms: C_10  and  N_11 
REMARK    5  A    between atoms: N_11  and  C_12 
REMARK    6  A    between atoms: C_15  and  O_16 
REMARK    7  A    between atoms: O_16  and  C_17 
REMARK    8  A    between atoms: C_27  and  C_28 
REMARK       I    between atoms: C_28  and  N_29 
REMARK    9  A    between atoms: N_29  and  C_30 
REMARK   10  A    between atoms: C_30  and  C_31 
REMARK   11  A    between atoms: C_31  and  O_32 
ROOT
HETATM    1  N   UNL     1     -44.110  58.410 -56.116  1.00  0.00    -0.321 N 
HETATM    2  C   UNL     1     -43.576  57.106 -56.095  1.00  0.00     0.104 A 
HETATM    3  C   UNL     1     -43.650  56.622 -54.787  1.00  0.00     0.142 A 
HETATM    4  N   UNL     1     -44.225  57.683 -54.080  1.00  0.00    -0.301 N 
HETATM    5  C   UNL     1     -44.504  58.711 -54.874  1.00  0.00     0.116 A 
HETATM    6  C   UNL     1     -44.554  57.713 -52.627  1.00  0.00     0.100 A 
HETATM    7  C   UNL     1     -45.158  58.882 -52.172  1.00  0.00     0.035 A 
HETATM    8  C   UNL     1     -45.423  59.942 -53.044  1.00  0.00     0.036 A 
HETATM    9  C   UNL     1     -45.100  59.869 -54.402  1.00  0.00     0.066 A 
ENDROOT
BRANCH   3  10
HETATM   10  C   UNL     1     -43.240  55.354 -54.188  1.00  0.00     0.276 C 
HETATM   11  N   UNL     1     -41.888  55.303 -53.878  1.00  0.00    -0.322 N 
HETATM   12  H   UNL     1     -41.318  56.126 -54.038  1.00  0.00     0.169 HD
HETATM   13  O   UNL     1     -44.004  54.407 -54.006  1.00  0.00    -0.266 OA
BRANCH  11  14
HETATM   14  C   UNL     1     -41.165  54.219 -53.325  1.00  0.00     0.035 A 
HETATM   15  C   UNL     1     -40.679  53.134 -54.054  1.00  0.00     0.032 A 
HETATM   16  C   UNL     1     -39.970  52.111 -53.410  1.00  0.00     0.039 A 
HETATM   17  C   UNL     1     -39.736  52.149 -52.035  1.00  0.00     0.075 A 
HETATM   18  C   UNL     1     -40.217  53.231 -51.305  1.00  0.00     0.039 A 
HETATM   19  C   UNL     1     -40.923  54.257 -51.946  1.00  0.00     0.032 A 
BRANCH  17  20
HETATM   20  O   UNL     1     -39.036  51.084 -51.546  1.00  0.00    -0.290 OA
BRANCH  20  21
HETATM   21  C   UNL     1     -39.753  50.055 -50.874  1.00  0.00     0.505 C 
HETATM   22  F   UNL     1     -38.889  49.111 -50.427  1.00  0.00    -0.184 F 
HETATM   23  F   UNL     1     -40.405  50.571 -49.804  1.00  0.00    -0.184 F 
ENDBRANCH  20  21
ENDBRANCH  17  20
ENDBRANCH  11  14
ENDBRANCH   3  10
BRANCH   2  24
HETATM   24  S   UNL     1     -42.911  56.255 -57.486  1.00  0.00    -0.123 SA
HETATM   25  H   UNL     1     -41.828  56.992 -57.760  1.00  0.00     0.108 HD
ENDBRANCH   2  24
BRANCH   1  26
HETATM   26  C   UNL     1     -44.245  59.309 -57.271  1.00  0.00     0.177 C 
BRANCH  26  27
HETATM   27  C   UNL     1     -45.200  58.722 -58.262  1.00  0.00     0.001 A 
HETATM   28  S   UNL     1     -44.813  58.697 -59.934  1.00  0.00    -0.105 SA
HETATM   29  C   UNL     1     -46.280  57.919 -60.332  1.00  0.00     0.050 A 
HETATM   30  C   UNL     1     -47.063  57.697 -59.222  1.00  0.00     0.008 A 
HETATM   31  C   UNL     1     -46.445  58.168 -58.028  1.00  0.00     0.017 A 
ENDBRANCH  26  27
ENDBRANCH   1  26
BRANCH   8  32
HETATM   32  C   UNL     1     -46.127  61.166 -52.598  1.00  0.00     0.251 C 
HETATM   33  N   UNL     1     -47.387  61.391 -53.095  1.00  0.00    -0.355 N 
HETATM   34  H   UNL     1     -47.853  60.700 -53.666  1.00  0.00     0.162 HD
HETATM   35  O   UNL     1     -45.576  61.892 -51.779  1.00  0.00    -0.268 OA
BRANCH  33  36
HETATM   36  C   UNL     1     -48.151  62.596 -52.768  1.00  0.00     0.148 C 
BRANCH  36  37
HETATM   37  C   UNL     1     -49.556  62.623 -53.383  1.00  0.00     0.183 C 
BRANCH  37  38
HETATM   38  O   UNL     1     -50.265  61.409 -53.157  1.00  0.00    -0.399 OA
HETATM   39  H   UNL     1     -50.239  60.888 -53.987  1.00  0.00     0.209 HD
ENDBRANCH  37  38
ENDBRANCH  36  37
ENDBRANCH  33  36
ENDBRANCH   8  32
TORSDOF 11
ENDMDL
MODEL 6
REMARK VINA RESULT:      -7.1      3.431      3.919
REMARK  11 active torsions:
REMARK  status: ('A' for Active; 'I' for Inactive)
REMARK    1  A    between atoms: C_4  and  C_5 
REMARK    2  A    between atoms: C_5  and  N_6 
REMARK    3  A    between atoms: C_7  and  S_8 
REMARK    4  A    between atoms: C_9  and  C_10 
REMARK       I    between atoms: C_10  and  N_11 
REMARK    5  A    between atoms: N_11  and  C_12 
REMARK    6  A    between atoms: C_15  and  O_16 
REMARK    7  A    between atoms: O_16  and  C_17 
REMARK    8  A    between atoms: C_27  and  C_28 
REMARK       I    between atoms: C_28  and  N_29 
REMARK    9  A    between atoms: N_29  and  C_30 
REMARK   10  A    between atoms: C_30  and  C_31 
REMARK   11  A    between atoms: C_31  and  O_32 
ROOT
HETATM    1  N   UNL     1     -43.229  56.980 -53.080  1.00  0.00    -0.321 N 
HETATM    2  C   UNL     1     -43.679  57.641 -54.240  1.00  0.00     0.104 A 
HETATM    3  C   UNL     1     -43.073  57.046 -55.349  1.00  0.00     0.142 A 
HETATM    4  N   UNL     1     -42.270  56.049 -54.784  1.00  0.00    -0.301 N 
HETATM    5  C   UNL     1     -42.387  56.013 -53.461  1.00  0.00     0.116 A 
HETATM    6  C   UNL     1     -41.402  55.082 -55.513  1.00  0.00     0.100 A 
HETATM    7  C   UNL     1     -40.728  54.161 -54.716  1.00  0.00     0.035 A 
HETATM    8  C   UNL     1     -40.875  54.168 -53.326  1.00  0.00     0.036 A 
HETATM    9  C   UNL     1     -41.704  55.091 -52.684  1.00  0.00     0.066 A 
ENDROOT
BRANCH   3  10
HETATM   10  C   UNL     1     -43.162  57.324 -56.780  1.00  0.00     0.276 C 
HETATM   11  N   UNL     1     -42.498  58.483 -57.158  1.00  0.00    -0.322 N 
HETATM   12  H   UNL     1     -41.983  59.003 -56.456  1.00  0.00     0.169 HD
HETATM   13  O   UNL     1     -43.791  56.625 -57.574  1.00  0.00    -0.266 OA
BRANCH  11  14
HETATM   14  C   UNL     1     -42.417  59.055 -58.450  1.00  0.00     0.035 A 
HETATM   15  C   UNL     1     -42.792  60.360 -58.766  1.00  0.00     0.032 A 
HETATM   16  C   UNL     1     -42.669  60.833 -60.079  1.00  0.00     0.039 A 
HETATM   17  C   UNL     1     -42.178  60.015 -61.099  1.00  0.00     0.075 A 
HETATM   18  C   UNL     1     -41.801  58.713 -60.787  1.00  0.00     0.039 A 
HETATM   19  C   UNL     1     -41.919  58.239 -59.474  1.00  0.00     0.032 A 
BRANCH  17  20
HETATM   20  O   UNL     1     -42.119  60.608 -62.326  1.00  0.00    -0.290 OA
BRANCH  20  21
HETATM   21  C   UNL     1     -41.740  61.977 -62.398  1.00  0.00     0.505 C 
HETATM   22  F   UNL     1     -40.416  62.102 -62.140  1.00  0.00    -0.184 F 
HETATM   23  F   UNL     1     -41.974  62.455 -63.645  1.00  0.00    -0.184 F 
ENDBRANCH  20  21
ENDBRANCH  17  20
ENDBRANCH  11  14
ENDBRANCH   3  10
BRANCH   2  24
HETATM   24  S   UNL     1     -44.798  59.000 -54.269  1.00  0.00    -0.123 SA
HETATM   25  H   UNL     1     -44.075  59.931 -54.904  1.00  0.00     0.108 HD
ENDBRANCH   2  24
BRANCH   1  26
HETATM   26  C   UNL     1     -43.598  57.257 -51.685  1.00  0.00     0.177 C 
BRANCH  26  27
HETATM   27  C   UNL     1     -42.716  58.333 -51.131  1.00  0.00     0.001 A 
HETATM   28  S   UNL     1     -43.292  59.943 -50.987  1.00  0.00    -0.105 SA
HETATM   29  C   UNL     1     -41.817  60.483 -50.317  1.00  0.00     0.050 A 
HETATM   30  C   UNL     1     -40.893  59.468 -50.219  1.00  0.00     0.008 A 
HETATM   31  C   UNL     1     -41.407  58.228 -50.697  1.00  0.00     0.017 A 
ENDBRANCH  26  27
ENDBRANCH   1  26
BRANCH   8  32
HETATM   32  C   UNL     1     -40.224  53.154 -52.464  1.00  0.00     0.251 C 
HETATM   33  N   UNL     1     -40.015  51.906 -52.998  1.00  0.00    -0.355 N 
HETATM   34  H   UNL     1     -40.209  51.717 -53.971  1.00  0.00     0.162 HD
HETATM   35  O   UNL     1     -39.867  53.485 -51.340  1.00  0.00    -0.268 OA
BRANCH  33  36
HETATM   36  C   UNL     1     -39.435  50.812 -52.218  1.00  0.00     0.148 C 
BRANCH  36  37
HETATM   37  C   UNL     1     -39.671  49.425 -52.829  1.00  0.00     0.183 C 
BRANCH  37  38
HETATM   38  O   UNL     1     -39.518  49.427 -54.245  1.00  0.00    -0.399 OA
HETATM   39  H   UNL     1     -39.168  48.551 -54.509  1.00  0.00     0.209 HD
ENDBRANCH  37  38
ENDBRANCH  36  37
ENDBRANCH  33  36
ENDBRANCH   8  32
TORSDOF 11
ENDMDL
MODEL 7
REMARK VINA RESULT:      -7.1      5.052      9.098
REMARK  11 active torsions:
REMARK  status: ('A' for Active; 'I' for Inactive)
REMARK    1  A    between atoms: C_4  and  C_5 
REMARK    2  A    between atoms: C_5  and  N_6 
REMARK    3  A    between atoms: C_7  and  S_8 
REMARK    4  A    between atoms: C_9  and  C_10 
REMARK       I    between atoms: C_10  and  N_11 
REMARK    5  A    between atoms: N_11  and  C_12 
REMARK    6  A    between atoms: C_15  and  O_16 
REMARK    7  A    between atoms: O_16  and  C_17 
REMARK    8  A    between atoms: C_27  and  C_28 
REMARK       I    between atoms: C_28  and  N_29 
REMARK    9  A    between atoms: N_29  and  C_30 
REMARK   10  A    between atoms: C_30  and  C_31 
REMARK   11  A    between atoms: C_31  and  O_32 
ROOT
HETATM    1  N   UNL     1     -42.666  59.653 -54.217  1.00  0.00    -0.321 N 
HETATM    2  C   UNL     1     -42.610  58.578 -53.306  1.00  0.00     0.104 A 
HETATM    3  C   UNL     1     -42.506  57.391 -54.033  1.00  0.00     0.142 A 
HETATM    4  N   UNL     1     -42.515  57.823 -55.364  1.00  0.00    -0.301 N 
HETATM    5  C   UNL     1     -42.590  59.146 -55.452  1.00  0.00     0.116 A 
HETATM    6  C   UNL     1     -42.411  56.969 -56.581  1.00  0.00     0.100 A 
HETATM    7  C   UNL     1     -42.408  57.650 -57.794  1.00  0.00     0.035 A 
HETATM    8  C   UNL     1     -42.499  59.045 -57.838  1.00  0.00     0.036 A 
HETATM    9  C   UNL     1     -42.590  59.807 -56.670  1.00  0.00     0.066 A 
ENDROOT
BRANCH   3  10
HETATM   10  C   UNL     1     -42.425  55.992 -53.618  1.00  0.00     0.276 C 
HETATM   11  N   UNL     1     -41.124  55.513 -53.549  1.00  0.00    -0.322 N 
HETATM   12  H   UNL     1     -40.358  56.150 -53.736  1.00  0.00     0.169 HD
HETATM   13  O   UNL     1     -43.409  55.291 -53.386  1.00  0.00    -0.266 OA
BRANCH  11  14
HETATM   14  C   UNL     1     -40.698  54.204 -53.218  1.00  0.00     0.035 A 
HETATM   15  C   UNL     1     -40.526  53.729 -51.919  1.00  0.00     0.032 A 
HETATM   16  C   UNL     1     -40.102  52.412 -51.698  1.00  0.00     0.039 A 
HETATM   17  C   UNL     1     -39.839  51.549 -52.764  1.00  0.00     0.075 A 
HETATM   18  C   UNL     1     -40.012  52.020 -54.061  1.00  0.00     0.039 A 
HETATM   19  C   UNL     1     -40.439  53.335 -54.285  1.00  0.00     0.032 A 
BRANCH  17  20
HETATM   20  O   UNL     1     -39.431  50.300 -52.398  1.00  0.00    -0.290 OA
BRANCH  20  21
HETATM   21  C   UNL     1     -39.531  49.930 -51.028  1.00  0.00     0.505 C 
HETATM   22  F   UNL     1     -40.490  48.985 -50.876  1.00  0.00    -0.184 F 
HETATM   23  F   UNL     1     -38.354  49.409 -50.605  1.00  0.00    -0.184 F 
ENDBRANCH  20  21
ENDBRANCH  17  20
ENDBRANCH  11  14
ENDBRANCH   3  10
BRANCH   2  24
HETATM   24  S   UNL     1     -42.684  58.724 -51.553  1.00  0.00    -0.123 SA
HETATM   25  H   UNL     1     -41.932  59.811 -51.341  1.00  0.00     0.108 HD
ENDBRANCH   2  24
BRANCH   1  26
HETATM   26  C   UNL     1     -42.773  61.086 -53.912  1.00  0.00     0.177 C 
BRANCH  26  27
HETATM   27  C   UNL     1     -44.213  61.494 -53.890  1.00  0.00     0.001 A 
HETATM   28  S   UNL     1     -45.122  61.404 -52.436  1.00  0.00    -0.105 SA
HETATM   29  C   UNL     1     -46.526  62.008 -53.196  1.00  0.00     0.050 A 
HETATM   30  C   UNL     1     -46.322  62.258 -54.534  1.00  0.00     0.008 A 
HETATM   31  C   UNL     1     -44.990  61.953 -54.938  1.00  0.00     0.017 A 
ENDBRANCH  26  27
ENDBRANCH   1  26
BRANCH   8  32
HETATM   32  C   UNL     1     -42.426  59.796 -59.112  1.00  0.00     0.251 C 
HETATM   33  N   UNL     1     -42.567  61.160 -59.055  1.00  0.00    -0.355 N 
HETATM   34  H   UNL     1     -42.621  61.641 -58.168  1.00  0.00     0.162 HD
HETATM   35  O   UNL     1     -42.201  59.174 -60.144  1.00  0.00    -0.268 OA
BRANCH  33  36
HETATM   36  C   UNL     1     -42.570  61.995 -60.257  1.00  0.00     0.148 C 
BRANCH  36  37
HETATM   37  C   UNL     1     -41.219  62.039 -60.983  1.00  0.00     0.183 C 
BRANCH  37  38
HETATM   38  O   UNL     1     -41.176  61.149 -62.094  1.00  0.00    -0.399 OA
HETATM   39  H   UNL     1     -40.720  60.331 -61.804  1.00  0.00     0.209 HD
ENDBRANCH  37  38
ENDBRANCH  36  37
ENDBRANCH  33  36
ENDBRANCH   8  32
TORSDOF 11
ENDMDL
MODEL 8
REMARK VINA RESULT:      -6.9     16.930     19.555
REMARK  11 active torsions:
REMARK  status: ('A' for Active; 'I' for Inactive)
REMARK    1  A    between atoms: C_4  and  C_5 
REMARK    2  A    between atoms: C_5  and  N_6 
REMARK    3  A    between atoms: C_7  and  S_8 
REMARK    4  A    between atoms: C_9  and  C_10 
REMARK       I    between atoms: C_10  and  N_11 
REMARK    5  A    between atoms: N_11  and  C_12 
REMARK    6  A    between atoms: C_15  and  O_16 
REMARK    7  A    between atoms: O_16  and  C_17 
REMARK    8  A    between atoms: C_27  and  C_28 
REMARK       I    between atoms: C_28  and  N_29 
REMARK    9  A    between atoms: N_29  and  C_30 
REMARK   10  A    between atoms: C_30  and  C_31 
REMARK   11  A    between atoms: C_31  and  O_32 
ROOT
HETATM    1  N   UNL     1     -33.585  38.460 -49.854  1.00  0.00    -0.321 N 
HETATM    2  C   UNL     1     -33.422  39.251 -51.009  1.00  0.00     0.104 A 
HETATM    3  C   UNL     1     -34.630  39.900 -51.272  1.00  0.00     0.142 A 
HETATM    4  N   UNL     1     -35.471  39.448 -50.249  1.00  0.00    -0.301 N 
HETATM    5  C   UNL     1     -34.840  38.624 -49.421  1.00  0.00     0.116 A 
HETATM    6  C   UNL     1     -36.892  39.835 -50.026  1.00  0.00     0.100 A 
HETATM    7  C   UNL     1     -37.500  39.269 -48.909  1.00  0.00     0.035 A 
HETATM    8  C   UNL     1     -36.799  38.398 -48.071  1.00  0.00     0.036 A 
HETATM    9  C   UNL     1     -35.463  38.067 -48.316  1.00  0.00     0.066 A 
ENDROOT
BRANCH   3  10
HETATM   10  C   UNL     1     -35.037  40.821 -52.331  1.00  0.00     0.276 C 
HETATM   11  N   UNL     1     -35.242  40.198 -53.554  1.00  0.00    -0.322 N 
HETATM   12  H   UNL     1     -35.147  39.190 -53.611  1.00  0.00     0.169 HD
HETATM   13  O   UNL     1     -35.153  42.036 -52.172  1.00  0.00    -0.266 OA
BRANCH  11  14
HETATM   14  C   UNL     1     -35.604  40.798 -54.784  1.00  0.00     0.035 A 
HETATM   15  C   UNL     1     -34.717  41.448 -55.642  1.00  0.00     0.032 A 
HETATM   16  C   UNL     1     -35.177  42.007 -56.841  1.00  0.00     0.039 A 
HETATM   17  C   UNL     1     -36.522  41.933 -57.205  1.00  0.00     0.075 A 
HETATM   18  C   UNL     1     -37.409  41.283 -56.353  1.00  0.00     0.039 A 
HETATM   19  C   UNL     1     -36.952  40.719 -55.154  1.00  0.00     0.032 A 
BRANCH  17  20
HETATM   20  O   UNL     1     -36.824  42.524 -58.397  1.00  0.00    -0.290 OA
BRANCH  20  21
HETATM   21  C   UNL     1     -37.423  41.730 -59.414  1.00  0.00     0.505 C 
HETATM   22  F   UNL     1     -37.539  42.454 -60.553  1.00  0.00    -0.184 F 
HETATM   23  F   UNL     1     -36.644  40.653 -59.675  1.00  0.00    -0.184 F 
ENDBRANCH  20  21
ENDBRANCH  17  20
ENDBRANCH  11  14
ENDBRANCH   3  10
BRANCH   2  24
HETATM   24  S   UNL     1     -31.945  39.372 -51.961  1.00  0.00    -0.123 SA
HETATM   25  H   UNL     1     -31.292  40.350 -51.322  1.00  0.00     0.108 HD
ENDBRANCH   2  24
BRANCH   1  26
HETATM   26  C   UNL     1     -32.585  37.606 -49.199  1.00  0.00     0.177 C 
BRANCH  26  27
HETATM   27  C   UNL     1     -31.929  38.357 -48.082  1.00  0.00     0.001 A 
HETATM   28  S   UNL     1     -31.859  37.686 -46.504  1.00  0.00    -0.105 SA
HETATM   29  C   UNL     1     -31.015  39.038 -45.892  1.00  0.00     0.050 A 
HETATM   30  C   UNL     1     -30.804  39.995 -46.859  1.00  0.00     0.008 A 
HETATM   31  C   UNL     1     -31.339  39.608 -48.121  1.00  0.00     0.017 A 
ENDBRANCH  26  27
ENDBRANCH   1  26
BRANCH   8  32
HETATM   32  C   UNL     1     -37.402  37.840 -46.839  1.00  0.00     0.251 C 
HETATM   33  N   UNL     1     -38.608  37.195 -46.957  1.00  0.00    -0.355 N 
HETATM   34  H   UNL     1     -39.020  37.023 -47.864  1.00  0.00     0.162 HD
HETATM   35  O   UNL     1     -36.782  37.942 -45.787  1.00  0.00    -0.268 OA
BRANCH  33  36
HETATM   36  C   UNL     1     -39.322  36.658 -45.798  1.00  0.00     0.148 C 
BRANCH  36  37
HETATM   37  C   UNL     1     -40.189  37.693 -45.071  1.00  0.00     0.183 C 
BRANCH  37  38
HETATM   38  O   UNL     1     -39.425  38.506 -44.184  1.00  0.00    -0.399 OA
HETATM   39  H   UNL     1     -38.717  38.935 -44.708  1.00  0.00     0.209 HD
ENDBRANCH  37  38
ENDBRANCH  36  37
ENDBRANCH  33  36
ENDBRANCH   8  32
TORSDOF 11
ENDMDL
MODEL 9
REMARK VINA RESULT:      -6.9      5.324      8.549
REMARK  11 active torsions:
REMARK  status: ('A' for Active; 'I' for Inactive)
REMARK    1  A    between atoms: C_4  and  C_5 
REMARK    2  A    between atoms: C_5  and  N_6 
REMARK    3  A    between atoms: C_7  and  S_8 
REMARK    4  A    between atoms: C_9  and  C_10 
REMARK       I    between atoms: C_10  and  N_11 
REMARK    5  A    between atoms: N_11  and  C_12 
REMARK    6  A    between atoms: C_15  and  O_16 
REMARK    7  A    between atoms: O_16  and  C_17 
REMARK    8  A    between atoms: C_27  and  C_28 
REMARK       I    between atoms: C_28  and  N_29 
REMARK    9  A    between atoms: N_29  and  C_30 
REMARK   10  A    between atoms: C_30  and  C_31 
REMARK   11  A    between atoms: C_31  and  O_32 
ROOT
HETATM    1  N   UNL     1     -43.483  61.033 -53.631  1.00  0.00    -0.321 N 
HETATM    2  C   UNL     1     -43.061  60.038 -54.535  1.00  0.00     0.104 A 
HETATM    3  C   UNL     1     -43.346  58.789 -53.979  1.00  0.00     0.142 A 
HETATM    4  N   UNL     1     -43.925  59.107 -52.745  1.00  0.00    -0.301 N 
HETATM    5  C   UNL     1     -44.013  60.421 -52.566  1.00  0.00     0.116 A 
HETATM    6  C   UNL     1     -44.441  58.149 -51.728  1.00  0.00     0.100 A 
HETATM    7  C   UNL     1     -45.005  58.725 -50.593  1.00  0.00     0.035 A 
HETATM    8  C   UNL     1     -45.067  60.113 -50.444  1.00  0.00     0.036 A 
HETATM    9  C   UNL     1     -44.574  60.975 -51.427  1.00  0.00     0.066 A 
ENDROOT
BRANCH   3  10
HETATM   10  C   UNL     1     -43.122  57.428 -54.461  1.00  0.00     0.276 C 
HETATM   11  N   UNL     1     -42.104  56.766 -53.787  1.00  0.00    -0.322 N 
HETATM   12  H   UNL     1     -41.643  57.235 -53.015  1.00  0.00     0.169 HD
HETATM   13  O   UNL     1     -43.745  56.923 -55.394  1.00  0.00    -0.266 OA
BRANCH  11  14
HETATM   14  C   UNL     1     -41.611  55.462 -54.026  1.00  0.00     0.035 A 
HETATM   15  C   UNL     1     -40.597  55.148 -54.931  1.00  0.00     0.032 A 
HETATM   16  C   UNL     1     -40.178  53.821 -55.091  1.00  0.00     0.039 A 
HETATM   17  C   UNL     1     -40.761  52.785 -54.358  1.00  0.00     0.075 A 
HETATM   18  C   UNL     1     -41.771  53.095 -53.453  1.00  0.00     0.039 A 
HETATM   19  C   UNL     1     -42.190  54.422 -53.288  1.00  0.00     0.032 A 
BRANCH  17  20
HETATM   20  O   UNL     1     -40.255  51.546 -54.621  1.00  0.00    -0.290 OA
BRANCH  20  21
HETATM   21  C   UNL     1     -39.325  50.986 -53.701  1.00  0.00     0.505 C 
HETATM   22  F   UNL     1     -39.941  50.734 -52.521  1.00  0.00    -0.184 F 
HETATM   23  F   UNL     1     -38.846  49.815 -54.186  1.00  0.00    -0.184 F 
ENDBRANCH  20  21
ENDBRANCH  17  20
ENDBRANCH  11  14
ENDBRANCH   3  10
BRANCH   2  24
HETATM   24  S   UNL     1     -42.287  60.335 -56.089  1.00  0.00    -0.123 SA
HETATM   25  H   UNL     1     -43.267  60.015 -56.943  1.00  0.00     0.108 HD
ENDBRANCH   2  24
BRANCH   1  26
HETATM   26  C   UNL     1     -43.391  62.491 -53.790  1.00  0.00     0.177 C 
BRANCH  26  27
HETATM   27  C   UNL     1     -44.556  62.989 -54.588  1.00  0.00     0.001 A 
HETATM   28  S   UNL     1     -44.490  64.518 -55.364  1.00  0.00    -0.105 SA
HETATM   29  C   UNL     1     -46.060  64.335 -56.010  1.00  0.00     0.050 A 
HETATM   30  C   UNL     1     -46.637  63.145 -55.631  1.00  0.00     0.008 A 
HETATM   31  C   UNL     1     -45.774  62.371 -54.803  1.00  0.00     0.017 A 
ENDBRANCH  26  27
ENDBRANCH   1  26
BRANCH   8  32
HETATM   32  C   UNL     1     -45.725  60.748 -49.279  1.00  0.00     0.251 C 
HETATM   33  N   UNL     1     -45.422  60.259 -48.033  1.00  0.00    -0.355 N 
HETATM   34  H   UNL     1     -44.704  59.559 -47.909  1.00  0.00     0.162 HD
HETATM   35  O   UNL     1     -46.471  61.700 -49.477  1.00  0.00    -0.268 OA
BRANCH  33  36
HETATM   36  C   UNL     1     -46.057  60.772 -46.818  1.00  0.00     0.148 C 
BRANCH  36  37
HETATM   37  C   UNL     1     -46.445  59.678 -45.815  1.00  0.00     0.183 C 
BRANCH  37  38
HETATM   38  O   UNL     1     -47.203  58.636 -46.422  1.00  0.00    -0.399 OA
HETATM   39  H   UNL     1     -46.999  58.638 -47.381  1.00  0.00     0.209 HD
ENDBRANCH  37  38
ENDBRANCH  36  37
ENDBRANCH  33  36
ENDBRANCH   8  32
TORSDOF 11
ENDMDL
MODEL 10
REMARK VINA RESULT:      -6.8      5.119      9.307
REMARK  11 active torsions:
REMARK  status: ('A' for Active; 'I' for Inactive)
REMARK    1  A    between atoms: C_4  and  C_5 
REMARK    2  A    between atoms: C_5  and  N_6 
REMARK    3  A    between atoms: C_7  and  S_8 
REMARK    4  A    between atoms: C_9  and  C_10 
REMARK       I    between atoms: C_10  and  N_11 
REMARK    5  A    between atoms: N_11  and  C_12 
REMARK    6  A    between atoms: C_15  and  O_16 
REMARK    7  A    between atoms: O_16  and  C_17 
REMARK    8  A    between atoms: C_27  and  C_28 
REMARK       I    between atoms: C_28  and  N_29 
REMARK    9  A    between atoms: N_29  and  C_30 
REMARK   10  A    between atoms: C_30  and  C_31 
REMARK   11  A    between atoms: C_31  and  O_32 
ROOT
HETATM    1  N   UNL     1     -43.064  59.989 -52.986  1.00  0.00    -0.321 N 
HETATM    2  C   UNL     1     -42.500  58.929 -52.247  1.00  0.00     0.104 A 
HETATM    3  C   UNL     1     -42.974  57.725 -52.774  1.00  0.00     0.142 A 
HETATM    4  N   UNL     1     -43.820  58.135 -53.811  1.00  0.00    -0.301 N 
HETATM    5  C   UNL     1     -43.847  59.457 -53.932  1.00  0.00     0.116 A 
HETATM    6  C   UNL     1     -44.590  57.255 -54.734  1.00  0.00     0.100 A 
HETATM    7  C   UNL     1     -45.334  57.913 -55.709  1.00  0.00     0.035 A 
HETATM    8  C   UNL     1     -45.339  59.309 -55.791  1.00  0.00     0.036 A 
HETATM    9  C   UNL     1     -44.596  60.095 -54.906  1.00  0.00     0.066 A 
ENDROOT
BRANCH   3  10
HETATM   10  C   UNL     1     -42.734  56.333 -52.402  1.00  0.00     0.276 C 
HETATM   11  N   UNL     1     -41.526  55.837 -52.874  1.00  0.00    -0.322 N 
HETATM   12  H   UNL     1     -40.905  56.461 -53.378  1.00  0.00     0.169 HD
HETATM   13  O   UNL     1     -43.534  55.649 -51.765  1.00  0.00    -0.266 OA
BRANCH  11  14
HETATM   14  C   UNL     1     -41.008  54.528 -52.726  1.00  0.00     0.035 A 
HETATM   15  C   UNL     1     -40.814  53.627 -53.772  1.00  0.00     0.032 A 
HETATM   16  C   UNL     1     -40.291  52.353 -53.519  1.00  0.00     0.039 A 
HETATM   17  C   UNL     1     -39.955  51.953 -52.224  1.00  0.00     0.075 A 
HETATM   18  C   UNL     1     -40.145  52.850 -51.179  1.00  0.00     0.039 A 
HETATM   19  C   UNL     1     -40.666  54.127 -51.429  1.00  0.00     0.032 A 
BRANCH  17  20
HETATM   20  O   UNL     1     -39.461  50.685 -52.129  1.00  0.00    -0.290 OA
BRANCH  20  21
HETATM   21  C   UNL     1     -39.565  50.011 -50.881  1.00  0.00     0.505 C 
HETATM   22  F   UNL     1     -40.514  49.046 -50.958  1.00  0.00    -0.184 F 
HETATM   23  F   UNL     1     -38.385  49.419 -50.577  1.00  0.00    -0.184 F 
ENDBRANCH  20  21
ENDBRANCH  17  20
ENDBRANCH  11  14
ENDBRANCH   3  10
BRANCH   2  24
HETATM   24  S   UNL     1     -41.403  59.110 -50.882  1.00  0.00    -0.123 SA
HETATM   25  H   UNL     1     -41.808  58.118 -50.078  1.00  0.00     0.108 HD
ENDBRANCH   2  24
BRANCH   1  26
HETATM   26  C   UNL     1     -42.852  61.430 -52.797  1.00  0.00     0.177 C 
BRANCH  26  27
HETATM   27  C   UNL     1     -43.822  61.958 -51.786  1.00  0.00     0.001 A 
HETATM   28  S   UNL     1     -43.282  62.434 -50.228  1.00  0.00    -0.105 SA
HETATM   29  C   UNL     1     -44.856  62.888 -49.746  1.00  0.00     0.050 A 
HETATM   30  C   UNL     1     -45.783  62.666 -50.739  1.00  0.00     0.008 A 
HETATM   31  C   UNL     1     -45.189  62.121 -51.913  1.00  0.00     0.017 A 
ENDBRANCH  26  27
ENDBRANCH   1  26
BRANCH   8  32
HETATM   32  C   UNL     1     -46.065  60.027 -56.863  1.00  0.00     0.251 C 
HETATM   33  N   UNL     1     -47.260  59.500 -57.286  1.00  0.00    -0.355 N 
HETATM   34  H   UNL     1     -47.675  58.707 -56.816  1.00  0.00     0.162 HD
HETATM   35  O   UNL     1     -45.591  61.074 -57.290  1.00  0.00    -0.268 OA
BRANCH  33  36
HETATM   36  C   UNL     1     -48.032  60.094 -58.378  1.00  0.00     0.148 C 
BRANCH  36  37
HETATM   37  C   UNL     1     -49.320  60.789 -57.918  1.00  0.00     0.183 C 
BRANCH  37  38
HETATM   38  O   UNL     1     -49.979  60.067 -56.881  1.00  0.00    -0.399 OA
HETATM   39  H   UNL     1     -49.291  59.614 -56.350  1.00  0.00     0.209 HD
ENDBRANCH  37  38
ENDBRANCH  36  37
ENDBRANCH  33  36
ENDBRANCH   8  32
TORSDOF 11
ENDMDL
