MODEL 1
REMARK VINA RESULT:      -8.7      0.000      0.000
REMARK  7 active torsions:
REMARK  status: ('A' for Active; 'I' for Inactive)
REMARK    1  A    between atoms: O_2  and  C_3 
REMARK    2  A    between atoms: C_6  and  C_7 
REMARK    3  A    between atoms: C_11  and  C_12 
REMARK       I    between atoms: C_12  and  N_13 
REMARK    4  A    between atoms: N_13  and  N_14 
REMARK       I    between atoms: N_14  and  C_15 
REMARK    5  A    between atoms: C_15  and  C_16 
REMARK    6  A    between atoms: C_16  and  C_17 
REMARK    7  A    between atoms: C_17  and  C_18 
ROOT
HETATM    1  C   UNL     1     -43.182  56.946 -58.003  1.00  0.00     0.288 C 
HETATM    2  N   UNL     1     -43.148  56.001 -57.001  1.00  0.00    -0.262 N 
HETATM    3  O   UNL     1     -42.169  57.518 -58.398  1.00  0.00    -0.264 OA
HETATM    4  H   UNL     1     -43.968  55.495 -56.673  1.00  0.00     0.190 HD
ENDROOT
BRANCH   1   5
HETATM    5  C   UNL     1     -44.488  57.209 -58.542  1.00  0.00     0.121 A 
HETATM    6  N   UNL     1     -45.552  57.535 -57.750  1.00  0.00    -0.272 N 
HETATM    7  N   UNL     1     -46.699  57.723 -58.420  1.00  0.00    -0.174 NA
HETATM    8  H   UNL     1     -45.554  57.631 -56.740  1.00  0.00     0.189 HD
HETATM    9  C   UNL     1     -46.375  57.543 -59.710  1.00  0.00     0.089 A 
HETATM   10  C   UNL     1     -44.995  57.214 -59.826  1.00  0.00     0.071 A 
BRANCH   9  11
HETATM   11  C   UNL     1     -47.360  57.663 -60.788  1.00  0.00    -0.005 A 
HETATM   12  C   UNL     1     -47.950  58.896 -61.094  1.00  0.00     0.016 A 
HETATM   13  C   UNL     1     -48.866  59.004 -62.145  1.00  0.00     0.037 A 
HETATM   14  C   UNL     1     -49.205  57.890 -62.915  1.00  0.00     0.068 A 
HETATM   15  C   UNL     1     -48.637  56.655 -62.606  1.00  0.00     0.037 A 
HETATM   16  C   UNL     1     -47.724  56.543 -61.550  1.00  0.00     0.016 A 
BRANCH  14  17
HETATM   17  O   UNL     1     -50.097  58.140 -63.920  1.00  0.00    -0.356 OA
HETATM   18  C   UNL     1     -50.712  59.421 -63.923  1.00  0.00     0.210 C 
ENDBRANCH  14  17
ENDBRANCH   9  11
ENDBRANCH   1   5
BRANCH   2  19
HETATM   19  N   UNL     1     -41.930  55.628 -56.430  1.00  0.00    -0.267 N 
HETATM   20  C   UNL     1     -41.933  54.540 -55.582  1.00  0.00     0.236 C 
HETATM   21  O   UNL     1     -42.966  53.939 -55.294  1.00  0.00    -0.272 OA
HETATM   22  H   UNL     1     -41.091  56.103 -56.759  1.00  0.00     0.190 HD
BRANCH  20  23
HETATM   23  C   UNL     1     -40.561  54.164 -55.075  1.00  0.00     0.109 C 
BRANCH  23  24
HETATM   24  C   UNL     1     -40.600  53.836 -53.584  1.00  0.00     0.049 C 
BRANCH  24  25
HETATM   25  C   UNL     1     -40.250  52.393 -53.305  1.00  0.00    -0.036 A 
HETATM   26  C   UNL     1     -39.864  51.932 -52.037  1.00  0.00     0.040 A 
HETATM   27 CL   UNL     1     -39.756  52.990 -50.675  1.00  0.00    -0.084 Cl
HETATM   28  C   UNL     1     -39.549  50.584 -51.835  1.00  0.00     0.024 A 
HETATM   29  C   UNL     1     -39.612  49.682 -52.896  1.00  0.00     0.002 A 
HETATM   30  C   UNL     1     -39.986  50.126 -54.161  1.00  0.00     0.001 A 
HETATM   31  C   UNL     1     -40.300  51.471 -54.366  1.00  0.00     0.009 A 
ENDBRANCH  24  25
ENDBRANCH  23  24
ENDBRANCH  20  23
ENDBRANCH   2  19
TORSDOF 7
ENDMDL
MODEL 2
REMARK VINA RESULT:      -8.4      4.774     10.991
REMARK  7 active torsions:
REMARK  status: ('A' for Active; 'I' for Inactive)
REMARK    1  A    between atoms: O_2  and  C_3 
REMARK    2  A    between atoms: C_6  and  C_7 
REMARK    3  A    between atoms: C_11  and  C_12 
REMARK       I    between atoms: C_12  and  N_13 
REMARK    4  A    between atoms: N_13  and  N_14 
REMARK       I    between atoms: N_14  and  C_15 
REMARK    5  A    between atoms: C_15  and  C_16 
REMARK    6  A    between atoms: C_16  and  C_17 
REMARK    7  A    between atoms: C_17  and  C_18 
ROOT
HETATM    1  C   UNL     1     -43.110  57.036 -56.912  1.00  0.00     0.288 C 
HETATM    2  N   UNL     1     -42.028  57.365 -57.698  1.00  0.00    -0.262 N 
HETATM    3  O   UNL     1     -44.198  57.594 -57.030  1.00  0.00    -0.264 OA
HETATM    4  H   UNL     1     -41.123  56.901 -57.638  1.00  0.00     0.190 HD
ENDROOT
BRANCH   1   5
HETATM    5  C   UNL     1     -42.864  55.999 -55.948  1.00  0.00     0.121 A 
HETATM    6  N   UNL     1     -43.855  55.483 -55.162  1.00  0.00    -0.272 N 
HETATM    7  N   UNL     1     -43.442  54.539 -54.302  1.00  0.00    -0.174 NA
HETATM    8  H   UNL     1     -44.835  55.749 -55.162  1.00  0.00     0.189 HD
HETATM    9  C   UNL     1     -42.129  54.405 -54.549  1.00  0.00     0.089 A 
HETATM   10  C   UNL     1     -41.729  55.308 -55.573  1.00  0.00     0.071 A 
BRANCH   9  11
HETATM   11  C   UNL     1     -41.289  53.457 -53.813  1.00  0.00    -0.005 A 
HETATM   12  C   UNL     1     -41.109  53.575 -52.429  1.00  0.00     0.016 A 
HETATM   13  C   UNL     1     -40.330  52.646 -51.732  1.00  0.00     0.037 A 
HETATM   14  C   UNL     1     -39.722  51.581 -52.398  1.00  0.00     0.068 A 
HETATM   15  C   UNL     1     -39.879  51.466 -53.778  1.00  0.00     0.037 A 
HETATM   16  C   UNL     1     -40.655  52.399 -54.479  1.00  0.00     0.016 A 
BRANCH  14  17
HETATM   17  O   UNL     1     -39.004  50.740 -51.594  1.00  0.00    -0.356 OA
HETATM   18  C   UNL     1     -39.748  49.914 -50.708  1.00  0.00     0.210 C 
ENDBRANCH  14  17
ENDBRANCH   9  11
ENDBRANCH   1   5
BRANCH   2  19
HETATM   19  N   UNL     1     -42.157  58.327 -58.701  1.00  0.00    -0.267 N 
HETATM   20  C   UNL     1     -42.049  57.900 -60.008  1.00  0.00     0.236 C 
HETATM   21  O   UNL     1     -41.804  56.729 -60.295  1.00  0.00    -0.272 OA
HETATM   22  H   UNL     1     -42.438  59.265 -58.420  1.00  0.00     0.190 HD
BRANCH  20  23
HETATM   23  C   UNL     1     -42.280  58.994 -61.024  1.00  0.00     0.109 C 
BRANCH  23  24
HETATM   24  C   UNL     1     -42.623  60.314 -60.336  1.00  0.00     0.049 C 
BRANCH  24  25
HETATM   25  C   UNL     1     -41.541  61.353 -60.519  1.00  0.00    -0.036 A 
HETATM   26  C   UNL     1     -40.867  61.951 -59.442  1.00  0.00     0.040 A 
HETATM   27 CL   UNL     1     -41.223  61.543 -57.802  1.00  0.00    -0.084 Cl
HETATM   28  C   UNL     1     -39.874  62.910 -59.669  1.00  0.00     0.024 A 
HETATM   29  C   UNL     1     -39.544  63.286 -60.970  1.00  0.00     0.002 A 
HETATM   30  C   UNL     1     -40.210  62.707 -62.048  1.00  0.00     0.001 A 
HETATM   31  C   UNL     1     -41.202  61.750 -61.825  1.00  0.00     0.009 A 
ENDBRANCH  24  25
ENDBRANCH  23  24
ENDBRANCH  20  23
ENDBRANCH   2  19
TORSDOF 7
ENDMDL
MODEL 3
REMARK VINA RESULT:      -8.2      3.272     11.348
REMARK  7 active torsions:
REMARK  status: ('A' for Active; 'I' for Inactive)
REMARK    1  A    between atoms: O_2  and  C_3 
REMARK    2  A    between atoms: C_6  and  C_7 
REMARK    3  A    between atoms: C_11  and  C_12 
REMARK       I    between atoms: C_12  and  N_13 
REMARK    4  A    between atoms: N_13  and  N_14 
REMARK       I    between atoms: N_14  and  C_15 
REMARK    5  A    between atoms: C_15  and  C_16 
REMARK    6  A    between atoms: C_16  and  C_17 
REMARK    7  A    between atoms: C_17  and  C_18 
ROOT
HETATM    1  C   UNL     1     -42.973  56.534 -57.025  1.00  0.00     0.288 C 
HETATM    2  N   UNL     1     -43.635  55.624 -57.819  1.00  0.00    -0.262 N 
HETATM    3  O   UNL     1     -42.990  57.740 -57.258  1.00  0.00    -0.264 OA
HETATM    4  H   UNL     1     -43.658  54.623 -57.634  1.00  0.00     0.190 HD
ENDROOT
BRANCH   1   5
HETATM    5  C   UNL     1     -42.263  55.963 -55.913  1.00  0.00     0.121 A 
HETATM    6  N   UNL     1     -41.753  56.728 -54.902  1.00  0.00    -0.272 N 
HETATM    7  N   UNL     1     -41.101  56.030 -53.959  1.00  0.00    -0.174 NA
HETATM    8  H   UNL     1     -41.810  57.737 -54.813  1.00  0.00     0.189 HD
HETATM    9  C   UNL     1     -41.210  54.750 -54.346  1.00  0.00     0.089 A 
HETATM   10  C   UNL     1     -41.929  54.667 -55.571  1.00  0.00     0.071 A 
BRANCH   9  11
HETATM   11  C   UNL     1     -40.625  53.648 -53.576  1.00  0.00    -0.005 A 
HETATM   12  C   UNL     1     -40.505  53.725 -52.183  1.00  0.00     0.016 A 
HETATM   13  C   UNL     1     -39.973  52.655 -51.455  1.00  0.00     0.037 A 
HETATM   14  C   UNL     1     -39.560  51.489 -52.100  1.00  0.00     0.068 A 
HETATM   15  C   UNL     1     -39.658  51.410 -53.488  1.00  0.00     0.037 A 
HETATM   16  C   UNL     1     -40.185  52.483 -54.219  1.00  0.00     0.016 A 
BRANCH  14  17
HETATM   17  O   UNL     1     -39.077  50.517 -51.269  1.00  0.00    -0.356 OA
HETATM   18  C   UNL     1     -39.968  49.460 -50.937  1.00  0.00     0.210 C 
ENDBRANCH  14  17
ENDBRANCH   9  11
ENDBRANCH   1   5
BRANCH   2  19
HETATM   19  N   UNL     1     -44.396  56.063 -58.903  1.00  0.00    -0.267 N 
HETATM   20  C   UNL     1     -44.840  55.109 -59.795  1.00  0.00     0.236 C 
HETATM   21  O   UNL     1     -44.547  53.920 -59.680  1.00  0.00    -0.272 OA
HETATM   22  H   UNL     1     -44.679  57.041 -58.914  1.00  0.00     0.190 HD
BRANCH  20  23
HETATM   23  C   UNL     1     -45.718  55.666 -60.890  1.00  0.00     0.109 C 
BRANCH  23  24
HETATM   24  C   UNL     1     -47.036  56.188 -60.321  1.00  0.00     0.049 C 
BRANCH  24  25
HETATM   25  C   UNL     1     -47.658  57.250 -61.197  1.00  0.00    -0.036 A 
HETATM   26  C   UNL     1     -47.383  58.618 -61.050  1.00  0.00     0.040 A 
HETATM   27 CL   UNL     1     -46.298  59.207 -59.841  1.00  0.00    -0.084 Cl
HETATM   28  C   UNL     1     -47.989  59.560 -61.888  1.00  0.00     0.024 A 
HETATM   29  C   UNL     1     -48.878  59.149 -62.879  1.00  0.00     0.002 A 
HETATM   30  C   UNL     1     -49.167  57.795 -63.032  1.00  0.00     0.001 A 
HETATM   31  C   UNL     1     -48.565  56.853 -62.196  1.00  0.00     0.009 A 
ENDBRANCH  24  25
ENDBRANCH  23  24
ENDBRANCH  20  23
ENDBRANCH   2  19
TORSDOF 7
ENDMDL
MODEL 4
REMARK VINA RESULT:      -8.2     16.539     22.187
REMARK  7 active torsions:
REMARK  status: ('A' for Active; 'I' for Inactive)
REMARK    1  A    between atoms: O_2  and  C_3 
REMARK    2  A    between atoms: C_6  and  C_7 
REMARK    3  A    between atoms: C_11  and  C_12 
REMARK       I    between atoms: C_12  and  N_13 
REMARK    4  A    between atoms: N_13  and  N_14 
REMARK       I    between atoms: N_14  and  C_15 
REMARK    5  A    between atoms: C_15  and  C_16 
REMARK    6  A    between atoms: C_16  and  C_17 
REMARK    7  A    between atoms: C_17  and  C_18 
ROOT
HETATM    1  C   UNL     1     -34.095  39.972 -52.313  1.00  0.00     0.288 C 
HETATM    2  N   UNL     1     -33.853  41.063 -53.119  1.00  0.00    -0.262 N 
HETATM    3  O   UNL     1     -35.000  39.176 -52.545  1.00  0.00    -0.264 OA
HETATM    4  H   UNL     1     -33.094  41.724 -52.964  1.00  0.00     0.190 HD
ENDROOT
BRANCH   1   5
HETATM    5  C   UNL     1     -33.211  39.845 -51.187  1.00  0.00     0.121 A 
HETATM    6  N   UNL     1     -31.869  40.078 -51.283  1.00  0.00    -0.272 N 
HETATM    7  N   UNL     1     -31.194  39.888 -50.138  1.00  0.00    -0.174 NA
HETATM    8  H   UNL     1     -31.355  40.357 -52.113  1.00  0.00     0.189 HD
HETATM    9  C   UNL     1     -32.132  39.544 -49.242  1.00  0.00     0.089 A 
HETATM   10  C   UNL     1     -33.411  39.502 -49.864  1.00  0.00     0.071 A 
BRANCH   9  11
HETATM   11  C   UNL     1     -31.806  39.247 -47.844  1.00  0.00    -0.005 A 
HETATM   12  C   UNL     1     -30.762  39.911 -47.190  1.00  0.00     0.016 A 
HETATM   13  C   UNL     1     -30.480  39.642 -45.847  1.00  0.00     0.037 A 
HETATM   14  C   UNL     1     -31.237  38.714 -45.130  1.00  0.00     0.068 A 
HETATM   15  C   UNL     1     -32.267  38.034 -45.779  1.00  0.00     0.037 A 
HETATM   16  C   UNL     1     -32.547  38.298 -47.126  1.00  0.00     0.016 A 
BRANCH  14  17
HETATM   17  O   UNL     1     -30.866  38.560 -43.824  1.00  0.00    -0.356 OA
HETATM   18  C   UNL     1     -29.628  39.144 -43.439  1.00  0.00     0.210 C 
ENDBRANCH  14  17
ENDBRANCH   9  11
ENDBRANCH   1   5
BRANCH   2  19
HETATM   19  N   UNL     1     -34.617  41.268 -54.269  1.00  0.00    -0.267 N 
HETATM   20  C   UNL     1     -35.675  42.149 -54.179  1.00  0.00     0.236 C 
HETATM   21  O   UNL     1     -35.974  42.706 -53.125  1.00  0.00    -0.272 OA
HETATM   22  H   UNL     1     -34.284  40.850 -55.136  1.00  0.00     0.190 HD
BRANCH  20  23
HETATM   23  C   UNL     1     -36.394  42.367 -55.490  1.00  0.00     0.109 C 
BRANCH  23  24
HETATM   24  C   UNL     1     -35.429  42.255 -56.668  1.00  0.00     0.049 C 
BRANCH  24  25
HETATM   25  C   UNL     1     -36.053  41.563 -57.857  1.00  0.00    -0.036 A 
HETATM   26  C   UNL     1     -35.855  40.202 -58.139  1.00  0.00     0.040 A 
HETATM   27 CL   UNL     1     -34.869  39.196 -57.140  1.00  0.00    -0.084 Cl
HETATM   28  C   UNL     1     -36.457  39.613 -59.256  1.00  0.00     0.024 A 
HETATM   29  C   UNL     1     -37.260  40.373 -60.105  1.00  0.00     0.002 A 
HETATM   30  C   UNL     1     -37.459  41.726 -59.842  1.00  0.00     0.001 A 
HETATM   31  C   UNL     1     -36.859  42.318 -58.729  1.00  0.00     0.009 A 
ENDBRANCH  24  25
ENDBRANCH  23  24
ENDBRANCH  20  23
ENDBRANCH   2  19
TORSDOF 7
ENDMDL
MODEL 5
REMARK VINA RESULT:      -7.9      8.356     12.157
REMARK  7 active torsions:
REMARK  status: ('A' for Active; 'I' for Inactive)
REMARK    1  A    between atoms: O_2  and  C_3 
REMARK    2  A    between atoms: C_6  and  C_7 
REMARK    3  A    between atoms: C_11  and  C_12 
REMARK       I    between atoms: C_12  and  N_13 
REMARK    4  A    between atoms: N_13  and  N_14 
REMARK       I    between atoms: N_14  and  C_15 
REMARK    5  A    between atoms: C_15  and  C_16 
REMARK    6  A    between atoms: C_16  and  C_17 
REMARK    7  A    between atoms: C_17  and  C_18 
ROOT
HETATM    1  C   UNL     1     -42.359  58.509 -51.250  1.00  0.00     0.288 C 
HETATM    2  N   UNL     1     -43.688  58.650 -50.917  1.00  0.00    -0.262 N 
HETATM    3  O   UNL     1     -41.675  59.456 -51.630  1.00  0.00    -0.264 OA
HETATM    4  H   UNL     1     -44.270  57.887 -50.576  1.00  0.00     0.190 HD
ENDROOT
BRANCH   1   5
HETATM    5  C   UNL     1     -41.842  57.174 -51.123  1.00  0.00     0.121 A 
HETATM    6  N   UNL     1     -41.418  56.667 -49.927  1.00  0.00    -0.272 N 
HETATM    7  N   UNL     1     -40.944  55.413 -49.998  1.00  0.00    -0.174 NA
HETATM    8  H   UNL     1     -41.417  57.141 -49.030  1.00  0.00     0.189 HD
HETATM    9  C   UNL     1     -41.088  55.067 -51.287  1.00  0.00     0.089 A 
HETATM   10  C   UNL     1     -41.645  56.148 -52.026  1.00  0.00     0.071 A 
BRANCH   9  11
HETATM   11  C   UNL     1     -40.685  53.751 -51.792  1.00  0.00    -0.005 A 
HETATM   12  C   UNL     1     -40.809  53.429 -53.149  1.00  0.00     0.016 A 
HETATM   13  C   UNL     1     -40.393  52.182 -53.625  1.00  0.00     0.037 A 
HETATM   14  C   UNL     1     -39.840  51.237 -52.760  1.00  0.00     0.068 A 
HETATM   15  C   UNL     1     -39.729  51.540 -51.404  1.00  0.00     0.037 A 
HETATM   16  C   UNL     1     -40.151  52.787 -50.925  1.00  0.00     0.016 A 
BRANCH  14  17
HETATM   17  O   UNL     1     -39.460  50.068 -53.359  1.00  0.00    -0.356 OA
HETATM   18  C   UNL     1     -39.839  49.894 -54.718  1.00  0.00     0.210 C 
ENDBRANCH  14  17
ENDBRANCH   9  11
ENDBRANCH   1   5
BRANCH   2  19
HETATM   19  N   UNL     1     -44.291  59.908 -50.958  1.00  0.00    -0.267 N 
HETATM   20  C   UNL     1     -45.584  60.008 -50.489  1.00  0.00     0.236 C 
HETATM   21  O   UNL     1     -46.212  59.029 -50.090  1.00  0.00    -0.272 OA
HETATM   22  H   UNL     1     -43.708  60.701 -51.221  1.00  0.00     0.190 HD
BRANCH  20  23
HETATM   23  C   UNL     1     -46.125  61.418 -50.500  1.00  0.00     0.109 C 
BRANCH  23  24
HETATM   24  C   UNL     1     -45.064  62.414 -50.036  1.00  0.00     0.049 C 
BRANCH  24  25
HETATM   25  C   UNL     1     -45.279  62.856 -48.607  1.00  0.00    -0.036 A 
HETATM   26  C   UNL     1     -44.512  63.859 -47.995  1.00  0.00     0.040 A 
HETATM   27 CL   UNL     1     -43.243  64.679 -48.834  1.00  0.00    -0.084 Cl
HETATM   28  C   UNL     1     -44.753  64.228 -46.667  1.00  0.00     0.024 A 
HETATM   29  C   UNL     1     -45.759  63.600 -45.935  1.00  0.00     0.002 A 
HETATM   30  C   UNL     1     -46.523  62.598 -46.527  1.00  0.00     0.001 A 
HETATM   31  C   UNL     1     -46.284  62.226 -47.851  1.00  0.00     0.009 A 
ENDBRANCH  24  25
ENDBRANCH  23  24
ENDBRANCH  20  23
ENDBRANCH   2  19
TORSDOF 7
ENDMDL
MODEL 6
REMARK VINA RESULT:      -7.7      5.375     11.252
REMARK  7 active torsions:
REMARK  status: ('A' for Active; 'I' for Inactive)
REMARK    1  A    between atoms: O_2  and  C_3 
REMARK    2  A    between atoms: C_6  and  C_7 
REMARK    3  A    between atoms: C_11  and  C_12 
REMARK       I    between atoms: C_12  and  N_13 
REMARK    4  A    between atoms: N_13  and  N_14 
REMARK       I    between atoms: N_14  and  C_15 
REMARK    5  A    between atoms: C_15  and  C_16 
REMARK    6  A    between atoms: C_16  and  C_17 
REMARK    7  A    between atoms: C_17  and  C_18 
ROOT
HETATM    1  C   UNL     1     -42.705  57.016 -57.071  1.00  0.00     0.288 C 
HETATM    2  N   UNL     1     -41.936  58.108 -56.733  1.00  0.00    -0.262 N 
HETATM    3  O   UNL     1     -43.491  57.035 -58.015  1.00  0.00    -0.264 OA
HETATM    4  H   UNL     1     -41.260  58.110 -55.972  1.00  0.00     0.190 HD
ENDROOT
BRANCH   1   5
HETATM    5  C   UNL     1     -42.516  55.862 -56.235  1.00  0.00     0.121 A 
HETATM    6  N   UNL     1     -43.512  54.955 -56.006  1.00  0.00    -0.272 N 
HETATM    7  N   UNL     1     -43.167  53.954 -55.182  1.00  0.00    -0.174 NA
HETATM    8  H   UNL     1     -44.456  54.979 -56.380  1.00  0.00     0.189 HD
HETATM    9  C   UNL     1     -41.882  54.192 -54.876  1.00  0.00     0.089 A 
HETATM   10  C   UNL     1     -41.439  55.384 -55.515  1.00  0.00     0.071 A 
BRANCH   9  11
HETATM   11  C   UNL     1     -41.116  53.315 -53.986  1.00  0.00    -0.005 A 
HETATM   12  C   UNL     1     -41.026  53.580 -52.614  1.00  0.00     0.016 A 
HETATM   13  C   UNL     1     -40.317  52.720 -51.769  1.00  0.00     0.037 A 
HETATM   14  C   UNL     1     -39.694  51.578 -52.273  1.00  0.00     0.068 A 
HETATM   15  C   UNL     1     -39.762  51.315 -53.640  1.00  0.00     0.037 A 
HETATM   16  C   UNL     1     -40.467  52.179 -54.489  1.00  0.00     0.016 A 
BRANCH  14  17
HETATM   17  O   UNL     1     -39.052  50.817 -51.336  1.00  0.00    -0.356 OA
HETATM   18  C   UNL     1     -39.845  49.875 -50.626  1.00  0.00     0.210 C 
ENDBRANCH  14  17
ENDBRANCH   9  11
ENDBRANCH   1   5
BRANCH   2  19
HETATM   19  N   UNL     1     -41.999  59.273 -57.499  1.00  0.00    -0.267 N 
HETATM   20  C   UNL     1     -42.119  60.470 -56.826  1.00  0.00     0.236 C 
HETATM   21  O   UNL     1     -42.213  60.524 -55.601  1.00  0.00    -0.272 OA
HETATM   22  H   UNL     1     -41.836  59.186 -58.501  1.00  0.00     0.190 HD
BRANCH  20  23
HETATM   23  C   UNL     1     -42.100  61.679 -57.731  1.00  0.00     0.109 C 
BRANCH  23  24
HETATM   24  C   UNL     1     -40.692  61.942 -58.262  1.00  0.00     0.049 C 
BRANCH  24  25
HETATM   25  C   UNL     1     -40.680  62.202 -59.751  1.00  0.00    -0.036 A 
HETATM   26  C   UNL     1     -39.756  63.058 -60.369  1.00  0.00     0.040 A 
HETATM   27 CL   UNL     1     -38.543  63.897 -59.469  1.00  0.00    -0.084 Cl
HETATM   28  C   UNL     1     -39.792  63.263 -61.752  1.00  0.00     0.024 A 
HETATM   29  C   UNL     1     -40.751  62.620 -62.534  1.00  0.00     0.002 A 
HETATM   30  C   UNL     1     -41.679  61.773 -61.933  1.00  0.00     0.001 A 
HETATM   31  C   UNL     1     -41.646  61.567 -60.553  1.00  0.00     0.009 A 
ENDBRANCH  24  25
ENDBRANCH  23  24
ENDBRANCH  20  23
ENDBRANCH   2  19
TORSDOF 7
ENDMDL
MODEL 7
REMARK VINA RESULT:      -7.6      4.020     10.752
REMARK  7 active torsions:
REMARK  status: ('A' for Active; 'I' for Inactive)
REMARK    1  A    between atoms: O_2  and  C_3 
REMARK    2  A    between atoms: C_6  and  C_7 
REMARK    3  A    between atoms: C_11  and  C_12 
REMARK       I    between atoms: C_12  and  N_13 
REMARK    4  A    between atoms: N_13  and  N_14 
REMARK       I    between atoms: N_14  and  C_15 
REMARK    5  A    between atoms: C_15  and  C_16 
REMARK    6  A    between atoms: C_16  and  C_17 
REMARK    7  A    between atoms: C_17  and  C_18 
ROOT
HETATM    1  C   UNL     1     -42.620  57.208 -56.822  1.00  0.00     0.288 C 
HETATM    2  N   UNL     1     -41.901  57.299 -57.994  1.00  0.00    -0.262 N 
HETATM    3  O   UNL     1     -43.356  58.111 -56.434  1.00  0.00    -0.264 OA
HETATM    4  H   UNL     1     -41.305  56.555 -58.350  1.00  0.00     0.190 HD
ENDROOT
BRANCH   1   5
HETATM    5  C   UNL     1     -42.439  55.981 -56.095  1.00  0.00     0.121 A 
HETATM    6  N   UNL     1     -43.356  54.969 -56.132  1.00  0.00    -0.272 N 
HETATM    7  N   UNL     1     -43.036  53.908 -55.375  1.00  0.00    -0.174 NA
HETATM    8  H   UNL     1     -44.230  54.955 -56.649  1.00  0.00     0.189 HD
HETATM    9  C   UNL     1     -41.845  54.219 -54.839  1.00  0.00     0.089 A 
HETATM   10  C   UNL     1     -41.439  55.514 -55.265  1.00  0.00     0.071 A 
BRANCH   9  11
HETATM   11  C   UNL     1     -41.134  53.310 -53.935  1.00  0.00    -0.005 A 
HETATM   12  C   UNL     1     -40.566  52.121 -54.406  1.00  0.00     0.016 A 
HETATM   13  C   UNL     1     -39.863  51.277 -53.541  1.00  0.00     0.037 A 
HETATM   14  C   UNL     1     -39.707  51.606 -52.194  1.00  0.00     0.068 A 
HETATM   15  C   UNL     1     -40.285  52.779 -51.711  1.00  0.00     0.037 A 
HETATM   16  C   UNL     1     -40.994  53.623 -52.575  1.00  0.00     0.016 A 
BRANCH  14  17
HETATM   17  O   UNL     1     -38.984  50.703 -51.465  1.00  0.00    -0.356 OA
HETATM   18  C   UNL     1     -39.725  49.735 -50.733  1.00  0.00     0.210 C 
ENDBRANCH  14  17
ENDBRANCH   9  11
ENDBRANCH   1   5
BRANCH   2  19
HETATM   19  N   UNL     1     -42.029  58.424 -58.809  1.00  0.00    -0.267 N 
HETATM   20  C   UNL     1     -42.437  58.222 -60.111  1.00  0.00     0.236 C 
HETATM   21  O   UNL     1     -42.639  57.097 -60.565  1.00  0.00    -0.272 OA
HETATM   22  H   UNL     1     -41.930  59.338 -58.369  1.00  0.00     0.190 HD
BRANCH  20  23
HETATM   23  C   UNL     1     -42.623  59.500 -60.893  1.00  0.00     0.109 C 
BRANCH  23  24
HETATM   24  C   UNL     1     -44.105  59.804 -61.100  1.00  0.00     0.049 C 
BRANCH  24  25
HETATM   25  C   UNL     1     -44.854  59.921 -59.793  1.00  0.00    -0.036 A 
HETATM   26  C   UNL     1     -45.811  58.983 -59.375  1.00  0.00     0.040 A 
HETATM   27 CL   UNL     1     -46.216  57.603 -60.332  1.00  0.00    -0.084 Cl
HETATM   28  C   UNL     1     -46.476  59.141 -58.155  1.00  0.00     0.024 A 
HETATM   29  C   UNL     1     -46.198  60.237 -57.339  1.00  0.00     0.002 A 
HETATM   30  C   UNL     1     -45.257  61.179 -57.744  1.00  0.00     0.001 A 
HETATM   31  C   UNL     1     -44.591  61.025 -58.962  1.00  0.00     0.009 A 
ENDBRANCH  24  25
ENDBRANCH  23  24
ENDBRANCH  20  23
ENDBRANCH   2  19
TORSDOF 7
ENDMDL
MODEL 8
REMARK VINA RESULT:      -7.5      5.470     11.526
REMARK  7 active torsions:
REMARK  status: ('A' for Active; 'I' for Inactive)
REMARK    1  A    between atoms: O_2  and  C_3 
REMARK    2  A    between atoms: C_6  and  C_7 
REMARK    3  A    between atoms: C_11  and  C_12 
REMARK       I    between atoms: C_12  and  N_13 
REMARK    4  A    between atoms: N_13  and  N_14 
REMARK       I    between atoms: N_14  and  C_15 
REMARK    5  A    between atoms: C_15  and  C_16 
REMARK    6  A    between atoms: C_16  and  C_17 
REMARK    7  A    between atoms: C_17  and  C_18 
ROOT
HETATM    1  C   UNL     1     -41.777  58.523 -54.762  1.00  0.00     0.288 C 
HETATM    2  N   UNL     1     -42.560  58.343 -55.881  1.00  0.00    -0.262 N 
HETATM    3  O   UNL     1     -41.332  59.623 -54.445  1.00  0.00    -0.264 OA
HETATM    4  H   UNL     1     -42.961  57.447 -56.152  1.00  0.00     0.190 HD
ENDROOT
BRANCH   1   5
HETATM    5  C   UNL     1     -41.521  57.329 -54.003  1.00  0.00     0.121 A 
HETATM    6  N   UNL     1     -41.725  57.264 -52.654  1.00  0.00    -0.272 N 
HETATM    7  N   UNL     1     -41.412  56.080 -52.107  1.00  0.00    -0.174 NA
HETATM    8  H   UNL     1     -42.065  58.007 -52.052  1.00  0.00     0.189 HD
HETATM    9  C   UNL     1     -41.013  55.321 -53.139  1.00  0.00     0.089 A 
HETATM   10  C   UNL     1     -41.064  56.072 -54.347  1.00  0.00     0.071 A 
BRANCH   9  11
HETATM   11  C   UNL     1     -40.580  53.932 -52.967  1.00  0.00    -0.005 A 
HETATM   12  C   UNL     1     -40.294  53.417 -51.697  1.00  0.00     0.016 A 
HETATM   13  C   UNL     1     -39.911  52.081 -51.542  1.00  0.00     0.037 A 
HETATM   14  C   UNL     1     -39.815  51.233 -52.646  1.00  0.00     0.068 A 
HETATM   15  C   UNL     1     -40.080  51.740 -53.916  1.00  0.00     0.037 A 
HETATM   16  C   UNL     1     -40.458  53.081 -54.075  1.00  0.00     0.016 A 
BRANCH  14  17
HETATM   17  O   UNL     1     -39.448  49.949 -52.350  1.00  0.00    -0.356 OA
HETATM   18  C   UNL     1     -39.425  49.592 -50.974  1.00  0.00     0.210 C 
ENDBRANCH  14  17
ENDBRANCH   9  11
ENDBRANCH   1   5
BRANCH   2  19
HETATM   19  N   UNL     1     -42.913  59.436 -56.673  1.00  0.00    -0.267 N 
HETATM   20  C   UNL     1     -42.537  59.408 -57.999  1.00  0.00     0.236 C 
HETATM   21  O   UNL     1     -41.876  58.484 -58.471  1.00  0.00    -0.272 OA
HETATM   22  H   UNL     1     -43.527  60.137 -56.260  1.00  0.00     0.190 HD
BRANCH  20  23
HETATM   23  C   UNL     1     -43.029  60.594 -58.794  1.00  0.00     0.109 C 
BRANCH  23  24
HETATM   24  C   UNL     1     -42.464  60.574 -60.213  1.00  0.00     0.049 C 
BRANCH  24  25
HETATM   25  C   UNL     1     -41.371  61.599 -60.408  1.00  0.00    -0.036 A 
HETATM   26  C   UNL     1     -41.081  62.179 -61.653  1.00  0.00     0.040 A 
HETATM   27 CL   UNL     1     -41.961  61.763 -63.081  1.00  0.00    -0.084 Cl
HETATM   28  C   UNL     1     -40.056  63.122 -61.777  1.00  0.00     0.024 A 
HETATM   29  C   UNL     1     -39.306  63.495 -60.663  1.00  0.00     0.002 A 
HETATM   30  C   UNL     1     -39.576  62.923 -59.423  1.00  0.00     0.001 A 
HETATM   31  C   UNL     1     -40.598  61.980 -59.296  1.00  0.00     0.009 A 
ENDBRANCH  24  25
ENDBRANCH  23  24
ENDBRANCH  20  23
ENDBRANCH   2  19
TORSDOF 7
ENDMDL
MODEL 9
REMARK VINA RESULT:      -7.4     17.400     22.460
REMARK  7 active torsions:
REMARK  status: ('A' for Active; 'I' for Inactive)
REMARK    1  A    between atoms: O_2  and  C_3 
REMARK    2  A    between atoms: C_6  and  C_7 
REMARK    3  A    between atoms: C_11  and  C_12 
REMARK       I    between atoms: C_12  and  N_13 
REMARK    4  A    between atoms: N_13  and  N_14 
REMARK       I    between atoms: N_14  and  C_15 
REMARK    5  A    between atoms: C_15  and  C_16 
REMARK    6  A    between atoms: C_16  and  C_17 
REMARK    7  A    between atoms: C_17  and  C_18 
ROOT
HETATM    1  C   UNL     1     -33.507  40.628 -51.840  1.00  0.00     0.288 C 
HETATM    2  N   UNL     1     -33.183  40.089 -53.066  1.00  0.00    -0.262 N 
HETATM    3  O   UNL     1     -34.268  41.586 -51.727  1.00  0.00    -0.264 OA
HETATM    4  H   UNL     1     -32.576  39.280 -53.185  1.00  0.00     0.190 HD
ENDROOT
BRANCH   1   5
HETATM    5  C   UNL     1     -32.887  39.985 -50.714  1.00  0.00     0.121 A 
HETATM    6  N   UNL     1     -32.501  38.676 -50.743  1.00  0.00    -0.272 N 
HETATM    7  N   UNL     1     -31.961  38.236 -49.595  1.00  0.00    -0.174 NA
HETATM    8  H   UNL     1     -32.595  38.028 -51.519  1.00  0.00     0.189 HD
HETATM    9  C   UNL     1     -31.964  39.305 -48.785  1.00  0.00     0.089 A 
HETATM   10  C   UNL     1     -32.541  40.423 -49.451  1.00  0.00     0.071 A 
BRANCH   9  11
HETATM   11  C   UNL     1     -31.448  39.249 -47.414  1.00  0.00    -0.005 A 
HETATM   12  C   UNL     1     -30.492  40.168 -46.964  1.00  0.00     0.016 A 
HETATM   13  C   UNL     1     -30.030  40.123 -45.645  1.00  0.00     0.037 A 
HETATM   14  C   UNL     1     -30.516  39.170 -44.750  1.00  0.00     0.068 A 
HETATM   15  C   UNL     1     -31.454  38.239 -45.194  1.00  0.00     0.037 A 
HETATM   16  C   UNL     1     -31.914  38.278 -46.517  1.00  0.00     0.016 A 
BRANCH  14  17
HETATM   17  O   UNL     1     -29.993  39.250 -43.489  1.00  0.00    -0.356 OA
HETATM   18  C   UNL     1     -28.778  39.974 -43.347  1.00  0.00     0.210 C 
ENDBRANCH  14  17
ENDBRANCH   9  11
ENDBRANCH   1   5
BRANCH   2  19
HETATM   19  N   UNL     1     -33.758  40.600 -54.230  1.00  0.00    -0.267 N 
HETATM   20  C   UNL     1     -32.952  40.701 -55.345  1.00  0.00     0.236 C 
HETATM   21  O   UNL     1     -31.760  40.401 -55.319  1.00  0.00    -0.272 OA
HETATM   22  H   UNL     1     -34.765  40.758 -54.227  1.00  0.00     0.190 HD
BRANCH  20  23
HETATM   23  C   UNL     1     -33.680  41.189 -56.576  1.00  0.00     0.109 C 
BRANCH  23  24
HETATM   24  C   UNL     1     -34.894  42.034 -56.194  1.00  0.00     0.049 C 
BRANCH  24  25
HETATM   25  C   UNL     1     -36.162  41.546 -56.856  1.00  0.00    -0.036 A 
HETATM   26  C   UNL     1     -37.267  41.073 -56.132  1.00  0.00     0.040 A 
HETATM   27 CL   UNL     1     -37.269  41.007 -54.405  1.00  0.00    -0.084 Cl
HETATM   28  C   UNL     1     -38.416  40.632 -56.796  1.00  0.00     0.024 A 
HETATM   29  C   UNL     1     -38.475  40.654 -58.189  1.00  0.00     0.002 A 
HETATM   30  C   UNL     1     -37.383  41.113 -58.920  1.00  0.00     0.001 A 
HETATM   31  C   UNL     1     -36.234  41.554 -58.260  1.00  0.00     0.009 A 
ENDBRANCH  24  25
ENDBRANCH  23  24
ENDBRANCH  20  23
ENDBRANCH   2  19
TORSDOF 7
ENDMDL
MODEL 10
REMARK VINA RESULT:      -7.3      7.612     11.841
REMARK  7 active torsions:
REMARK  status: ('A' for Active; 'I' for Inactive)
REMARK    1  A    between atoms: O_2  and  C_3 
REMARK    2  A    between atoms: C_6  and  C_7 
REMARK    3  A    between atoms: C_11  and  C_12 
REMARK       I    between atoms: C_12  and  N_13 
REMARK    4  A    between atoms: N_13  and  N_14 
REMARK       I    between atoms: N_14  and  C_15 
REMARK    5  A    between atoms: C_15  and  C_16 
REMARK    6  A    between atoms: C_16  and  C_17 
REMARK    7  A    between atoms: C_17  and  C_18 
ROOT
HETATM    1  C   UNL     1     -41.939  58.882 -52.794  1.00  0.00     0.288 C 
HETATM    2  N   UNL     1     -42.822  58.937 -51.738  1.00  0.00    -0.262 N 
HETATM    3  O   UNL     1     -41.485  59.894 -53.321  1.00  0.00    -0.264 OA
HETATM    4  H   UNL     1     -43.193  58.114 -51.267  1.00  0.00     0.190 HD
ENDROOT
BRANCH   1   5
HETATM    5  C   UNL     1     -41.597  57.555 -53.227  1.00  0.00     0.121 A 
HETATM    6  N   UNL     1     -41.628  57.186 -54.542  1.00  0.00    -0.272 N 
HETATM    7  N   UNL     1     -41.302  55.903 -54.762  1.00  0.00    -0.174 NA
HETATM    8  H   UNL     1     -41.880  57.769 -55.334  1.00  0.00     0.189 HD
HETATM    9  C   UNL     1     -41.015  55.411 -53.547  1.00  0.00     0.089 A 
HETATM   10  C   UNL     1     -41.193  56.417 -52.557  1.00  0.00     0.071 A 
BRANCH   9  11
HETATM   11  C   UNL     1     -40.605  54.018 -53.344  1.00  0.00    -0.005 A 
HETATM   12  C   UNL     1     -40.316  53.530 -52.064  1.00  0.00     0.016 A 
HETATM   13  C   UNL     1     -39.956  52.191 -51.879  1.00  0.00     0.037 A 
HETATM   14  C   UNL     1     -39.883  51.315 -52.963  1.00  0.00     0.068 A 
HETATM   15  C   UNL     1     -40.151  51.796 -54.243  1.00  0.00     0.037 A 
HETATM   16  C   UNL     1     -40.506  53.139 -54.431  1.00  0.00     0.016 A 
BRANCH  14  17
HETATM   17  O   UNL     1     -39.537  50.033 -52.639  1.00  0.00    -0.356 OA
HETATM   18  C   UNL     1     -39.501  49.711 -51.254  1.00  0.00     0.210 C 
ENDBRANCH  14  17
ENDBRANCH   9  11
ENDBRANCH   1   5
BRANCH   2  19
HETATM   19  N   UNL     1     -43.194  60.170 -51.199  1.00  0.00    -0.267 N 
HETATM   20  C   UNL     1     -44.442  60.258 -50.619  1.00  0.00     0.236 C 
HETATM   21  O   UNL     1     -45.227  59.311 -50.609  1.00  0.00    -0.272 OA
HETATM   22  H   UNL     1     -42.484  60.899 -51.159  1.00  0.00     0.190 HD
BRANCH  20  23
HETATM   23  C   UNL     1     -44.726  61.604 -49.996  1.00  0.00     0.109 C 
BRANCH  23  24
HETATM   24  C   UNL     1     -44.520  61.560 -48.483  1.00  0.00     0.049 C 
BRANCH  24  25
HETATM   25  C   UNL     1     -45.565  62.360 -47.739  1.00  0.00    -0.036 A 
HETATM   26  C   UNL     1     -45.759  62.259 -46.353  1.00  0.00     0.040 A 
HETATM   27 CL   UNL     1     -44.810  61.200 -45.372  1.00  0.00    -0.084 Cl
HETATM   28  C   UNL     1     -46.743  63.023 -45.716  1.00  0.00     0.024 A 
HETATM   29  C   UNL     1     -47.545  63.892 -46.453  1.00  0.00     0.002 A 
HETATM   30  C   UNL     1     -47.369  63.997 -47.830  1.00  0.00     0.001 A 
HETATM   31  C   UNL     1     -46.389  63.236 -48.470  1.00  0.00     0.009 A 
ENDBRANCH  24  25
ENDBRANCH  23  24
ENDBRANCH  20  23
ENDBRANCH   2  19
TORSDOF 7
ENDMDL
