MODEL 1
REMARK VINA RESULT:      -8.4      0.000      0.000
REMARK  7 active torsions:
REMARK  status: ('A' for Active; 'I' for Inactive)
REMARK    1  A    between atoms: C_2  and  O_3 
REMARK    2  A    between atoms: O_3  and  C_4 
REMARK       I    between atoms: C_4  and  N_5 
REMARK       I    between atoms: N_8  and  C_9 
REMARK    3  A    between atoms: C_9  and  C_10 
REMARK    4  A    between atoms: C_11  and  N_12 
REMARK       I    between atoms: N_12  and  C_13 
REMARK    5  A    between atoms: C_13  and  C_14 
REMARK    6  A    between atoms: N_16  and  C_17 
REMARK    7  A    between atoms: C_18  and  O_19 
ROOT
HETATM    1  C   UNL     1     -44.036  60.317 -52.518  1.00  0.00     0.059 A 
HETATM    2  C   UNL     1     -43.759  59.888 -51.200  1.00  0.00     0.050 A 
HETATM    3  C   UNL     1     -44.735  60.100 -50.223  1.00  0.00     0.030 A 
HETATM    4  C   UNL     1     -45.947  60.725 -50.541  1.00  0.00     0.002 A 
HETATM    5  C   UNL     1     -46.194  61.175 -51.835  1.00  0.00     0.001 A 
HETATM    6  C   UNL     1     -45.232  60.985 -52.822  1.00  0.00     0.019 A 
ENDROOT
BRANCH   2   7
HETATM    7  N   UNL     1     -42.479  59.365 -50.910  1.00  0.00    -0.326 N 
HETATM    8  C   UNL     1     -41.930  58.119 -50.921  1.00  0.00     0.228 C 
HETATM    9  O   UNL     1     -40.843  57.964 -50.359  1.00  0.00    -0.273 OA
HETATM   10  H   UNL     1     -41.816  60.058 -50.550  1.00  0.00     0.169 HD
BRANCH   8  11
HETATM   11  C   UNL     1     -42.575  56.979 -51.678  1.00  0.00     0.105 C 
HETATM   12  C   UNL     1     -41.491  56.058 -52.236  1.00  0.00     0.147 C 
HETATM   13  N   UNL     1     -42.088  54.745 -52.233  1.00  0.00    -0.315 N 
HETATM   14  C   UNL     1     -43.214  54.698 -51.410  1.00  0.00     0.225 C 
HETATM   15  O   UNL     1     -44.009  53.785 -51.237  1.00  0.00    -0.273 OA
HETATM   16  C   UNL     1     -43.374  56.055 -50.769  1.00  0.00     0.119 C 
BRANCH  13  17
HETATM   17  C   UNL     1     -41.406  53.621 -52.776  1.00  0.00     0.071 A 
HETATM   18  C   UNL     1     -41.488  53.264 -54.138  1.00  0.00     0.095 A 
HETATM   19  C   UNL     1     -40.762  52.163 -54.614  1.00  0.00     0.039 A 
HETATM   20  C   UNL     1     -39.974  51.401 -53.749  1.00  0.00     0.009 A 
HETATM   21  C   UNL     1     -39.923  51.708 -52.390  1.00  0.00    -0.060 A 
HETATM   22  C   UNL     1     -39.090  50.891 -51.446  1.00  0.00     0.048 C 
HETATM   23  C   UNL     1     -40.636  52.819 -51.916  1.00  0.00     0.039 A 
BRANCH  18  24
HETATM   24  O   UNL     1     -42.416  53.913 -54.914  1.00  0.00    -0.354 OA
HETATM   25  C   UNL     1     -41.926  54.945 -55.760  1.00  0.00     0.210 C 
ENDBRANCH  18  24
ENDBRANCH  13  17
ENDBRANCH   8  11
ENDBRANCH   2   7
BRANCH   1  26
HETATM   26  C   UNL     1     -43.041  60.103 -53.600  1.00  0.00     0.256 C 
HETATM   27  N   UNL     1     -43.384  59.340 -54.713  1.00  0.00    -0.345 N 
HETATM   28  C   UNL     1     -44.466  58.348 -54.768  1.00  0.00     0.146 C 
HETATM   29  C   UNL     1     -42.394  59.181 -55.781  1.00  0.00     0.146 C 
HETATM   30  C   UNL     1     -45.170  58.380 -56.129  1.00  0.00     0.148 C 
HETATM   31  N   UNL     1     -44.230  58.308 -57.248  1.00  0.00    -0.325 N 
HETATM   32  C   UNL     1     -44.722  57.875 -58.470  1.00  0.00     0.362 C 
HETATM   33  C   UNL     1     -43.052  59.181 -57.167  1.00  0.00     0.148 C 
HETATM   34  O   UNL     1     -45.837  57.392 -58.621  1.00  0.00    -0.238 OA
HETATM   35  O   UNL     1     -41.934  60.619 -53.457  1.00  0.00    -0.267 OA
BRANCH  32  36
HETATM   36  O   UNL     1     -43.830  58.055 -59.481  1.00  0.00    -0.304 OA
BRANCH  36  37
HETATM   37  C   UNL     1     -43.594  56.924 -60.329  1.00  0.00     0.176 C 
HETATM   38  C   UNL     1     -42.743  55.902 -59.598  1.00  0.00     0.034 C 
ENDBRANCH  36  37
ENDBRANCH  32  36
ENDBRANCH   1  26
TORSDOF 7
ENDMDL
MODEL 2
REMARK VINA RESULT:      -8.4      2.183      5.708
REMARK  7 active torsions:
REMARK  status: ('A' for Active; 'I' for Inactive)
REMARK    1  A    between atoms: C_2  and  O_3 
REMARK    2  A    between atoms: O_3  and  C_4 
REMARK       I    between atoms: C_4  and  N_5 
REMARK       I    between atoms: N_8  and  C_9 
REMARK    3  A    between atoms: C_9  and  C_10 
REMARK    4  A    between atoms: C_11  and  N_12 
REMARK       I    between atoms: N_12  and  C_13 
REMARK    5  A    between atoms: C_13  and  C_14 
REMARK    6  A    between atoms: N_16  and  C_17 
REMARK    7  A    between atoms: C_18  and  O_19 
ROOT
HETATM    1  C   UNL     1     -44.630  57.311 -59.314  1.00  0.00     0.059 A 
HETATM    2  C   UNL     1     -43.610  56.496 -58.773  1.00  0.00     0.050 A 
HETATM    3  C   UNL     1     -43.609  55.139 -59.106  1.00  0.00     0.030 A 
HETATM    4  C   UNL     1     -44.593  54.603 -59.946  1.00  0.00     0.002 A 
HETATM    5  C   UNL     1     -45.614  55.409 -60.444  1.00  0.00     0.001 A 
HETATM    6  C   UNL     1     -45.642  56.760 -60.117  1.00  0.00     0.019 A 
ENDROOT
BRANCH   2   7
HETATM    7  N   UNL     1     -42.708  57.062 -57.845  1.00  0.00    -0.326 N 
HETATM    8  C   UNL     1     -42.423  56.840 -56.532  1.00  0.00     0.228 C 
HETATM    9  O   UNL     1     -41.755  57.690 -55.937  1.00  0.00    -0.273 OA
HETATM   10  H   UNL     1     -42.182  57.862 -58.208  1.00  0.00     0.169 HD
BRANCH   8  11
HETATM   11  C   UNL     1     -42.822  55.554 -55.843  1.00  0.00     0.105 C 
HETATM   12  C   UNL     1     -41.569  54.790 -55.418  1.00  0.00     0.147 C 
HETATM   13  N   UNL     1     -41.954  54.092 -54.216  1.00  0.00    -0.315 N 
HETATM   14  C   UNL     1     -43.120  54.628 -53.666  1.00  0.00     0.225 C 
HETATM   15  O   UNL     1     -43.775  54.238 -52.711  1.00  0.00    -0.273 OA
HETATM   16  C   UNL     1     -43.537  55.800 -54.521  1.00  0.00     0.119 C 
BRANCH  13  17
HETATM   17  C   UNL     1     -41.066  53.190 -53.568  1.00  0.00     0.071 A 
HETATM   18  C   UNL     1     -40.520  53.441 -52.291  1.00  0.00     0.095 A 
HETATM   19  C   UNL     1     -39.678  52.492 -51.696  1.00  0.00     0.039 A 
HETATM   20  C   UNL     1     -39.355  51.308 -52.362  1.00  0.00     0.009 A 
HETATM   21  C   UNL     1     -39.843  51.067 -53.646  1.00  0.00    -0.060 A 
HETATM   22  C   UNL     1     -39.495  49.805 -54.378  1.00  0.00     0.048 C 
HETATM   23  C   UNL     1     -40.699  52.008 -54.235  1.00  0.00     0.039 A 
BRANCH  18  24
HETATM   24  O   UNL     1     -40.703  54.690 -51.754  1.00  0.00    -0.354 OA
HETATM   25  C   UNL     1     -41.072  54.743 -50.382  1.00  0.00     0.210 C 
ENDBRANCH  18  24
ENDBRANCH  13  17
ENDBRANCH   8  11
ENDBRANCH   2   7
BRANCH   1  26
HETATM   26  C   UNL     1     -44.671  58.763 -59.007  1.00  0.00     0.256 C 
HETATM   27  N   UNL     1     -45.088  59.192 -57.749  1.00  0.00    -0.345 N 
HETATM   28  C   UNL     1     -45.911  58.417 -56.812  1.00  0.00     0.146 C 
HETATM   29  C   UNL     1     -45.078  60.629 -57.465  1.00  0.00     0.146 C 
HETATM   30  C   UNL     1     -45.462  58.650 -55.366  1.00  0.00     0.148 C 
HETATM   31  N   UNL     1     -45.350  60.071 -55.036  1.00  0.00    -0.325 N 
HETATM   32  C   UNL     1     -45.406  60.424 -53.695  1.00  0.00     0.362 C 
HETATM   33  C   UNL     1     -44.658  60.916 -56.017  1.00  0.00     0.148 C 
HETATM   34  O   UNL     1     -45.713  59.645 -52.801  1.00  0.00    -0.238 OA
HETATM   35  O   UNL     1     -44.330  59.537 -59.900  1.00  0.00    -0.267 OA
BRANCH  32  36
HETATM   36  O   UNL     1     -45.075  61.726 -53.488  1.00  0.00    -0.304 OA
BRANCH  36  37
HETATM   37  C   UNL     1     -44.156  61.986 -52.418  1.00  0.00     0.176 C 
HETATM   38  C   UNL     1     -42.806  61.373 -52.741  1.00  0.00     0.034 C 
ENDBRANCH  36  37
ENDBRANCH  32  36
ENDBRANCH   1  26
TORSDOF 7
ENDMDL
MODEL 3
REMARK VINA RESULT:      -8.3      2.220      5.627
REMARK  7 active torsions:
REMARK  status: ('A' for Active; 'I' for Inactive)
REMARK    1  A    between atoms: C_2  and  O_3 
REMARK    2  A    between atoms: O_3  and  C_4 
REMARK       I    between atoms: C_4  and  N_5 
REMARK       I    between atoms: N_8  and  C_9 
REMARK    3  A    between atoms: C_9  and  C_10 
REMARK    4  A    between atoms: C_11  and  N_12 
REMARK       I    between atoms: N_12  and  C_13 
REMARK    5  A    between atoms: C_13  and  C_14 
REMARK    6  A    between atoms: N_16  and  C_17 
REMARK    7  A    between atoms: C_18  and  O_19 
ROOT
HETATM    1  C   UNL     1     -43.590  59.718 -56.333  1.00  0.00     0.059 A 
HETATM    2  C   UNL     1     -42.651  58.664 -56.252  1.00  0.00     0.050 A 
HETATM    3  C   UNL     1     -42.736  57.637 -57.197  1.00  0.00     0.030 A 
HETATM    4  C   UNL     1     -43.725  57.652 -58.188  1.00  0.00     0.002 A 
HETATM    5  C   UNL     1     -44.666  58.677 -58.235  1.00  0.00     0.001 A 
HETATM    6  C   UNL     1     -44.608  59.704 -57.299  1.00  0.00     0.019 A 
ENDROOT
BRANCH   2   7
HETATM    7  N   UNL     1     -41.746  58.641 -55.169  1.00  0.00    -0.326 N 
HETATM    8  C   UNL     1     -41.547  57.811 -54.106  1.00  0.00     0.228 C 
HETATM    9  O   UNL     1     -40.831  58.217 -53.187  1.00  0.00    -0.273 OA
HETATM   10  H   UNL     1     -41.129  59.457 -55.121  1.00  0.00     0.169 HD
BRANCH   8  11
HETATM   11  C   UNL     1     -42.100  56.404 -54.088  1.00  0.00     0.105 C 
HETATM   12  C   UNL     1     -40.958  55.408 -53.902  1.00  0.00     0.147 C 
HETATM   13  N   UNL     1     -41.543  54.311 -53.168  1.00  0.00    -0.315 N 
HETATM   14  C   UNL     1     -42.749  54.682 -52.572  1.00  0.00     0.225 C 
HETATM   15  O   UNL     1     -43.551  53.996 -51.956  1.00  0.00    -0.273 OA
HETATM   16  C   UNL     1     -42.984  56.142 -52.876  1.00  0.00     0.119 C 
BRANCH  13  17
HETATM   17  C   UNL     1     -40.799  53.133 -52.881  1.00  0.00     0.071 A 
HETATM   18  C   UNL     1     -40.177  52.908 -51.636  1.00  0.00     0.095 A 
HETATM   19  C   UNL     1     -39.488  51.708 -51.409  1.00  0.00     0.039 A 
HETATM   20  C   UNL     1     -39.392  50.741 -52.411  1.00  0.00     0.009 A 
HETATM   21  C   UNL     1     -39.956  50.969 -53.665  1.00  0.00    -0.060 A 
HETATM   22  C   UNL     1     -39.851  49.943 -54.755  1.00  0.00     0.048 C 
HETATM   23  C   UNL     1     -40.660  52.161 -53.888  1.00  0.00     0.039 A 
BRANCH  18  24
HETATM   24  O   UNL     1     -40.128  53.954 -50.749  1.00  0.00    -0.354 OA
HETATM   25  C   UNL     1     -40.513  53.670 -49.410  1.00  0.00     0.210 C 
ENDBRANCH  18  24
ENDBRANCH  13  17
ENDBRANCH   8  11
ENDBRANCH   2   7
BRANCH   1  26
HETATM   26  C   UNL     1     -43.537  60.844 -55.365  1.00  0.00     0.256 C 
HETATM   27  N   UNL     1     -44.194  60.735 -54.142  1.00  0.00    -0.345 N 
HETATM   28  C   UNL     1     -45.304  59.819 -53.847  1.00  0.00     0.146 C 
HETATM   29  C   UNL     1     -44.088  61.847 -53.194  1.00  0.00     0.146 C 
HETATM   30  C   UNL     1     -45.195  59.269 -52.422  1.00  0.00     0.148 C 
HETATM   31  N   UNL     1     -45.004  60.323 -51.426  1.00  0.00    -0.325 N 
HETATM   32  C   UNL     1     -45.343  60.032 -50.113  1.00  0.00     0.362 C 
HETATM   33  C   UNL     1     -44.002  61.348 -51.745  1.00  0.00     0.148 C 
HETATM   34  O   UNL     1     -45.945  59.021 -49.775  1.00  0.00    -0.238 OA
HETATM   35  O   UNL     1     -42.902  61.843 -55.698  1.00  0.00    -0.267 OA
BRANCH  32  36
HETATM   36  O   UNL     1     -44.924  60.993 -49.246  1.00  0.00    -0.304 OA
BRANCH  36  37
HETATM   37  C   UNL     1     -45.822  61.319 -48.176  1.00  0.00     0.176 C 
HETATM   38  C   UNL     1     -45.145  61.066 -46.842  1.00  0.00     0.034 C 
ENDBRANCH  36  37
ENDBRANCH  32  36
ENDBRANCH   1  26
TORSDOF 7
ENDMDL
MODEL 4
REMARK VINA RESULT:      -8.1      1.788      6.658
REMARK  7 active torsions:
REMARK  status: ('A' for Active; 'I' for Inactive)
REMARK    1  A    between atoms: C_2  and  O_3 
REMARK    2  A    between atoms: O_3  and  C_4 
REMARK       I    between atoms: C_4  and  N_5 
REMARK       I    between atoms: N_8  and  C_9 
REMARK    3  A    between atoms: C_9  and  C_10 
REMARK    4  A    between atoms: C_11  and  N_12 
REMARK       I    between atoms: N_12  and  C_13 
REMARK    5  A    between atoms: C_13  and  C_14 
REMARK    6  A    between atoms: N_16  and  C_17 
REMARK    7  A    between atoms: C_18  and  O_19 
ROOT
HETATM    1  C   UNL     1     -41.683  53.637 -52.824  1.00  0.00     0.059 A 
HETATM    2  C   UNL     1     -40.865  53.530 -51.675  1.00  0.00     0.050 A 
HETATM    3  C   UNL     1     -39.756  52.682 -51.737  1.00  0.00     0.030 A 
HETATM    4  C   UNL     1     -39.469  51.956 -52.900  1.00  0.00     0.002 A 
HETATM    5  C   UNL     1     -40.302  52.042 -54.012  1.00  0.00     0.001 A 
HETATM    6  C   UNL     1     -41.418  52.871 -53.970  1.00  0.00     0.019 A 
ENDROOT
BRANCH   2   7
HETATM    7  N   UNL     1     -41.261  54.196 -50.495  1.00  0.00    -0.326 N 
HETATM    8  C   UNL     1     -41.135  55.469 -50.027  1.00  0.00     0.228 C 
HETATM    9  O   UNL     1     -41.365  55.667 -48.831  1.00  0.00    -0.273 OA
HETATM   10  H   UNL     1     -41.689  53.584 -49.793  1.00  0.00     0.169 HD
BRANCH   8  11
HETATM   11  C   UNL     1     -40.821  56.623 -50.952  1.00  0.00     0.105 C 
HETATM   12  C   UNL     1     -42.004  57.589 -50.986  1.00  0.00     0.147 C 
HETATM   13  N   UNL     1     -41.412  58.888 -51.196  1.00  0.00    -0.315 N 
HETATM   14  C   UNL     1     -40.045  58.877 -50.913  1.00  0.00     0.225 C 
HETATM   15  O   UNL     1     -39.218  59.764 -51.062  1.00  0.00    -0.273 OA
HETATM   16  C   UNL     1     -39.684  57.493 -50.433  1.00  0.00     0.119 C 
BRANCH  13  17
HETATM   17  C   UNL     1     -42.216  60.047 -51.376  1.00  0.00     0.071 A 
HETATM   18  C   UNL     1     -42.386  60.670 -52.630  1.00  0.00     0.095 A 
HETATM   19  C   UNL     1     -43.221  61.791 -52.743  1.00  0.00     0.039 A 
HETATM   20  C   UNL     1     -43.870  62.311 -51.622  1.00  0.00     0.009 A 
HETATM   21  C   UNL     1     -43.673  61.740 -50.366  1.00  0.00    -0.060 A 
HETATM   22  C   UNL     1     -44.355  62.296 -49.150  1.00  0.00     0.048 C 
HETATM   23  C   UNL     1     -42.851  60.609 -50.254  1.00  0.00     0.039 A 
BRANCH  18  24
HETATM   24  O   UNL     1     -41.587  60.251 -53.664  1.00  0.00    -0.354 OA
HETATM   25  C   UNL     1     -42.182  60.221 -54.955  1.00  0.00     0.210 C 
ENDBRANCH  18  24
ENDBRANCH  13  17
ENDBRANCH   8  11
ENDBRANCH   2   7
BRANCH   1  26
HETATM   26  C   UNL     1     -42.865  54.535 -52.820  1.00  0.00     0.256 C 
HETATM   27  N   UNL     1     -42.978  55.534 -53.784  1.00  0.00    -0.345 N 
HETATM   28  C   UNL     1     -41.866  56.105 -54.555  1.00  0.00     0.146 C 
HETATM   29  C   UNL     1     -44.176  56.377 -53.777  1.00  0.00     0.146 C 
HETATM   30  C   UNL     1     -42.294  56.400 -55.996  1.00  0.00     0.148 C 
HETATM   31  N   UNL     1     -43.535  57.172 -56.067  1.00  0.00    -0.325 N 
HETATM   32  C   UNL     1     -43.783  57.881 -57.233  1.00  0.00     0.362 C 
HETATM   33  C   UNL     1     -44.632  56.723 -55.201  1.00  0.00     0.148 C 
HETATM   34  O   UNL     1     -42.955  58.035 -58.123  1.00  0.00    -0.238 OA
HETATM   35  O   UNL     1     -43.708  54.352 -51.943  1.00  0.00    -0.267 OA
BRANCH  32  36
HETATM   36  O   UNL     1     -45.048  58.377 -57.278  1.00  0.00    -0.304 OA
BRANCH  36  37
HETATM   37  C   UNL     1     -45.575  58.656 -58.582  1.00  0.00     0.176 C 
HETATM   38  C   UNL     1     -46.563  57.575 -58.978  1.00  0.00     0.034 C 
ENDBRANCH  36  37
ENDBRANCH  32  36
ENDBRANCH   1  26
TORSDOF 7
ENDMDL
MODEL 5
REMARK VINA RESULT:      -8.0      1.314      2.155
REMARK  7 active torsions:
REMARK  status: ('A' for Active; 'I' for Inactive)
REMARK    1  A    between atoms: C_2  and  O_3 
REMARK    2  A    between atoms: O_3  and  C_4 
REMARK       I    between atoms: C_4  and  N_5 
REMARK       I    between atoms: N_8  and  C_9 
REMARK    3  A    between atoms: C_9  and  C_10 
REMARK    4  A    between atoms: C_11  and  N_12 
REMARK       I    between atoms: N_12  and  C_13 
REMARK    5  A    between atoms: C_13  and  C_14 
REMARK    6  A    between atoms: N_16  and  C_17 
REMARK    7  A    between atoms: C_18  and  O_19 
ROOT
HETATM    1  C   UNL     1     -44.296  60.348 -52.773  1.00  0.00     0.059 A 
HETATM    2  C   UNL     1     -44.035  59.808 -51.492  1.00  0.00     0.050 A 
HETATM    3  C   UNL     1     -45.110  59.665 -50.610  1.00  0.00     0.030 A 
HETATM    4  C   UNL     1     -46.403  60.052 -50.983  1.00  0.00     0.002 A 
HETATM    5  C   UNL     1     -46.641  60.616 -52.233  1.00  0.00     0.001 A 
HETATM    6  C   UNL     1     -45.585  60.778 -53.124  1.00  0.00     0.019 A 
ENDROOT
BRANCH   2   7
HETATM    7  N   UNL     1     -42.699  59.537 -51.128  1.00  0.00    -0.326 N 
HETATM    8  C   UNL     1     -41.946  58.407 -51.022  1.00  0.00     0.228 C 
HETATM    9  O   UNL     1     -40.871  58.486 -50.421  1.00  0.00    -0.273 OA
HETATM   10  H   UNL     1     -42.177  60.360 -50.810  1.00  0.00     0.169 HD
BRANCH   8  11
HETATM   11  C   UNL     1     -42.357  57.118 -51.697  1.00  0.00     0.105 C 
HETATM   12  C   UNL     1     -41.156  56.179 -51.783  1.00  0.00     0.147 C 
HETATM   13  N   UNL     1     -41.719  54.853 -51.693  1.00  0.00    -0.315 N 
HETATM   14  C   UNL     1     -43.020  54.884 -51.190  1.00  0.00     0.225 C 
HETATM   15  O   UNL     1     -43.822  53.971 -51.062  1.00  0.00    -0.273 OA
HETATM   16  C   UNL     1     -43.356  56.320 -50.869  1.00  0.00     0.119 C 
BRANCH  13  17
HETATM   17  C   UNL     1     -40.906  53.694 -51.830  1.00  0.00     0.071 A 
HETATM   18  C   UNL     1     -40.083  53.212 -50.790  1.00  0.00     0.095 A 
HETATM   19  C   UNL     1     -39.333  52.043 -50.981  1.00  0.00     0.039 A 
HETATM   20  C   UNL     1     -39.375  51.360 -52.198  1.00  0.00     0.009 A 
HETATM   21  C   UNL     1     -40.142  51.851 -53.255  1.00  0.00    -0.060 A 
HETATM   22  C   UNL     1     -40.188  51.134 -54.572  1.00  0.00     0.048 C 
HETATM   23  C   UNL     1     -40.906  53.011 -53.059  1.00  0.00     0.039 A 
BRANCH  18  24
HETATM   24  O   UNL     1     -39.919  54.009 -49.685  1.00  0.00    -0.354 OA
HETATM   25  C   UNL     1     -40.568  53.583 -48.493  1.00  0.00     0.210 C 
ENDBRANCH  18  24
ENDBRANCH  13  17
ENDBRANCH   8  11
ENDBRANCH   2   7
BRANCH   1  26
HETATM   26  C   UNL     1     -43.195  60.507 -53.756  1.00  0.00     0.256 C 
HETATM   27  N   UNL     1     -42.999  59.538 -54.737  1.00  0.00    -0.345 N 
HETATM   28  C   UNL     1     -43.468  58.148 -54.670  1.00  0.00     0.146 C 
HETATM   29  C   UNL     1     -41.929  59.745 -55.717  1.00  0.00     0.146 C 
HETATM   30  C   UNL     1     -43.932  57.660 -56.046  1.00  0.00     0.148 C 
HETATM   31  N   UNL     1     -42.942  57.911 -57.094  1.00  0.00    -0.325 N 
HETATM   32  C   UNL     1     -43.018  57.141 -58.245  1.00  0.00     0.362 C 
HETATM   33  C   UNL     1     -42.336  59.248 -57.111  1.00  0.00     0.148 C 
HETATM   34  O   UNL     1     -43.746  56.162 -58.360  1.00  0.00    -0.238 OA
HETATM   35  O   UNL     1     -42.490  61.510 -53.654  1.00  0.00    -0.267 OA
BRANCH  32  36
HETATM   36  O   UNL     1     -42.201  57.601 -59.230  1.00  0.00    -0.304 OA
BRANCH  36  37
HETATM   37  C   UNL     1     -42.803  57.788 -60.519  1.00  0.00     0.176 C 
HETATM   38  C   UNL     1     -43.914  58.817 -60.422  1.00  0.00     0.034 C 
ENDBRANCH  36  37
ENDBRANCH  32  36
ENDBRANCH   1  26
TORSDOF 7
ENDMDL
MODEL 6
REMARK VINA RESULT:      -7.7      2.180      3.351
REMARK  7 active torsions:
REMARK  status: ('A' for Active; 'I' for Inactive)
REMARK    1  A    between atoms: C_2  and  O_3 
REMARK    2  A    between atoms: O_3  and  C_4 
REMARK       I    between atoms: C_4  and  N_5 
REMARK       I    between atoms: N_8  and  C_9 
REMARK    3  A    between atoms: C_9  and  C_10 
REMARK    4  A    between atoms: C_11  and  N_12 
REMARK       I    between atoms: N_12  and  C_13 
REMARK    5  A    between atoms: C_13  and  C_14 
REMARK    6  A    between atoms: N_16  and  C_17 
REMARK    7  A    between atoms: C_18  and  O_19 
ROOT
HETATM    1  C   UNL     1     -44.225  60.226 -54.223  1.00  0.00     0.059 A 
HETATM    2  C   UNL     1     -43.942  59.128 -53.379  1.00  0.00     0.050 A 
HETATM    3  C   UNL     1     -43.092  59.340 -52.290  1.00  0.00     0.030 A 
HETATM    4  C   UNL     1     -42.533  60.601 -52.049  1.00  0.00     0.002 A 
HETATM    5  C   UNL     1     -42.790  61.666 -52.907  1.00  0.00     0.001 A 
HETATM    6  C   UNL     1     -43.625  61.476 -54.004  1.00  0.00     0.019 A 
ENDROOT
BRANCH   2   7
HETATM    7  N   UNL     1     -44.441  57.855 -53.730  1.00  0.00    -0.326 N 
HETATM    8  C   UNL     1     -43.872  56.669 -54.084  1.00  0.00     0.228 C 
HETATM    9  O   UNL     1     -44.600  55.809 -54.586  1.00  0.00    -0.273 OA
HETATM   10  H   UNL     1     -45.462  57.809 -53.796  1.00  0.00     0.169 HD
BRANCH   8  11
HETATM   11  C   UNL     1     -42.419  56.369 -53.788  1.00  0.00     0.105 C 
HETATM   12  C   UNL     1     -42.310  55.026 -53.069  1.00  0.00     0.147 C 
HETATM   13  N   UNL     1     -41.041  54.486 -53.492  1.00  0.00    -0.315 N 
HETATM   14  C   UNL     1     -40.567  55.131 -54.635  1.00  0.00     0.225 C 
HETATM   15  O   UNL     1     -39.498  54.996 -55.213  1.00  0.00    -0.273 OA
HETATM   16  C   UNL     1     -41.601  56.148 -55.053  1.00  0.00     0.119 C 
BRANCH  13  17
HETATM   17  C   UNL     1     -40.539  53.269 -52.954  1.00  0.00     0.071 A 
HETATM   18  C   UNL     1     -40.257  53.099 -51.582  1.00  0.00     0.095 A 
HETATM   19  C   UNL     1     -39.796  51.861 -51.114  1.00  0.00     0.039 A 
HETATM   20  C   UNL     1     -39.592  50.797 -51.995  1.00  0.00     0.009 A 
HETATM   21  C   UNL     1     -39.816  50.962 -53.361  1.00  0.00    -0.060 A 
HETATM   22  C   UNL     1     -39.591  49.831 -54.321  1.00  0.00     0.048 C 
HETATM   23  C   UNL     1     -40.293  52.195 -53.829  1.00  0.00     0.039 A 
BRANCH  18  24
HETATM   24  O   UNL     1     -40.284  54.215 -50.783  1.00  0.00    -0.354 OA
HETATM   25  C   UNL     1     -39.616  54.116 -49.532  1.00  0.00     0.210 C 
ENDBRANCH  18  24
ENDBRANCH  13  17
ENDBRANCH   8  11
ENDBRANCH   2   7
BRANCH   1  26
HETATM   26  C   UNL     1     -45.134  60.063 -55.386  1.00  0.00     0.256 C 
HETATM   27  N   UNL     1     -44.649  59.517 -56.572  1.00  0.00    -0.345 N 
HETATM   28  C   UNL     1     -43.238  59.476 -56.978  1.00  0.00     0.146 C 
HETATM   29  C   UNL     1     -45.582  59.333 -57.686  1.00  0.00     0.146 C 
HETATM   30  C   UNL     1     -42.916  58.166 -57.704  1.00  0.00     0.148 C 
HETATM   31  N   UNL     1     -43.862  57.874 -58.782  1.00  0.00    -0.325 N 
HETATM   32  C   UNL     1     -43.447  57.007 -59.781  1.00  0.00     0.362 C 
HETATM   33  C   UNL     1     -45.286  58.043 -58.464  1.00  0.00     0.148 C 
HETATM   34  O   UNL     1     -42.292  56.615 -59.904  1.00  0.00    -0.238 OA
HETATM   35  O   UNL     1     -46.300  60.428 -55.243  1.00  0.00    -0.267 OA
BRANCH  32  36
HETATM   36  O   UNL     1     -44.465  56.638 -60.603  1.00  0.00    -0.304 OA
BRANCH  36  37
HETATM   37  C   UNL     1     -44.546  55.243 -60.927  1.00  0.00     0.176 C 
HETATM   38  C   UNL     1     -44.725  54.430 -59.659  1.00  0.00     0.034 C 
ENDBRANCH  36  37
ENDBRANCH  32  36
ENDBRANCH   1  26
TORSDOF 7
ENDMDL
MODEL 7
REMARK VINA RESULT:      -7.7      2.849      6.088
REMARK  7 active torsions:
REMARK  status: ('A' for Active; 'I' for Inactive)
REMARK    1  A    between atoms: C_2  and  O_3 
REMARK    2  A    between atoms: O_3  and  C_4 
REMARK       I    between atoms: C_4  and  N_5 
REMARK       I    between atoms: N_8  and  C_9 
REMARK    3  A    between atoms: C_9  and  C_10 
REMARK    4  A    between atoms: C_11  and  N_12 
REMARK       I    between atoms: N_12  and  C_13 
REMARK    5  A    between atoms: C_13  and  C_14 
REMARK    6  A    between atoms: N_16  and  C_17 
REMARK    7  A    between atoms: C_18  and  O_19 
ROOT
HETATM    1  C   UNL     1     -42.026  60.305 -51.853  1.00  0.00     0.059 A 
HETATM    2  C   UNL     1     -41.453  59.337 -52.709  1.00  0.00     0.050 A 
HETATM    3  C   UNL     1     -40.509  58.460 -52.169  1.00  0.00     0.030 A 
HETATM    4  C   UNL     1     -40.139  58.544 -50.821  1.00  0.00     0.002 A 
HETATM    5  C   UNL     1     -40.683  59.524 -49.996  1.00  0.00     0.001 A 
HETATM    6  C   UNL     1     -41.617  60.415 -50.514  1.00  0.00     0.019 A 
ENDROOT
BRANCH   2   7
HETATM    7  N   UNL     1     -41.778  59.368 -54.083  1.00  0.00    -0.326 N 
HETATM    8  C   UNL     1     -42.145  58.430 -55.000  1.00  0.00     0.228 C 
HETATM    9  O   UNL     1     -42.107  58.746 -56.192  1.00  0.00    -0.273 OA
HETATM   10  H   UNL     1     -41.659  60.287 -54.521  1.00  0.00     0.169 HD
BRANCH   8  11
HETATM   11  C   UNL     1     -42.677  57.078 -54.579  1.00  0.00     0.105 C 
HETATM   12  C   UNL     1     -41.510  56.125 -54.329  1.00  0.00     0.147 C 
HETATM   13  N   UNL     1     -41.974  55.242 -53.286  1.00  0.00    -0.315 N 
HETATM   14  C   UNL     1     -43.087  55.769 -52.629  1.00  0.00     0.225 C 
HETATM   15  O   UNL     1     -43.787  55.263 -51.764  1.00  0.00    -0.273 OA
HETATM   16  C   UNL     1     -43.377  57.124 -53.227  1.00  0.00     0.119 C 
BRANCH  13  17
HETATM   17  C   UNL     1     -41.187  54.144 -52.842  1.00  0.00     0.071 A 
HETATM   18  C   UNL     1     -40.622  54.084 -51.551  1.00  0.00     0.095 A 
HETATM   19  C   UNL     1     -39.884  52.956 -51.166  1.00  0.00     0.039 A 
HETATM   20  C   UNL     1     -39.683  51.898 -52.054  1.00  0.00     0.009 A 
HETATM   21  C   UNL     1     -40.190  51.963 -53.352  1.00  0.00    -0.060 A 
HETATM   22  C   UNL     1     -39.972  50.840 -54.322  1.00  0.00     0.048 C 
HETATM   23  C   UNL     1     -40.942  53.084 -53.733  1.00  0.00     0.039 A 
BRANCH  18  24
HETATM   24  O   UNL     1     -40.677  55.216 -50.777  1.00  0.00    -0.354 OA
HETATM   25  C   UNL     1     -41.023  55.035 -49.410  1.00  0.00     0.210 C 
ENDBRANCH  18  24
ENDBRANCH  13  17
ENDBRANCH   8  11
ENDBRANCH   2   7
BRANCH   1  26
HETATM   26  C   UNL     1     -43.047  61.252 -52.369  1.00  0.00     0.256 C 
HETATM   27  N   UNL     1     -44.213  61.476 -51.643  1.00  0.00    -0.345 N 
HETATM   28  C   UNL     1     -44.778  60.570 -50.633  1.00  0.00     0.146 C 
HETATM   29  C   UNL     1     -45.181  62.446 -52.160  1.00  0.00     0.146 C 
HETATM   30  C   UNL     1     -45.385  61.358 -49.469  1.00  0.00     0.148 C 
HETATM   31  N   UNL     1     -46.304  62.404 -49.919  1.00  0.00    -0.325 N 
HETATM   32  C   UNL     1     -47.242  62.867 -49.009  1.00  0.00     0.362 C 
HETATM   33  C   UNL     1     -45.839  63.247 -51.028  1.00  0.00     0.148 C 
HETATM   34  O   UNL     1     -47.457  62.337 -47.925  1.00  0.00    -0.238 OA
HETATM   35  O   UNL     1     -42.808  61.806 -53.441  1.00  0.00    -0.267 OA
BRANCH  32  36
HETATM   36  O   UNL     1     -47.890  63.978 -49.452  1.00  0.00    -0.304 OA
BRANCH  36  37
HETATM   37  C   UNL     1     -49.298  63.841 -49.686  1.00  0.00     0.176 C 
HETATM   38  C   UNL     1     -49.556  63.657 -51.170  1.00  0.00     0.034 C 
ENDBRANCH  36  37
ENDBRANCH  32  36
ENDBRANCH   1  26
TORSDOF 7
ENDMDL
MODEL 8
REMARK VINA RESULT:      -7.7      1.964      6.862
REMARK  7 active torsions:
REMARK  status: ('A' for Active; 'I' for Inactive)
REMARK    1  A    between atoms: C_2  and  O_3 
REMARK    2  A    between atoms: O_3  and  C_4 
REMARK       I    between atoms: C_4  and  N_5 
REMARK       I    between atoms: N_8  and  C_9 
REMARK    3  A    between atoms: C_9  and  C_10 
REMARK    4  A    between atoms: C_11  and  N_12 
REMARK       I    between atoms: N_12  and  C_13 
REMARK    5  A    between atoms: C_13  and  C_14 
REMARK    6  A    between atoms: N_16  and  C_17 
REMARK    7  A    between atoms: C_18  and  O_19 
ROOT
HETATM    1  C   UNL     1     -42.336  54.352 -53.890  1.00  0.00     0.059 A 
HETATM    2  C   UNL     1     -42.306  54.325 -52.477  1.00  0.00     0.050 A 
HETATM    3  C   UNL     1     -41.245  53.662 -51.856  1.00  0.00     0.030 A 
HETATM    4  C   UNL     1     -40.245  53.038 -52.614  1.00  0.00     0.002 A 
HETATM    5  C   UNL     1     -40.305  53.040 -54.004  1.00  0.00     0.001 A 
HETATM    6  C   UNL     1     -41.358  53.685 -54.644  1.00  0.00     0.019 A 
ENDROOT
BRANCH   2   7
HETATM    7  N   UNL     1     -43.395  54.873 -51.764  1.00  0.00    -0.326 N 
HETATM    8  C   UNL     1     -43.661  56.090 -51.212  1.00  0.00     0.228 C 
HETATM    9  O   UNL     1     -44.606  56.168 -50.422  1.00  0.00    -0.273 OA
HETATM   10  H   UNL     1     -44.137  54.200 -51.551  1.00  0.00     0.169 HD
BRANCH   8  11
HETATM   11  C   UNL     1     -42.894  57.328 -51.620  1.00  0.00     0.105 C 
HETATM   12  C   UNL     1     -43.773  58.562 -51.424  1.00  0.00     0.147 C 
HETATM   13  N   UNL     1     -42.850  59.619 -51.088  1.00  0.00    -0.315 N 
HETATM   14  C   UNL     1     -41.613  59.110 -50.689  1.00  0.00     0.225 C 
HETATM   15  O   UNL     1     -40.581  59.707 -50.421  1.00  0.00    -0.273 OA
HETATM   16  C   UNL     1     -41.707  57.604 -50.706  1.00  0.00     0.119 C 
BRANCH  13  17
HETATM   17  C   UNL     1     -43.292  60.961 -50.920  1.00  0.00     0.071 A 
HETATM   18  C   UNL     1     -43.270  61.908 -51.964  1.00  0.00     0.095 A 
HETATM   19  C   UNL     1     -43.752  63.205 -51.738  1.00  0.00     0.039 A 
HETATM   20  C   UNL     1     -44.237  63.576 -50.483  1.00  0.00     0.009 A 
HETATM   21  C   UNL     1     -44.218  62.668 -49.424  1.00  0.00    -0.060 A 
HETATM   22  C   UNL     1     -44.725  63.057 -48.067  1.00  0.00     0.048 C 
HETATM   23  C   UNL     1     -43.751  61.366 -49.654  1.00  0.00     0.039 A 
BRANCH  18  24
HETATM   24  O   UNL     1     -42.613  61.568 -53.121  1.00  0.00    -0.354 OA
HETATM   25  C   UNL     1     -43.426  61.291 -54.254  1.00  0.00     0.210 C 
ENDBRANCH  18  24
ENDBRANCH  13  17
ENDBRANCH   8  11
ENDBRANCH   2   7
BRANCH   1  26
HETATM   26  C   UNL     1     -43.432  55.057 -54.603  1.00  0.00     0.256 C 
HETATM   27  N   UNL     1     -43.215  56.332 -55.119  1.00  0.00    -0.345 N 
HETATM   28  C   UNL     1     -42.169  57.264 -54.677  1.00  0.00     0.146 C 
HETATM   29  C   UNL     1     -44.304  56.982 -55.850  1.00  0.00     0.146 C 
HETATM   30  C   UNL     1     -41.595  58.044 -55.864  1.00  0.00     0.148 C 
HETATM   31  N   UNL     1     -42.636  58.655 -56.690  1.00  0.00    -0.325 N 
HETATM   32  C   UNL     1     -42.271  59.728 -57.490  1.00  0.00     0.362 C 
HETATM   33  C   UNL     1     -43.778  57.800 -57.038  1.00  0.00     0.148 C 
HETATM   34  O   UNL     1     -41.188  60.294 -57.414  1.00  0.00    -0.238 OA
HETATM   35  O   UNL     1     -44.507  54.467 -54.704  1.00  0.00    -0.267 OA
BRANCH  32  36
HETATM   36  O   UNL     1     -43.249  60.074 -58.370  1.00  0.00    -0.304 OA
BRANCH  36  37
HETATM   37  C   UNL     1     -42.832  60.310 -59.722  1.00  0.00     0.176 C 
HETATM   38  C   UNL     1     -42.459  58.995 -60.381  1.00  0.00     0.034 C 
ENDBRANCH  36  37
ENDBRANCH  32  36
ENDBRANCH   1  26
TORSDOF 7
ENDMDL
MODEL 9
REMARK VINA RESULT:      -7.3      2.404      5.622
REMARK  7 active torsions:
REMARK  status: ('A' for Active; 'I' for Inactive)
REMARK    1  A    between atoms: C_2  and  O_3 
REMARK    2  A    between atoms: O_3  and  C_4 
REMARK       I    between atoms: C_4  and  N_5 
REMARK       I    between atoms: N_8  and  C_9 
REMARK    3  A    between atoms: C_9  and  C_10 
REMARK    4  A    between atoms: C_11  and  N_12 
REMARK       I    between atoms: N_12  and  C_13 
REMARK    5  A    between atoms: C_13  and  C_14 
REMARK    6  A    between atoms: N_16  and  C_17 
REMARK    7  A    between atoms: C_18  and  O_19 
ROOT
HETATM    1  C   UNL     1     -43.461  61.335 -57.030  1.00  0.00     0.059 A 
HETATM    2  C   UNL     1     -42.435  60.401 -56.758  1.00  0.00     0.050 A 
HETATM    3  C   UNL     1     -42.098  59.487 -57.759  1.00  0.00     0.030 A 
HETATM    4  C   UNL     1     -42.763  59.493 -58.992  1.00  0.00     0.002 A 
HETATM    5  C   UNL     1     -43.796  60.394 -59.235  1.00  0.00     0.001 A 
HETATM    6  C   UNL     1     -44.156  61.306 -58.249  1.00  0.00     0.019 A 
ENDROOT
BRANCH   2   7
HETATM    7  N   UNL     1     -41.875  60.365 -55.462  1.00  0.00    -0.326 N 
HETATM    8  C   UNL     1     -41.755  59.410 -54.498  1.00  0.00     0.228 C 
HETATM    9  O   UNL     1     -41.438  59.776 -53.363  1.00  0.00    -0.273 OA
HETATM   10  H   UNL     1     -41.527  61.270 -55.131  1.00  0.00     0.169 HD
BRANCH   8  11
HETATM   11  C   UNL     1     -41.906  57.940 -54.819  1.00  0.00     0.105 C 
HETATM   12  C   UNL     1     -41.113  57.112 -53.810  1.00  0.00     0.147 C 
HETATM   13  N   UNL     1     -41.856  55.881 -53.681  1.00  0.00    -0.315 N 
HETATM   14  C   UNL     1     -43.156  56.016 -54.171  1.00  0.00     0.225 C 
HETATM   15  O   UNL     1     -44.026  55.167 -54.300  1.00  0.00    -0.273 OA
HETATM   16  C   UNL     1     -43.333  57.446 -54.622  1.00  0.00     0.119 C 
BRANCH  13  17
HETATM   17  C   UNL     1     -41.373  54.806 -52.885  1.00  0.00     0.071 A 
HETATM   18  C   UNL     1     -41.543  54.756 -51.486  1.00  0.00     0.095 A 
HETATM   19  C   UNL     1     -41.072  53.649 -50.767  1.00  0.00     0.039 A 
HETATM   20  C   UNL     1     -40.415  52.603 -51.418  1.00  0.00     0.009 A 
HETATM   21  C   UNL     1     -40.192  52.660 -52.793  1.00  0.00    -0.060 A 
HETATM   22  C   UNL     1     -39.478  51.549 -53.505  1.00  0.00     0.048 C 
HETATM   23  C   UNL     1     -40.678  53.759 -53.516  1.00  0.00     0.039 A 
BRANCH  18  24
HETATM   24  O   UNL     1     -42.017  55.882 -50.860  1.00  0.00    -0.354 OA
HETATM   25  C   UNL     1     -41.061  56.672 -50.165  1.00  0.00     0.210 C 
ENDBRANCH  18  24
ENDBRANCH  13  17
ENDBRANCH   8  11
ENDBRANCH   2   7
BRANCH   1  26
HETATM   26  C   UNL     1     -43.849  62.340 -56.008  1.00  0.00     0.256 C 
HETATM   27  N   UNL     1     -44.644  61.959 -54.930  1.00  0.00    -0.345 N 
HETATM   28  C   UNL     1     -45.518  60.779 -54.889  1.00  0.00     0.146 C 
HETATM   29  C   UNL     1     -44.976  62.966 -53.919  1.00  0.00     0.146 C 
HETATM   30  C   UNL     1     -45.503  60.135 -53.499  1.00  0.00     0.148 C 
HETATM   31  N   UNL     1     -45.746  61.102 -52.429  1.00  0.00    -0.325 N 
HETATM   32  C   UNL     1     -46.205  60.612 -51.215  1.00  0.00     0.362 C 
HETATM   33  C   UNL     1     -44.998  62.363 -52.507  1.00  0.00     0.148 C 
HETATM   34  O   UNL     1     -46.577  59.457 -51.046  1.00  0.00    -0.238 OA
HETATM   35  O   UNL     1     -43.443  63.490 -56.168  1.00  0.00    -0.267 OA
BRANCH  32  36
HETATM   36  O   UNL     1     -46.186  61.555 -50.236  1.00  0.00    -0.304 OA
BRANCH  36  37
HETATM   37  C   UNL     1     -45.616  61.158 -48.981  1.00  0.00     0.176 C 
HETATM   38  C   UNL     1     -44.114  61.364 -49.012  1.00  0.00     0.034 C 
ENDBRANCH  36  37
ENDBRANCH  32  36
ENDBRANCH   1  26
TORSDOF 7
ENDMDL
MODEL 10
REMARK VINA RESULT:      -7.3      1.871      2.577
REMARK  7 active torsions:
REMARK  status: ('A' for Active; 'I' for Inactive)
REMARK    1  A    between atoms: C_2  and  O_3 
REMARK    2  A    between atoms: O_3  and  C_4 
REMARK       I    between atoms: C_4  and  N_5 
REMARK       I    between atoms: N_8  and  C_9 
REMARK    3  A    between atoms: C_9  and  C_10 
REMARK    4  A    between atoms: C_11  and  N_12 
REMARK       I    between atoms: N_12  and  C_13 
REMARK    5  A    between atoms: C_13  and  C_14 
REMARK    6  A    between atoms: N_16  and  C_17 
REMARK    7  A    between atoms: C_18  and  O_19 
ROOT
HETATM    1  C   UNL     1     -44.481  61.390 -52.156  1.00  0.00     0.059 A 
HETATM    2  C   UNL     1     -44.347  60.698 -50.930  1.00  0.00     0.050 A 
HETATM    3  C   UNL     1     -43.516  61.252 -49.953  1.00  0.00     0.030 A 
HETATM    4  C   UNL     1     -42.833  62.452 -50.185  1.00  0.00     0.002 A 
HETATM    5  C   UNL     1     -42.944  63.105 -51.409  1.00  0.00     0.001 A 
HETATM    6  C   UNL     1     -43.756  62.567 -52.402  1.00  0.00     0.019 A 
ENDROOT
BRANCH   2   7
HETATM    7  N   UNL     1     -44.969  59.439 -50.789  1.00  0.00    -0.326 N 
HETATM    8  C   UNL     1     -44.583  58.151 -51.011  1.00  0.00     0.228 C 
HETATM    9  O   UNL     1     -45.461  57.284 -51.034  1.00  0.00    -0.273 OA
HETATM   10  H   UNL     1     -45.955  59.487 -50.514  1.00  0.00     0.169 HD
BRANCH   8  11
HETATM   11  C   UNL     1     -43.124  57.773 -51.130  1.00  0.00     0.105 C 
HETATM   12  C   UNL     1     -43.007  56.326 -51.605  1.00  0.00     0.147 C 
HETATM   13  N   UNL     1     -41.791  56.292 -52.381  1.00  0.00    -0.315 N 
HETATM   14  C   UNL     1     -41.381  57.576 -52.744  1.00  0.00     0.225 C 
HETATM   15  O   UNL     1     -40.362  57.929 -53.320  1.00  0.00    -0.273 OA
HETATM   16  C   UNL     1     -42.408  58.552 -52.224  1.00  0.00     0.119 C 
BRANCH  13  17
HETATM   17  C   UNL     1     -41.292  55.075 -52.921  1.00  0.00     0.071 A 
HETATM   18  C   UNL     1     -41.355  54.767 -54.296  1.00  0.00     0.095 A 
HETATM   19  C   UNL     1     -40.814  53.563 -54.766  1.00  0.00     0.039 A 
HETATM   20  C   UNL     1     -40.230  52.652 -53.884  1.00  0.00     0.009 A 
HETATM   21  C   UNL     1     -40.205  52.915 -52.515  1.00  0.00    -0.060 A 
HETATM   22  C   UNL     1     -39.591  51.941 -51.554  1.00  0.00     0.048 C 
HETATM   23  C   UNL     1     -40.732  54.127 -52.046  1.00  0.00     0.039 A 
BRANCH  18  24
HETATM   24  O   UNL     1     -42.103  55.591 -55.100  1.00  0.00    -0.354 OA
HETATM   25  C   UNL     1     -43.496  55.316 -55.171  1.00  0.00     0.210 C 
ENDBRANCH  18  24
ENDBRANCH  13  17
ENDBRANCH   8  11
ENDBRANCH   2   7
BRANCH   1  26
HETATM   26  C   UNL     1     -45.363  60.856 -53.225  1.00  0.00     0.256 C 
HETATM   27  N   UNL     1     -44.807  60.407 -54.420  1.00  0.00    -0.345 N 
HETATM   28  C   UNL     1     -43.489  60.789 -54.946  1.00  0.00     0.146 C 
HETATM   29  C   UNL     1     -45.701  59.849 -55.438  1.00  0.00     0.146 C 
HETATM   30  C   UNL     1     -42.808  59.601 -55.631  1.00  0.00     0.148 C 
HETATM   31  N   UNL     1     -43.677  58.941 -56.606  1.00  0.00    -0.325 N 
HETATM   32  C   UNL     1     -43.069  58.180 -57.594  1.00  0.00     0.362 C 
HETATM   33  C   UNL     1     -45.053  58.667 -56.173  1.00  0.00     0.148 C 
HETATM   34  O   UNL     1     -41.861  58.171 -57.797  1.00  0.00    -0.238 OA
HETATM   35  O   UNL     1     -46.572  60.837 -53.000  1.00  0.00    -0.267 OA
BRANCH  32  36
HETATM   36  O   UNL     1     -43.964  57.442 -58.303  1.00  0.00    -0.304 OA
BRANCH  36  37
HETATM   37  C   UNL     1     -43.591  56.086 -58.582  1.00  0.00     0.176 C 
HETATM   38  C   UNL     1     -43.325  55.921 -60.066  1.00  0.00     0.034 C 
ENDBRANCH  36  37
ENDBRANCH  32  36
ENDBRANCH   1  26
TORSDOF 7
ENDMDL
