MODEL 1
REMARK VINA RESULT:      -7.8      0.000      0.000
REMARK  8 active torsions:
REMARK  status: ('A' for Active; 'I' for Inactive)
REMARK    1  A    between atoms: O_2  and  C_3 
REMARK    2  A    between atoms: C_4  and  O_5 
REMARK    3  A    between atoms: C_8  and  N_9 
REMARK       I    between atoms: N_9  and  C_10 
REMARK    4  A    between atoms: C_10  and  C_11 
REMARK       I    between atoms: C_11  and  N_12 
REMARK    5  A    between atoms: N_12  and  C_13 
REMARK    6  A    between atoms: C_13  and  C_14 
REMARK    7  A    between atoms: C_14  and  S_15 
REMARK    8  A    between atoms: S_15  and  C_16 
ROOT
HETATM    1  C   UNL     1     -42.926  56.774 -54.988  1.00  0.00     0.309 C 
HETATM    2  N   UNL     1     -43.156  56.675 -56.338  1.00  0.00    -0.351 N 
HETATM    3  O   UNL     1     -42.833  57.812 -54.347  1.00  0.00    -0.262 OA
HETATM    4  H   UNL     1     -43.123  55.740 -56.740  1.00  0.00     0.162 HD
ENDROOT
BRANCH   1   5
HETATM    5  C   UNL     1     -42.739  55.415 -54.277  1.00  0.00     0.313 C 
HETATM    6  N   UNL     1     -41.429  55.218 -53.898  1.00  0.00    -0.319 N 
HETATM    7  H   UNL     1     -40.808  55.992 -54.127  1.00  0.00     0.169 HD
HETATM    8  O   UNL     1     -43.707  54.681 -54.144  1.00  0.00    -0.262 OA
BRANCH   6   9
HETATM    9  C   UNL     1     -40.865  54.088 -53.280  1.00  0.00     0.037 A 
HETATM   10  C   UNL     1     -40.367  52.987 -53.983  1.00  0.00     0.069 A 
HETATM   11  C   UNL     1     -39.800  51.900 -53.302  1.00  0.00     0.103 A 
HETATM   12  C   UNL     1     -39.723  51.927 -51.898  1.00  0.00     0.101 A 
HETATM   13  C   UNL     1     -40.243  53.015 -51.194  1.00  0.00     0.042 A 
HETATM   14  C   UNL     1     -40.807  54.091 -51.883  1.00  0.00     0.032 A 
BRANCH  11  15
HETATM   15  O   UNL     1     -39.281  50.785 -53.910  1.00  0.00    -0.353 OA
HETATM   16  C   UNL     1     -40.195  49.879 -54.514  1.00  0.00     0.210 C 
ENDBRANCH  11  15
BRANCH  12  17
HETATM   17  O   UNL     1     -39.174  50.831 -51.278  1.00  0.00    -0.353 OA
HETATM   18  C   UNL     1     -40.071  50.086 -50.462  1.00  0.00     0.210 C 
ENDBRANCH  12  17
ENDBRANCH   6   9
ENDBRANCH   1   5
BRANCH   2  19
HETATM   19  C   UNL     1     -43.248  57.821 -57.227  1.00  0.00     0.144 C 
BRANCH  19  20
HETATM   20  C   UNL     1     -44.079  57.566 -58.528  1.00  0.00     0.033 C 
HETATM   21  C   UNL     1     -43.598  58.533 -59.631  1.00  0.00     0.049 C 
HETATM   22  C   UNL     1     -42.218  58.146 -60.156  1.00  0.00     0.169 C 
HETATM   23  O   UNL     1     -42.210  56.795 -60.608  1.00  0.00    -0.391 OA
HETATM   24  C   UNL     1     -42.516  55.865 -59.570  1.00  0.00     0.169 C 
HETATM   25  C   UNL     1     -43.920  56.115 -59.027  1.00  0.00     0.049 C 
BRANCH  20  26
HETATM   26  S   UNL     1     -45.858  57.944 -58.050  1.00  0.00    -0.118 SA
BRANCH  26  27
HETATM   27  C   UNL     1     -46.745  57.847 -59.591  1.00  0.00     0.001 A 
HETATM   28  C   UNL     1     -47.020  56.605 -60.170  1.00  0.00     0.018 A 
HETATM   29  C   UNL     1     -47.749  56.527 -61.359  1.00  0.00     0.001 A 
HETATM   30  C   UNL     1     -48.225  57.689 -61.963  1.00  0.00     0.000 A 
HETATM   31  C   UNL     1     -47.982  58.929 -61.375  1.00  0.00     0.001 A 
HETATM   32  C   UNL     1     -47.253  59.006 -60.186  1.00  0.00     0.018 A 
ENDBRANCH  26  27
ENDBRANCH  20  26
ENDBRANCH  19  20
ENDBRANCH   2  19
TORSDOF 8
ENDMDL
MODEL 2
REMARK VINA RESULT:      -7.7      3.833      5.636
REMARK  8 active torsions:
REMARK  status: ('A' for Active; 'I' for Inactive)
REMARK    1  A    between atoms: O_2  and  C_3 
REMARK    2  A    between atoms: C_4  and  O_5 
REMARK    3  A    between atoms: C_8  and  N_9 
REMARK       I    between atoms: N_9  and  C_10 
REMARK    4  A    between atoms: C_10  and  C_11 
REMARK       I    between atoms: C_11  and  N_12 
REMARK    5  A    between atoms: N_12  and  C_13 
REMARK    6  A    between atoms: C_13  and  C_14 
REMARK    7  A    between atoms: C_14  and  S_15 
REMARK    8  A    between atoms: S_15  and  C_16 
ROOT
HETATM    1  C   UNL     1     -43.703  56.644 -51.123  1.00  0.00     0.309 C 
HETATM    2  N   UNL     1     -42.821  57.630 -51.493  1.00  0.00    -0.351 N 
HETATM    3  O   UNL     1     -44.824  56.815 -50.663  1.00  0.00    -0.262 OA
HETATM    4  H   UNL     1     -41.892  57.327 -51.781  1.00  0.00     0.162 HD
ENDROOT
BRANCH   1   5
HETATM    5  C   UNL     1     -43.156  55.209 -51.293  1.00  0.00     0.313 C 
HETATM    6  N   UNL     1     -42.026  55.189 -52.082  1.00  0.00    -0.319 N 
HETATM    7  H   UNL     1     -41.728  56.106 -52.408  1.00  0.00     0.169 HD
HETATM    8  O   UNL     1     -43.751  54.284 -50.760  1.00  0.00    -0.262 OA
BRANCH   6   9
HETATM    9  C   UNL     1     -41.282  54.072 -52.503  1.00  0.00     0.037 A 
HETATM   10  C   UNL     1     -40.612  53.212 -51.627  1.00  0.00     0.069 A 
HETATM   11  C   UNL     1     -39.905  52.104 -52.115  1.00  0.00     0.103 A 
HETATM   12  C   UNL     1     -39.880  51.853 -53.499  1.00  0.00     0.101 A 
HETATM   13  C   UNL     1     -40.528  52.726 -54.375  1.00  0.00     0.042 A 
HETATM   14  C   UNL     1     -41.228  53.827 -53.877  1.00  0.00     0.032 A 
BRANCH  11  15
HETATM   15  O   UNL     1     -39.226  51.206 -51.331  1.00  0.00    -0.353 OA
HETATM   16  C   UNL     1     -39.994  50.312 -50.538  1.00  0.00     0.210 C 
ENDBRANCH  11  15
BRANCH  12  17
HETATM   17  O   UNL     1     -39.159  50.766 -53.927  1.00  0.00    -0.353 OA
HETATM   18  C   UNL     1     -39.917  49.759 -54.588  1.00  0.00     0.210 C 
ENDBRANCH  12  17
ENDBRANCH   6   9
ENDBRANCH   1   5
BRANCH   2  19
HETATM   19  C   UNL     1     -43.076  59.048 -51.314  1.00  0.00     0.144 C 
BRANCH  19  20
HETATM   20  C   UNL     1     -43.083  59.877 -52.641  1.00  0.00     0.033 C 
HETATM   21  C   UNL     1     -44.294  59.448 -53.497  1.00  0.00     0.049 C 
HETATM   22  C   UNL     1     -45.609  59.949 -52.904  1.00  0.00     0.169 C 
HETATM   23  O   UNL     1     -45.574  61.361 -52.719  1.00  0.00    -0.391 OA
HETATM   24  C   UNL     1     -44.547  61.775 -51.819  1.00  0.00     0.169 C 
HETATM   25  C   UNL     1     -43.174  61.391 -52.364  1.00  0.00     0.049 C 
BRANCH  20  26
HETATM   26  S   UNL     1     -41.474  59.425 -53.504  1.00  0.00    -0.118 SA
BRANCH  26  27
HETATM   27  C   UNL     1     -42.003  58.658 -55.021  1.00  0.00     0.001 A 
HETATM   28  C   UNL     1     -42.168  59.423 -56.179  1.00  0.00     0.018 A 
HETATM   29  C   UNL     1     -42.545  58.814 -57.379  1.00  0.00     0.001 A 
HETATM   30  C   UNL     1     -42.739  57.436 -57.432  1.00  0.00     0.000 A 
HETATM   31  C   UNL     1     -42.546  56.662 -56.288  1.00  0.00     0.001 A 
HETATM   32  C   UNL     1     -42.169  57.271 -55.089  1.00  0.00     0.018 A 
ENDBRANCH  26  27
ENDBRANCH  20  26
ENDBRANCH  19  20
ENDBRANCH   2  19
TORSDOF 8
ENDMDL
MODEL 3
REMARK VINA RESULT:      -7.6      0.748      1.954
REMARK  8 active torsions:
REMARK  status: ('A' for Active; 'I' for Inactive)
REMARK    1  A    between atoms: O_2  and  C_3 
REMARK    2  A    between atoms: C_4  and  O_5 
REMARK    3  A    between atoms: C_8  and  N_9 
REMARK       I    between atoms: N_9  and  C_10 
REMARK    4  A    between atoms: C_10  and  C_11 
REMARK       I    between atoms: C_11  and  N_12 
REMARK    5  A    between atoms: N_12  and  C_13 
REMARK    6  A    between atoms: C_13  and  C_14 
REMARK    7  A    between atoms: C_14  and  S_15 
REMARK    8  A    between atoms: S_15  and  C_16 
ROOT
HETATM    1  C   UNL     1     -43.423  56.638 -55.047  1.00  0.00     0.309 C 
HETATM    2  N   UNL     1     -43.050  56.653 -56.369  1.00  0.00    -0.351 N 
HETATM    3  O   UNL     1     -43.923  57.569 -54.429  1.00  0.00    -0.262 OA
HETATM    4  H   UNL     1     -42.569  55.825 -56.717  1.00  0.00     0.162 HD
ENDROOT
BRANCH   1   5
HETATM    5  C   UNL     1     -43.124  55.309 -54.320  1.00  0.00     0.313 C 
HETATM    6  N   UNL     1     -41.787  55.194 -54.004  1.00  0.00    -0.319 N 
HETATM    7  H   UNL     1     -41.223  55.996 -54.281  1.00  0.00     0.169 HD
HETATM    8  O   UNL     1     -44.041  54.525 -54.123  1.00  0.00    -0.262 OA
BRANCH   6   9
HETATM    9  C   UNL     1     -41.130  54.112 -53.393  1.00  0.00     0.037 A 
HETATM   10  C   UNL     1     -40.978  53.978 -52.010  1.00  0.00     0.069 A 
HETATM   11  C   UNL     1     -40.327  52.860 -51.467  1.00  0.00     0.103 A 
HETATM   12  C   UNL     1     -39.834  51.862 -52.326  1.00  0.00     0.101 A 
HETATM   13  C   UNL     1     -39.964  52.007 -53.708  1.00  0.00     0.042 A 
HETATM   14  C   UNL     1     -40.613  53.125 -54.237  1.00  0.00     0.032 A 
BRANCH  11  15
HETATM   15  O   UNL     1     -40.139  52.644 -50.125  1.00  0.00    -0.353 OA
HETATM   16  C   UNL     1     -40.251  53.762 -49.256  1.00  0.00     0.210 C 
ENDBRANCH  11  15
BRANCH  12  17
HETATM   17  O   UNL     1     -39.190  50.797 -51.745  1.00  0.00    -0.353 OA
HETATM   18  C   UNL     1     -39.598  49.516 -52.212  1.00  0.00     0.210 C 
ENDBRANCH  12  17
ENDBRANCH   6   9
ENDBRANCH   1   5
BRANCH   2  19
HETATM   19  C   UNL     1     -43.130  57.830 -57.217  1.00  0.00     0.144 C 
BRANCH  19  20
HETATM   20  C   UNL     1     -43.997  57.641 -58.505  1.00  0.00     0.033 C 
HETATM   21  C   UNL     1     -43.517  58.634 -59.586  1.00  0.00     0.049 C 
HETATM   22  C   UNL     1     -42.161  58.231 -60.158  1.00  0.00     0.169 C 
HETATM   23  O   UNL     1     -42.198  56.896 -60.655  1.00  0.00    -0.391 OA
HETATM   24  C   UNL     1     -42.504  55.938 -59.643  1.00  0.00     0.169 C 
HETATM   25  C   UNL     1     -43.888  56.206 -59.057  1.00  0.00     0.049 C 
BRANCH  20  26
HETATM   26  S   UNL     1     -45.755  58.047 -57.971  1.00  0.00    -0.118 SA
BRANCH  26  27
HETATM   27  C   UNL     1     -46.703  57.900 -59.472  1.00  0.00     0.001 A 
HETATM   28  C   UNL     1     -47.123  59.044 -60.156  1.00  0.00     0.018 A 
HETATM   29  C   UNL     1     -47.833  58.930 -61.354  1.00  0.00     0.001 A 
HETATM   30  C   UNL     1     -48.108  57.671 -61.883  1.00  0.00     0.000 A 
HETATM   31  C   UNL     1     -47.665  56.526 -61.223  1.00  0.00     0.001 A 
HETATM   32  C   UNL     1     -46.956  56.641 -60.026  1.00  0.00     0.018 A 
ENDBRANCH  26  27
ENDBRANCH  20  26
ENDBRANCH  19  20
ENDBRANCH   2  19
TORSDOF 8
ENDMDL
MODEL 4
REMARK VINA RESULT:      -7.6      2.761      9.477
REMARK  8 active torsions:
REMARK  status: ('A' for Active; 'I' for Inactive)
REMARK    1  A    between atoms: O_2  and  C_3 
REMARK    2  A    between atoms: C_4  and  O_5 
REMARK    3  A    between atoms: C_8  and  N_9 
REMARK       I    between atoms: N_9  and  C_10 
REMARK    4  A    between atoms: C_10  and  C_11 
REMARK       I    between atoms: C_11  and  N_12 
REMARK    5  A    between atoms: N_12  and  C_13 
REMARK    6  A    between atoms: C_13  and  C_14 
REMARK    7  A    between atoms: C_14  and  S_15 
REMARK    8  A    between atoms: S_15  and  C_16 
ROOT
HETATM    1  C   UNL     1     -41.456  58.181 -54.074  1.00  0.00     0.309 C 
HETATM    2  N   UNL     1     -41.911  57.023 -53.493  1.00  0.00    -0.351 N 
HETATM    3  O   UNL     1     -40.581  58.914 -53.633  1.00  0.00    -0.262 OA
HETATM    4  H   UNL     1     -42.704  56.567 -53.942  1.00  0.00     0.162 HD
ENDROOT
BRANCH   1   5
HETATM    5  C   UNL     1     -42.181  58.558 -55.385  1.00  0.00     0.313 C 
HETATM    6  N   UNL     1     -43.159  57.640 -55.704  1.00  0.00    -0.319 N 
HETATM    7  H   UNL     1     -43.257  56.884 -55.030  1.00  0.00     0.169 HD
HETATM    8  O   UNL     1     -41.828  59.561 -55.988  1.00  0.00    -0.262 OA
BRANCH   6   9
HETATM    9  C   UNL     1     -43.987  57.615 -56.840  1.00  0.00     0.037 A 
HETATM   10  C   UNL     1     -43.720  56.845 -57.977  1.00  0.00     0.069 A 
HETATM   11  C   UNL     1     -44.601  56.852 -59.068  1.00  0.00     0.103 A 
HETATM   12  C   UNL     1     -45.768  57.634 -59.010  1.00  0.00     0.101 A 
HETATM   13  C   UNL     1     -46.022  58.422 -57.886  1.00  0.00     0.042 A 
HETATM   14  C   UNL     1     -45.137  58.408 -56.806  1.00  0.00     0.032 A 
BRANCH  11  15
HETATM   15  O   UNL     1     -44.423  56.124 -60.218  1.00  0.00    -0.353 OA
HETATM   16  C   UNL     1     -44.600  54.717 -60.140  1.00  0.00     0.210 C 
ENDBRANCH  11  15
BRANCH  12  17
HETATM   17  O   UNL     1     -46.589  57.620 -60.112  1.00  0.00    -0.353 OA
HETATM   18  C   UNL     1     -47.050  58.897 -60.539  1.00  0.00     0.210 C 
ENDBRANCH  12  17
ENDBRANCH   6   9
ENDBRANCH   1   5
BRANCH   2  19
HETATM   19  C   UNL     1     -41.456  56.536 -52.202  1.00  0.00     0.144 C 
BRANCH  19  20
HETATM   20  C   UNL     1     -41.401  54.977 -52.081  1.00  0.00     0.033 C 
HETATM   21  C   UNL     1     -40.573  54.597 -50.834  1.00  0.00     0.049 C 
HETATM   22  C   UNL     1     -41.326  54.904 -49.543  1.00  0.00     0.169 C 
HETATM   23  O   UNL     1     -42.600  54.267 -49.537  1.00  0.00    -0.391 OA
HETATM   24  C   UNL     1     -43.442  54.705 -50.602  1.00  0.00     0.169 C 
HETATM   25  C   UNL     1     -42.812  54.368 -51.952  1.00  0.00     0.049 C 
BRANCH  20  26
HETATM   26  S   UNL     1     -40.537  54.399 -53.648  1.00  0.00    -0.118 SA
BRANCH  26  27
HETATM   27  C   UNL     1     -40.272  52.660 -53.373  1.00  0.00     0.001 A 
HETATM   28  C   UNL     1     -40.475  51.743 -54.408  1.00  0.00     0.018 A 
HETATM   29  C   UNL     1     -40.230  50.382 -54.204  1.00  0.00     0.001 A 
HETATM   30  C   UNL     1     -39.761  49.935 -52.971  1.00  0.00     0.000 A 
HETATM   31  C   UNL     1     -39.525  50.848 -51.944  1.00  0.00     0.001 A 
HETATM   32  C   UNL     1     -39.771  52.207 -52.148  1.00  0.00     0.018 A 
ENDBRANCH  26  27
ENDBRANCH  20  26
ENDBRANCH  19  20
ENDBRANCH   2  19
TORSDOF 8
ENDMDL
MODEL 5
REMARK VINA RESULT:      -7.6      2.760      9.569
REMARK  8 active torsions:
REMARK  status: ('A' for Active; 'I' for Inactive)
REMARK    1  A    between atoms: O_2  and  C_3 
REMARK    2  A    between atoms: C_4  and  O_5 
REMARK    3  A    between atoms: C_8  and  N_9 
REMARK       I    between atoms: N_9  and  C_10 
REMARK    4  A    between atoms: C_10  and  C_11 
REMARK       I    between atoms: C_11  and  N_12 
REMARK    5  A    between atoms: N_12  and  C_13 
REMARK    6  A    between atoms: C_13  and  C_14 
REMARK    7  A    between atoms: C_14  and  S_15 
REMARK    8  A    between atoms: S_15  and  C_16 
ROOT
HETATM    1  C   UNL     1     -42.307  57.826 -53.567  1.00  0.00     0.309 C 
HETATM    2  N   UNL     1     -41.473  56.781 -53.251  1.00  0.00    -0.351 N 
HETATM    3  O   UNL     1     -42.905  58.537 -52.770  1.00  0.00    -0.262 OA
HETATM    4  H   UNL     1     -41.115  56.231 -54.030  1.00  0.00     0.162 HD
ENDROOT
BRANCH   1   5
HETATM    5  C   UNL     1     -42.495  58.049 -55.083  1.00  0.00     0.313 C 
HETATM    6  N   UNL     1     -43.219  57.028 -55.659  1.00  0.00    -0.319 N 
HETATM    7  H   UNL     1     -43.523  56.311 -55.003  1.00  0.00     0.169 HD
HETATM    8  O   UNL     1     -41.998  59.039 -55.600  1.00  0.00    -0.262 OA
BRANCH   6   9
HETATM    9  C   UNL     1     -43.545  56.853 -57.016  1.00  0.00     0.037 A 
HETATM   10  C   UNL     1     -44.435  57.677 -57.712  1.00  0.00     0.069 A 
HETATM   11  C   UNL     1     -44.699  57.457 -59.072  1.00  0.00     0.103 A 
HETATM   12  C   UNL     1     -44.052  56.403 -59.740  1.00  0.00     0.101 A 
HETATM   13  C   UNL     1     -43.182  55.564 -59.039  1.00  0.00     0.042 A 
HETATM   14  C   UNL     1     -42.928  55.793 -57.685  1.00  0.00     0.032 A 
BRANCH  11  15
HETATM   15  O   UNL     1     -45.550  58.218 -59.833  1.00  0.00    -0.353 OA
HETATM   16  C   UNL     1     -46.514  59.009 -59.152  1.00  0.00     0.210 C 
ENDBRANCH  11  15
BRANCH  12  17
HETATM   17  O   UNL     1     -44.358  56.219 -61.066  1.00  0.00    -0.353 OA
HETATM   18  C   UNL     1     -45.089  55.033 -61.359  1.00  0.00     0.210 C 
ENDBRANCH  12  17
ENDBRANCH   6   9
ENDBRANCH   1   5
BRANCH   2  19
HETATM   19  C   UNL     1     -41.240  56.317 -51.894  1.00  0.00     0.144 C 
BRANCH  19  20
HETATM   20  C   UNL     1     -41.145  54.762 -51.750  1.00  0.00     0.033 C 
HETATM   21  C   UNL     1     -40.151  54.421 -50.619  1.00  0.00     0.049 C 
HETATM   22  C   UNL     1     -40.728  54.747 -49.244  1.00  0.00     0.169 C 
HETATM   23  O   UNL     1     -41.980  54.093 -49.054  1.00  0.00    -0.391 OA
HETATM   24  C   UNL     1     -42.964  54.497 -50.005  1.00  0.00     0.169 C 
HETATM   25  C   UNL     1     -42.516  54.139 -51.420  1.00  0.00     0.049 C 
BRANCH  20  26
HETATM   26  S   UNL     1     -40.490  54.160 -53.407  1.00  0.00    -0.118 SA
BRANCH  26  27
HETATM   27  C   UNL     1     -40.213  52.420 -53.151  1.00  0.00     0.001 A 
HETATM   28  C   UNL     1     -40.382  51.516 -54.204  1.00  0.00     0.018 A 
HETATM   29  C   UNL     1     -40.127  50.155 -54.014  1.00  0.00     0.001 A 
HETATM   30  C   UNL     1     -39.683  49.695 -52.776  1.00  0.00     0.000 A 
HETATM   31  C   UNL     1     -39.482  50.595 -51.730  1.00  0.00     0.001 A 
HETATM   32  C   UNL     1     -39.738  51.955 -51.921  1.00  0.00     0.018 A 
ENDBRANCH  26  27
ENDBRANCH  20  26
ENDBRANCH  19  20
ENDBRANCH   2  19
TORSDOF 8
ENDMDL
MODEL 6
REMARK VINA RESULT:      -7.5      2.565      3.751
REMARK  8 active torsions:
REMARK  status: ('A' for Active; 'I' for Inactive)
REMARK    1  A    between atoms: O_2  and  C_3 
REMARK    2  A    between atoms: C_4  and  O_5 
REMARK    3  A    between atoms: C_8  and  N_9 
REMARK       I    between atoms: N_9  and  C_10 
REMARK    4  A    between atoms: C_10  and  C_11 
REMARK       I    between atoms: C_11  and  N_12 
REMARK    5  A    between atoms: N_12  and  C_13 
REMARK    6  A    between atoms: C_13  and  C_14 
REMARK    7  A    between atoms: C_14  and  S_15 
REMARK    8  A    between atoms: S_15  and  C_16 
ROOT
HETATM    1  C   UNL     1     -41.521  58.878 -54.211  1.00  0.00     0.309 C 
HETATM    2  N   UNL     1     -42.057  58.622 -55.450  1.00  0.00    -0.351 N 
HETATM    3  O   UNL     1     -41.372  59.981 -53.704  1.00  0.00    -0.262 OA
HETATM    4  H   UNL     1     -42.037  57.654 -55.766  1.00  0.00     0.162 HD
ENDROOT
BRANCH   1   5
HETATM    5  C   UNL     1     -41.049  57.616 -53.454  1.00  0.00     0.313 C 
HETATM    6  N   UNL     1     -41.104  56.496 -54.254  1.00  0.00    -0.319 N 
HETATM    7  H   UNL     1     -41.427  56.676 -55.203  1.00  0.00     0.169 HD
HETATM    8  O   UNL     1     -40.709  57.722 -52.285  1.00  0.00    -0.262 OA
BRANCH   6   9
HETATM    9  C   UNL     1     -40.809  55.166 -53.906  1.00  0.00     0.037 A 
HETATM   10  C   UNL     1     -40.962  54.650 -52.616  1.00  0.00     0.069 A 
HETATM   11  C   UNL     1     -40.667  53.306 -52.343  1.00  0.00     0.103 A 
HETATM   12  C   UNL     1     -40.222  52.471 -53.383  1.00  0.00     0.101 A 
HETATM   13  C   UNL     1     -40.044  52.992 -54.666  1.00  0.00     0.042 A 
HETATM   14  C   UNL     1     -40.341  54.332 -54.925  1.00  0.00     0.032 A 
BRANCH  11  15
HETATM   15  O   UNL     1     -40.795  52.715 -51.111  1.00  0.00    -0.353 OA
HETATM   16  C   UNL     1     -40.187  53.363 -50.003  1.00  0.00     0.210 C 
ENDBRANCH  11  15
BRANCH  12  17
HETATM   17  O   UNL     1     -39.930  51.168 -53.060  1.00  0.00    -0.353 OA
HETATM   18  C   UNL     1     -40.068  50.235 -54.126  1.00  0.00     0.210 C 
ENDBRANCH  12  17
ENDBRANCH   6   9
ENDBRANCH   1   5
BRANCH   2  19
HETATM   19  C   UNL     1     -42.461  59.660 -56.383  1.00  0.00     0.144 C 
BRANCH  19  20
HETATM   20  C   UNL     1     -43.388  59.163 -57.541  1.00  0.00     0.033 C 
HETATM   21  C   UNL     1     -44.531  58.315 -56.944  1.00  0.00     0.049 C 
HETATM   22  C   UNL     1     -45.541  59.180 -56.194  1.00  0.00     0.169 C 
HETATM   23  O   UNL     1     -46.043  60.215 -57.034  1.00  0.00    -0.391 OA
HETATM   24  C   UNL     1     -45.021  61.100 -57.490  1.00  0.00     0.169 C 
HETATM   25  C   UNL     1     -43.995  60.342 -58.328  1.00  0.00     0.049 C 
BRANCH  20  26
HETATM   26  S   UNL     1     -42.279  58.101 -58.628  1.00  0.00    -0.118 SA
BRANCH  26  27
HETATM   27  C   UNL     1     -43.368  56.831 -59.239  1.00  0.00     0.001 A 
HETATM   28  C   UNL     1     -44.259  57.106 -60.280  1.00  0.00     0.018 A 
HETATM   29  C   UNL     1     -45.086  56.100 -60.786  1.00  0.00     0.001 A 
HETATM   30  C   UNL     1     -45.012  54.809 -60.266  1.00  0.00     0.000 A 
HETATM   31  C   UNL     1     -44.104  54.520 -59.249  1.00  0.00     0.001 A 
HETATM   32  C   UNL     1     -43.278  55.526 -58.744  1.00  0.00     0.018 A 
ENDBRANCH  26  27
ENDBRANCH  20  26
ENDBRANCH  19  20
ENDBRANCH   2  19
TORSDOF 8
ENDMDL
MODEL 7
REMARK VINA RESULT:      -7.3      7.288     10.724
REMARK  8 active torsions:
REMARK  status: ('A' for Active; 'I' for Inactive)
REMARK    1  A    between atoms: O_2  and  C_3 
REMARK    2  A    between atoms: C_4  and  O_5 
REMARK    3  A    between atoms: C_8  and  N_9 
REMARK       I    between atoms: N_9  and  C_10 
REMARK    4  A    between atoms: C_10  and  C_11 
REMARK       I    between atoms: C_11  and  N_12 
REMARK    5  A    between atoms: N_12  and  C_13 
REMARK    6  A    between atoms: C_13  and  C_14 
REMARK    7  A    between atoms: C_14  and  S_15 
REMARK    8  A    between atoms: S_15  and  C_16 
ROOT
HETATM    1  C   UNL     1     -45.082  58.832 -50.812  1.00  0.00     0.309 C 
HETATM    2  N   UNL     1     -43.914  59.072 -51.493  1.00  0.00    -0.351 N 
HETATM    3  O   UNL     1     -45.687  57.769 -50.772  1.00  0.00    -0.262 OA
HETATM    4  H   UNL     1     -43.577  60.034 -51.496  1.00  0.00     0.162 HD
ENDROOT
BRANCH   1   5
HETATM    5  C   UNL     1     -45.652  60.066 -50.078  1.00  0.00     0.313 C 
HETATM    6  N   UNL     1     -45.159  60.164 -48.795  1.00  0.00    -0.319 N 
HETATM    7  H   UNL     1     -44.498  59.431 -48.545  1.00  0.00     0.169 HD
HETATM    8  O   UNL     1     -46.450  60.783 -50.663  1.00  0.00    -0.262 OA
BRANCH   6   9
HETATM    9  C   UNL     1     -45.485  61.115 -47.811  1.00  0.00     0.037 A 
HETATM   10  C   UNL     1     -46.423  62.134 -47.999  1.00  0.00     0.069 A 
HETATM   11  C   UNL     1     -46.714  63.038 -46.966  1.00  0.00     0.103 A 
HETATM   12  C   UNL     1     -46.060  62.906 -45.728  1.00  0.00     0.101 A 
HETATM   13  C   UNL     1     -45.104  61.904 -45.549  1.00  0.00     0.042 A 
HETATM   14  C   UNL     1     -44.823  61.012 -46.585  1.00  0.00     0.032 A 
BRANCH  11  15
HETATM   15  O   UNL     1     -47.623  64.061 -47.059  1.00  0.00    -0.353 OA
HETATM   16  C   UNL     1     -48.492  64.070 -48.183  1.00  0.00     0.210 C 
ENDBRANCH  11  15
BRANCH  12  17
HETATM   17  O   UNL     1     -46.367  63.826 -44.755  1.00  0.00    -0.353 OA
HETATM   18  C   UNL     1     -45.282  64.203 -43.915  1.00  0.00     0.210 C 
ENDBRANCH  12  17
ENDBRANCH   6   9
ENDBRANCH   1   5
BRANCH   2  19
HETATM   19  C   UNL     1     -43.260  58.093 -52.344  1.00  0.00     0.144 C 
BRANCH  19  20
HETATM   20  C   UNL     1     -41.988  57.434 -51.714  1.00  0.00     0.033 C 
HETATM   21  C   UNL     1     -40.925  57.235 -52.816  1.00  0.00     0.049 C 
HETATM   22  C   UNL     1     -40.308  58.563 -53.249  1.00  0.00     0.169 C 
HETATM   23  O   UNL     1     -39.774  59.262 -52.128  1.00  0.00    -0.391 OA
HETATM   24  C   UNL     1     -40.766  59.583 -51.154  1.00  0.00     0.169 C 
HETATM   25  C   UNL     1     -41.393  58.309 -50.593  1.00  0.00     0.049 C 
BRANCH  20  26
HETATM   26  S   UNL     1     -42.577  55.772 -51.059  1.00  0.00    -0.118 SA
BRANCH  26  27
HETATM   27  C   UNL     1     -42.002  54.605 -52.274  1.00  0.00     0.001 A 
HETATM   28  C   UNL     1     -42.633  54.513 -53.518  1.00  0.00     0.018 A 
HETATM   29  C   UNL     1     -42.158  53.625 -54.486  1.00  0.00     0.001 A 
HETATM   30  C   UNL     1     -41.037  52.840 -54.223  1.00  0.00     0.000 A 
HETATM   31  C   UNL     1     -40.383  52.950 -52.997  1.00  0.00     0.001 A 
HETATM   32  C   UNL     1     -40.859  53.837 -52.029  1.00  0.00     0.018 A 
ENDBRANCH  26  27
ENDBRANCH  20  26
ENDBRANCH  19  20
ENDBRANCH   2  19
TORSDOF 8
ENDMDL
MODEL 8
REMARK VINA RESULT:      -7.3      2.026      4.055
REMARK  8 active torsions:
REMARK  status: ('A' for Active; 'I' for Inactive)
REMARK    1  A    between atoms: O_2  and  C_3 
REMARK    2  A    between atoms: C_4  and  O_5 
REMARK    3  A    between atoms: C_8  and  N_9 
REMARK       I    between atoms: N_9  and  C_10 
REMARK    4  A    between atoms: C_10  and  C_11 
REMARK       I    between atoms: C_11  and  N_12 
REMARK    5  A    between atoms: N_12  and  C_13 
REMARK    6  A    between atoms: C_13  and  C_14 
REMARK    7  A    between atoms: C_14  and  S_15 
REMARK    8  A    between atoms: S_15  and  C_16 
ROOT
HETATM    1  C   UNL     1     -43.523  56.322 -55.652  1.00  0.00     0.309 C 
HETATM    2  N   UNL     1     -43.552  56.482 -57.016  1.00  0.00    -0.351 N 
HETATM    3  O   UNL     1     -44.378  56.703 -54.864  1.00  0.00    -0.262 OA
HETATM    4  H   UNL     1     -42.723  56.184 -57.528  1.00  0.00     0.162 HD
ENDROOT
BRANCH   1   5
HETATM    5  C   UNL     1     -42.251  55.623 -55.124  1.00  0.00     0.313 C 
HETATM    6  N   UNL     1     -42.560  54.589 -54.267  1.00  0.00    -0.319 N 
HETATM    7  H   UNL     1     -43.559  54.443 -54.133  1.00  0.00     0.169 HD
HETATM    8  O   UNL     1     -41.158  56.040 -55.479  1.00  0.00    -0.262 OA
BRANCH   6   9
HETATM    9  C   UNL     1     -41.676  53.762 -53.551  1.00  0.00     0.037 A 
HETATM   10  C   UNL     1     -41.424  53.898 -52.183  1.00  0.00     0.069 A 
HETATM   11  C   UNL     1     -40.544  53.025 -51.527  1.00  0.00     0.103 A 
HETATM   12  C   UNL     1     -39.920  51.996 -52.256  1.00  0.00     0.101 A 
HETATM   13  C   UNL     1     -40.152  51.876 -53.627  1.00  0.00     0.042 A 
HETATM   14  C   UNL     1     -41.029  52.753 -54.269  1.00  0.00     0.032 A 
BRANCH  11  15
HETATM   15  O   UNL     1     -40.244  53.080 -50.189  1.00  0.00    -0.353 OA
HETATM   16  C   UNL     1     -39.883  54.342 -49.647  1.00  0.00     0.210 C 
ENDBRANCH  11  15
BRANCH  12  17
HETATM   17  O   UNL     1     -39.054  51.179 -51.571  1.00  0.00    -0.353 OA
HETATM   18  C   UNL     1     -39.538  49.865 -51.316  1.00  0.00     0.210 C 
ENDBRANCH  12  17
ENDBRANCH   6   9
ENDBRANCH   1   5
BRANCH   2  19
HETATM   19  C   UNL     1     -44.592  57.211 -57.721  1.00  0.00     0.144 C 
BRANCH  19  20
HETATM   20  C   UNL     1     -44.343  57.370 -59.257  1.00  0.00     0.033 C 
HETATM   21  C   UNL     1     -44.952  56.158 -59.995  1.00  0.00     0.049 C 
HETATM   22  C   UNL     1     -46.477  56.210 -60.000  1.00  0.00     0.169 C 
HETATM   23  O   UNL     1     -46.939  57.440 -60.549  1.00  0.00    -0.391 OA
HETATM   24  C   UNL     1     -46.504  58.576 -59.803  1.00  0.00     0.169 C 
HETATM   25  C   UNL     1     -44.980  58.663 -59.804  1.00  0.00     0.049 C 
BRANCH  20  26
HETATM   26  S   UNL     1     -42.472  57.385 -59.447  1.00  0.00    -0.118 SA
BRANCH  26  27
HETATM   27  C   UNL     1     -42.055  59.116 -59.446  1.00  0.00     0.001 A 
HETATM   28  C   UNL     1     -41.747  59.767 -58.248  1.00  0.00     0.018 A 
HETATM   29  C   UNL     1     -41.382  61.115 -58.251  1.00  0.00     0.001 A 
HETATM   30  C   UNL     1     -41.305  61.814 -59.453  1.00  0.00     0.000 A 
HETATM   31  C   UNL     1     -41.581  61.164 -60.655  1.00  0.00     0.001 A 
HETATM   32  C   UNL     1     -41.945  59.816 -60.651  1.00  0.00     0.018 A 
ENDBRANCH  26  27
ENDBRANCH  20  26
ENDBRANCH  19  20
ENDBRANCH   2  19
TORSDOF 8
ENDMDL
MODEL 9
REMARK VINA RESULT:      -7.2      1.792      2.984
REMARK  8 active torsions:
REMARK  status: ('A' for Active; 'I' for Inactive)
REMARK    1  A    between atoms: O_2  and  C_3 
REMARK    2  A    between atoms: C_4  and  O_5 
REMARK    3  A    between atoms: C_8  and  N_9 
REMARK       I    between atoms: N_9  and  C_10 
REMARK    4  A    between atoms: C_10  and  C_11 
REMARK       I    between atoms: C_11  and  N_12 
REMARK    5  A    between atoms: N_12  and  C_13 
REMARK    6  A    between atoms: C_13  and  C_14 
REMARK    7  A    between atoms: C_14  and  S_15 
REMARK    8  A    between atoms: S_15  and  C_16 
ROOT
HETATM    1  C   UNL     1     -42.200  58.132 -54.792  1.00  0.00     0.309 C 
HETATM    2  N   UNL     1     -42.421  58.070 -56.146  1.00  0.00    -0.351 N 
HETATM    3  O   UNL     1     -41.979  59.145 -54.143  1.00  0.00    -0.262 OA
HETATM    4  H   UNL     1     -42.507  57.140 -56.553  1.00  0.00     0.162 HD
ENDROOT
BRANCH   1   5
HETATM    5  C   UNL     1     -42.209  56.757 -54.087  1.00  0.00     0.313 C 
HETATM    6  N   UNL     1     -41.035  56.069 -54.305  1.00  0.00    -0.319 N 
HETATM    7  H   UNL     1     -40.356  56.573 -54.872  1.00  0.00     0.169 HD
HETATM    8  O   UNL     1     -43.202  56.423 -53.457  1.00  0.00    -0.262 OA
BRANCH   6   9
HETATM    9  C   UNL     1     -40.696  54.774 -53.875  1.00  0.00     0.037 A 
HETATM   10  C   UNL     1     -40.750  54.361 -52.540  1.00  0.00     0.069 A 
HETATM   11  C   UNL     1     -40.417  53.047 -52.183  1.00  0.00     0.103 A 
HETATM   12  C   UNL     1     -40.033  52.135 -53.183  1.00  0.00     0.101 A 
HETATM   13  C   UNL     1     -39.954  52.554 -54.513  1.00  0.00     0.042 A 
HETATM   14  C   UNL     1     -40.288  53.866 -54.855  1.00  0.00     0.032 A 
BRANCH  11  15
HETATM   15  O   UNL     1     -40.448  52.555 -50.903  1.00  0.00    -0.353 OA
HETATM   16  C   UNL     1     -40.349  53.488 -49.836  1.00  0.00     0.210 C 
ENDBRANCH  11  15
BRANCH  12  17
HETATM   17  O   UNL     1     -39.699  50.865 -52.780  1.00  0.00    -0.353 OA
HETATM   18  C   UNL     1     -39.915  49.847 -53.751  1.00  0.00     0.210 C 
ENDBRANCH  12  17
ENDBRANCH   6   9
ENDBRANCH   1   5
BRANCH   2  19
HETATM   19  C   UNL     1     -42.344  59.222 -57.029  1.00  0.00     0.144 C 
BRANCH  19  20
HETATM   20  C   UNL     1     -43.494  59.303 -58.087  1.00  0.00     0.033 C 
HETATM   21  C   UNL     1     -44.049  60.744 -58.117  1.00  0.00     0.049 C 
HETATM   22  C   UNL     1     -43.065  61.713 -58.768  1.00  0.00     0.169 C 
HETATM   23  O   UNL     1     -42.702  61.265 -60.071  1.00  0.00    -0.391 OA
HETATM   24  C   UNL     1     -42.058  59.992 -60.058  1.00  0.00     0.169 C 
HETATM   25  C   UNL     1     -42.995  58.927 -59.496  1.00  0.00     0.049 C 
BRANCH  20  26
HETATM   26  S   UNL     1     -44.806  58.104 -57.471  1.00  0.00    -0.118 SA
BRANCH  26  27
HETATM   27  C   UNL     1     -44.927  56.897 -58.774  1.00  0.00     0.001 A 
HETATM   28  C   UNL     1     -45.974  56.958 -59.698  1.00  0.00     0.018 A 
HETATM   29  C   UNL     1     -46.047  56.034 -60.744  1.00  0.00     0.001 A 
HETATM   30  C   UNL     1     -45.063  55.058 -60.882  1.00  0.00     0.000 A 
HETATM   31  C   UNL     1     -43.999  55.010 -59.983  1.00  0.00     0.001 A 
HETATM   32  C   UNL     1     -43.926  55.933 -58.938  1.00  0.00     0.018 A 
ENDBRANCH  26  27
ENDBRANCH  20  26
ENDBRANCH  19  20
ENDBRANCH   2  19
TORSDOF 8
ENDMDL
MODEL 10
REMARK VINA RESULT:      -7.2      2.786      3.992
REMARK  8 active torsions:
REMARK  status: ('A' for Active; 'I' for Inactive)
REMARK    1  A    between atoms: O_2  and  C_3 
REMARK    2  A    between atoms: C_4  and  O_5 
REMARK    3  A    between atoms: C_8  and  N_9 
REMARK       I    between atoms: N_9  and  C_10 
REMARK    4  A    between atoms: C_10  and  C_11 
REMARK       I    between atoms: C_11  and  N_12 
REMARK    5  A    between atoms: N_12  and  C_13 
REMARK    6  A    between atoms: C_13  and  C_14 
REMARK    7  A    between atoms: C_14  and  S_15 
REMARK    8  A    between atoms: S_15  and  C_16 
ROOT
HETATM    1  C   UNL     1     -43.829  56.918 -52.247  1.00  0.00     0.309 C 
HETATM    2  N   UNL     1     -44.172  57.150 -53.557  1.00  0.00    -0.351 N 
HETATM    3  O   UNL     1     -43.949  57.708 -51.320  1.00  0.00    -0.262 OA
HETATM    4  H   UNL     1     -43.932  56.422 -54.228  1.00  0.00     0.162 HD
ENDROOT
BRANCH   1   5
HETATM    5  C   UNL     1     -43.206  55.527 -51.994  1.00  0.00     0.313 C 
HETATM    6  N   UNL     1     -42.169  55.271 -52.864  1.00  0.00    -0.319 N 
HETATM    7  H   UNL     1     -41.972  56.030 -53.514  1.00  0.00     0.169 HD
HETATM    8  O   UNL     1     -43.675  54.823 -51.112  1.00  0.00    -0.262 OA
BRANCH   6   9
HETATM    9  C   UNL     1     -41.401  54.099 -52.976  1.00  0.00     0.037 A 
HETATM   10  C   UNL     1     -40.801  53.458 -51.888  1.00  0.00     0.069 A 
HETATM   11  C   UNL     1     -40.063  52.279 -52.069  1.00  0.00     0.103 A 
HETATM   12  C   UNL     1     -39.937  51.734 -53.360  1.00  0.00     0.101 A 
HETATM   13  C   UNL     1     -40.514  52.388 -54.450  1.00  0.00     0.042 A 
HETATM   14  C   UNL     1     -41.245  53.561 -54.257  1.00  0.00     0.032 A 
BRANCH  11  15
HETATM   15  O   UNL     1     -39.449  51.581 -51.061  1.00  0.00    -0.353 OA
HETATM   16  C   UNL     1     -40.230  50.636 -50.343  1.00  0.00     0.210 C 
ENDBRANCH  11  15
BRANCH  12  17
HETATM   17  O   UNL     1     -39.189  50.589 -53.487  1.00  0.00    -0.353 OA
HETATM   18  C   UNL     1     -39.612  49.702 -54.517  1.00  0.00     0.210 C 
ENDBRANCH  12  17
ENDBRANCH   6   9
ENDBRANCH   1   5
BRANCH   2  19
HETATM   19  C   UNL     1     -44.666  58.425 -54.048  1.00  0.00     0.144 C 
BRANCH  19  20
HETATM   20  C   UNL     1     -43.884  58.992 -55.278  1.00  0.00     0.033 C 
HETATM   21  C   UNL     1     -43.721  60.519 -55.112  1.00  0.00     0.049 C 
HETATM   22  C   UNL     1     -42.713  60.861 -54.019  1.00  0.00     0.169 C 
HETATM   23  O   UNL     1     -41.461  60.227 -54.267  1.00  0.00    -0.391 OA
HETATM   24  C   UNL     1     -41.559  58.804 -54.287  1.00  0.00     0.169 C 
HETATM   25  C   UNL     1     -42.489  58.349 -55.409  1.00  0.00     0.049 C 
BRANCH  20  26
HETATM   26  S   UNL     1     -44.970  58.603 -56.764  1.00  0.00    -0.118 SA
BRANCH  26  27
HETATM   27  C   UNL     1     -43.814  58.077 -58.013  1.00  0.00     0.001 A 
HETATM   28  C   UNL     1     -43.684  56.722 -58.327  1.00  0.00     0.018 A 
HETATM   29  C   UNL     1     -42.805  56.312 -59.334  1.00  0.00     0.001 A 
HETATM   30  C   UNL     1     -42.068  57.257 -60.044  1.00  0.00     0.000 A 
HETATM   31  C   UNL     1     -42.216  58.613 -59.757  1.00  0.00     0.001 A 
HETATM   32  C   UNL     1     -43.094  59.022 -58.750  1.00  0.00     0.018 A 
ENDBRANCH  26  27
ENDBRANCH  20  26
ENDBRANCH  19  20
ENDBRANCH   2  19
TORSDOF 8
ENDMDL
