MODEL 1
REMARK VINA RESULT:      -6.5      0.000      0.000
REMARK  2 active torsions:
REMARK  status: ('A' for Active; 'I' for Inactive)
REMARK    1  A    between atoms: N_6  and  C_7 
REMARK    2  A    between atoms: C_11  and  N_12 
ROOT
HETATM    1  C   UNL     1     -41.356  55.442 -50.748  1.00  0.00     0.070 A 
HETATM    2  C   UNL     1     -41.029  54.694 -49.596  1.00  0.00     0.145 A 
HETATM    3  F   UNL     1     -41.111  55.254 -48.379  1.00  0.00    -0.204 F 
HETATM    4  C   UNL     1     -40.568  53.381 -49.657  1.00  0.00     0.082 A 
HETATM    5  C   UNL     1     -40.423  52.781 -50.906  1.00  0.00     0.123 A 
HETATM    6  C   UNL     1     -40.737  53.461 -52.077  1.00  0.00     0.046 A 
HETATM    7 BR   UNL     1     -40.601  52.692 -53.805  1.00  0.00    -0.048 Br
HETATM    8  C   UNL     1     -41.205  54.781 -51.986  1.00  0.00     0.054 A 
ENDROOT
BRANCH   1   9
HETATM    9  N   UNL     1     -41.857  56.747 -50.721  1.00  0.00    -0.375 N 
HETATM   10  C   UNL     1     -43.112  57.041 -51.445  1.00  0.00     0.150 C 
HETATM   11  C   UNL     1     -42.820  57.681 -52.821  1.00  0.00     0.254 C 
HETATM   12  N   UNL     1     -41.922  58.909 -52.666  1.00  0.00    -0.072 N 
HETATM   13  C   UNL     1     -41.657  59.581 -53.978  1.00  0.00     0.269 C 
HETATM   14  H   UNL     1     -42.424  59.580 -52.070  1.00  0.00     0.279 HD
HETATM   15  C   UNL     1     -40.625  58.548 -51.933  1.00  0.00     0.254 C 
HETATM   16  C   UNL     1     -40.950  57.904 -50.570  1.00  0.00     0.150 C 
ENDBRANCH   1   9
BRANCH   5  17
HETATM   17  N   UNL     1     -39.924  51.427 -50.941  1.00  0.00    -0.114 N 
HETATM   18  O   UNL     1     -40.396  50.640 -50.114  1.00  0.00    -0.532 OA
HETATM   19  O   UNL     1     -39.024  51.188 -51.755  1.00  0.00    -0.532 OA
ENDBRANCH   5  17
TORSDOF 2
ENDMDL
MODEL 2
REMARK VINA RESULT:      -6.4      2.479      3.028
REMARK  2 active torsions:
REMARK  status: ('A' for Active; 'I' for Inactive)
REMARK    1  A    between atoms: N_6  and  C_7 
REMARK    2  A    between atoms: C_11  and  N_12 
ROOT
HETATM    1  C   UNL     1     -41.061  53.745 -51.340  1.00  0.00     0.070 A 
HETATM    2  C   UNL     1     -41.043  53.920 -52.741  1.00  0.00     0.145 A 
HETATM    3  F   UNL     1     -41.515  55.051 -53.288  1.00  0.00    -0.204 F 
HETATM    4  C   UNL     1     -40.591  52.935 -53.617  1.00  0.00     0.082 A 
HETATM    5  C   UNL     1     -40.138  51.728 -53.090  1.00  0.00     0.123 A 
HETATM    6  C   UNL     1     -40.122  51.497 -51.719  1.00  0.00     0.046 A 
HETATM    7 BR   UNL     1     -39.483  49.895 -50.933  1.00  0.00    -0.048 Br
HETATM    8  C   UNL     1     -40.578  52.509 -50.859  1.00  0.00     0.054 A 
ENDROOT
BRANCH   1   9
HETATM    9  N   UNL     1     -41.471  54.724 -50.432  1.00  0.00    -0.375 N 
HETATM   10  C   UNL     1     -42.918  54.906 -50.188  1.00  0.00     0.150 C 
HETATM   11  C   UNL     1     -43.471  56.096 -51.005  1.00  0.00     0.254 C 
HETATM   12  N   UNL     1     -42.659  57.363 -50.731  1.00  0.00    -0.072 N 
HETATM   13  C   UNL     1     -43.198  58.548 -51.473  1.00  0.00     0.269 C 
HETATM   14  H   UNL     1     -42.739  57.564 -49.726  1.00  0.00     0.279 HD
HETATM   15  C   UNL     1     -41.172  57.132 -51.022  1.00  0.00     0.254 C 
HETATM   16  C   UNL     1     -40.654  55.933 -50.200  1.00  0.00     0.150 C 
ENDBRANCH   1   9
BRANCH   5  17
HETATM   17  N   UNL     1     -39.696  50.719 -54.020  1.00  0.00    -0.114 N 
HETATM   18  O   UNL     1     -40.556  49.942 -54.448  1.00  0.00    -0.532 OA
HETATM   19  O   UNL     1     -38.483  50.681 -54.264  1.00  0.00    -0.532 OA
ENDBRANCH   5  17
TORSDOF 2
ENDMDL
MODEL 3
REMARK VINA RESULT:      -6.4      2.694      3.524
REMARK  2 active torsions:
REMARK  status: ('A' for Active; 'I' for Inactive)
REMARK    1  A    between atoms: N_6  and  C_7 
REMARK    2  A    between atoms: C_11  and  N_12 
ROOT
HETATM    1  C   UNL     1     -41.489  55.720 -53.500  1.00  0.00     0.070 A 
HETATM    2  C   UNL     1     -41.291  55.111 -54.758  1.00  0.00     0.145 A 
HETATM    3  F   UNL     1     -41.594  55.773 -55.886  1.00  0.00    -0.204 F 
HETATM    4  C   UNL     1     -40.829  53.804 -54.897  1.00  0.00     0.082 A 
HETATM    5  C   UNL     1     -40.550  53.068 -53.748  1.00  0.00     0.123 A 
HETATM    6  C   UNL     1     -40.716  53.613 -52.480  1.00  0.00     0.046 A 
HETATM    7 BR   UNL     1     -40.318  52.681 -50.878  1.00  0.00    -0.048 Br
HETATM    8  C   UNL     1     -41.178  54.934 -52.369  1.00  0.00     0.054 A 
ENDROOT
BRANCH   1   9
HETATM    9  N   UNL     1     -41.915  57.040 -53.325  1.00  0.00    -0.375 N 
HETATM   10  C   UNL     1     -41.033  58.136 -53.779  1.00  0.00     0.150 C 
HETATM   11  C   UNL     1     -40.235  58.730 -52.595  1.00  0.00     0.254 C 
HETATM   12  N   UNL     1     -41.177  59.153 -51.467  1.00  0.00    -0.072 N 
HETATM   13  C   UNL     1     -40.439  59.776 -50.321  1.00  0.00     0.269 C 
HETATM   14  H   UNL     1     -41.811  59.866 -51.851  1.00  0.00     0.279 HD
HETATM   15  C   UNL     1     -42.051  57.977 -51.015  1.00  0.00     0.254 C 
HETATM   16  C   UNL     1     -42.826  57.402 -52.219  1.00  0.00     0.150 C 
ENDBRANCH   1   9
BRANCH   5  17
HETATM   17  N   UNL     1     -40.093  51.710 -53.922  1.00  0.00    -0.114 N 
HETATM   18  O   UNL     1     -38.909  51.485 -53.654  1.00  0.00    -0.532 OA
HETATM   19  O   UNL     1     -40.912  50.903 -54.379  1.00  0.00    -0.532 OA
ENDBRANCH   5  17
TORSDOF 2
ENDMDL
MODEL 4
REMARK VINA RESULT:      -6.2      2.436      3.101
REMARK  2 active torsions:
REMARK  status: ('A' for Active; 'I' for Inactive)
REMARK    1  A    between atoms: N_6  and  C_7 
REMARK    2  A    between atoms: C_11  and  N_12 
ROOT
HETATM    1  C   UNL     1     -41.967  55.096 -53.139  1.00  0.00     0.070 A 
HETATM    2  C   UNL     1     -41.791  53.874 -53.824  1.00  0.00     0.145 A 
HETATM    3  F   UNL     1     -42.357  53.684 -55.026  1.00  0.00    -0.204 F 
HETATM    4  C   UNL     1     -41.080  52.805 -53.285  1.00  0.00     0.082 A 
HETATM    5  C   UNL     1     -40.519  52.946 -52.017  1.00  0.00     0.123 A 
HETATM    6  C   UNL     1     -40.649  54.127 -51.295  1.00  0.00     0.046 A 
HETATM    7 BR   UNL     1     -39.878  54.400 -49.585  1.00  0.00    -0.048 Br
HETATM    8  C   UNL     1     -41.366  55.191 -51.865  1.00  0.00     0.054 A 
ENDROOT
BRANCH   1   9
HETATM    9  N   UNL     1     -42.641  56.202 -53.666  1.00  0.00    -0.375 N 
HETATM   10  C   UNL     1     -41.891  57.154 -54.512  1.00  0.00     0.150 C 
HETATM   11  C   UNL     1     -41.458  58.395 -53.699  1.00  0.00     0.254 C 
HETATM   12  N   UNL     1     -42.663  59.036 -53.008  1.00  0.00    -0.072 N 
HETATM   13  C   UNL     1     -42.285  60.269 -52.248  1.00  0.00     0.269 C 
HETATM   14  H   UNL     1     -43.323  59.316 -53.746  1.00  0.00     0.279 HD
HETATM   15  C   UNL     1     -43.392  58.016 -52.125  1.00  0.00     0.254 C 
HETATM   16  C   UNL     1     -43.801  56.788 -52.963  1.00  0.00     0.150 C 
ENDBRANCH   1   9
BRANCH   5  17
HETATM   17  N   UNL     1     -39.806  51.815 -51.474  1.00  0.00    -0.114 N 
HETATM   18  O   UNL     1     -38.816  51.429 -52.104  1.00  0.00    -0.532 OA
HETATM   19  O   UNL     1     -40.283  51.295 -50.458  1.00  0.00    -0.532 OA
ENDBRANCH   5  17
TORSDOF 2
ENDMDL
MODEL 5
REMARK VINA RESULT:      -5.9     15.654     17.324
REMARK  2 active torsions:
REMARK  status: ('A' for Active; 'I' for Inactive)
REMARK    1  A    between atoms: N_6  and  C_7 
REMARK    2  A    between atoms: C_11  and  N_12 
ROOT
HETATM    1  C   UNL     1     -36.668  41.049 -57.853  1.00  0.00     0.070 A 
HETATM    2  C   UNL     1     -37.070  41.443 -59.148  1.00  0.00     0.145 A 
HETATM    3  F   UNL     1     -36.958  42.725 -59.530  1.00  0.00    -0.204 F 
HETATM    4  C   UNL     1     -37.637  40.559 -60.062  1.00  0.00     0.082 A 
HETATM    5  C   UNL     1     -37.815  39.230 -59.684  1.00  0.00     0.123 A 
HETATM    6  C   UNL     1     -37.432  38.777 -58.427  1.00  0.00     0.046 A 
HETATM    7 BR   UNL     1     -37.609  36.975 -57.862  1.00  0.00    -0.048 Br
HETATM    8  C   UNL     1     -36.857  39.688 -57.527  1.00  0.00     0.054 A 
ENDROOT
BRANCH   1   9
HETATM    9  N   UNL     1     -36.061  41.900 -56.926  1.00  0.00    -0.375 N 
HETATM   10  C   UNL     1     -34.585  41.918 -56.837  1.00  0.00     0.150 C 
HETATM   11  C   UNL     1     -34.092  41.048 -55.658  1.00  0.00     0.254 C 
HETATM   12  N   UNL     1     -34.771  41.470 -54.354  1.00  0.00    -0.072 N 
HETATM   13  C   UNL     1     -34.280  40.677 -53.182  1.00  0.00     0.269 C 
HETATM   14  H   UNL     1     -34.523  42.455 -54.187  1.00  0.00     0.279 HD
HETATM   15  C   UNL     1     -36.297  41.412 -54.489  1.00  0.00     0.254 C 
HETATM   16  C   UNL     1     -36.755  42.281 -55.678  1.00  0.00     0.150 C 
ENDBRANCH   1   9
BRANCH   5  17
HETATM   17  N   UNL     1     -38.425  38.340 -60.643  1.00  0.00    -0.114 N 
HETATM   18  O   UNL     1     -37.667  37.786 -61.445  1.00  0.00    -0.532 OA
HETATM   19  O   UNL     1     -39.659  38.256 -60.616  1.00  0.00    -0.532 OA
ENDBRANCH   5  17
TORSDOF 2
ENDMDL
MODEL 6
REMARK VINA RESULT:      -5.9      2.840      3.494
REMARK  2 active torsions:
REMARK  status: ('A' for Active; 'I' for Inactive)
REMARK    1  A    between atoms: N_6  and  C_7 
REMARK    2  A    between atoms: C_11  and  N_12 
ROOT
HETATM    1  C   UNL     1     -41.819  55.387 -53.364  1.00  0.00     0.070 A 
HETATM    2  C   UNL     1     -41.614  54.817 -54.639  1.00  0.00     0.145 A 
HETATM    3  F   UNL     1     -42.022  55.462 -55.743  1.00  0.00    -0.204 F 
HETATM    4  C   UNL     1     -41.035  53.563 -54.818  1.00  0.00     0.082 A 
HETATM    5  C   UNL     1     -40.642  52.841 -53.693  1.00  0.00     0.123 A 
HETATM    6  C   UNL     1     -40.809  53.351 -52.411  1.00  0.00     0.046 A 
HETATM    7 BR   UNL     1     -40.262  52.439 -50.841  1.00  0.00    -0.048 Br
HETATM    8  C   UNL     1     -41.390  54.620 -52.260  1.00  0.00     0.054 A 
ENDROOT
BRANCH   1   9
HETATM    9  N   UNL     1     -42.362  56.657 -53.150  1.00  0.00    -0.375 N 
HETATM   10  C   UNL     1     -43.832  56.816 -53.178  1.00  0.00     0.150 C 
HETATM   11  C   UNL     1     -44.303  57.358 -54.547  1.00  0.00     0.254 C 
HETATM   12  N   UNL     1     -43.559  58.647 -54.903  1.00  0.00    -0.072 N 
HETATM   13  C   UNL     1     -44.025  59.224 -56.204  1.00  0.00     0.269 C 
HETATM   14  H   UNL     1     -43.768  59.333 -54.166  1.00  0.00     0.279 HD
HETATM   15  C   UNL     1     -42.042  58.424 -54.884  1.00  0.00     0.254 C 
HETATM   16  C   UNL     1     -41.606  57.875 -53.510  1.00  0.00     0.150 C 
ENDBRANCH   1   9
BRANCH   5  17
HETATM   17  N   UNL     1     -40.065  51.536 -53.907  1.00  0.00    -0.114 N 
HETATM   18  O   UNL     1     -38.864  51.411 -53.647  1.00  0.00    -0.532 OA
HETATM   19  O   UNL     1     -40.808  50.672 -54.389  1.00  0.00    -0.532 OA
ENDBRANCH   5  17
TORSDOF 2
ENDMDL
MODEL 7
REMARK VINA RESULT:      -5.9      5.669      6.979
REMARK  2 active torsions:
REMARK  status: ('A' for Active; 'I' for Inactive)
REMARK    1  A    between atoms: N_6  and  C_7 
REMARK    2  A    between atoms: C_11  and  N_12 
ROOT
HETATM    1  C   UNL     1     -42.572  56.311 -55.623  1.00  0.00     0.070 A 
HETATM    2  C   UNL     1     -43.018  55.278 -56.477  1.00  0.00     0.145 A 
HETATM    3  F   UNL     1     -43.262  54.053 -55.987  1.00  0.00    -0.204 F 
HETATM    4  C   UNL     1     -43.180  55.455 -57.849  1.00  0.00     0.082 A 
HETATM    5  C   UNL     1     -42.890  56.700 -58.402  1.00  0.00     0.123 A 
HETATM    6  C   UNL     1     -42.455  57.759 -57.613  1.00  0.00     0.046 A 
HETATM    7 BR   UNL     1     -42.081  59.489 -58.294  1.00  0.00    -0.048 Br
HETATM    8  C   UNL     1     -42.306  57.556 -56.232  1.00  0.00     0.054 A 
ENDROOT
BRANCH   1   9
HETATM    9  N   UNL     1     -42.435  56.180 -54.238  1.00  0.00    -0.375 N 
HETATM   10  C   UNL     1     -43.602  56.474 -53.378  1.00  0.00     0.150 C 
HETATM   11  C   UNL     1     -43.504  57.897 -52.783  1.00  0.00     0.254 C 
HETATM   12  N   UNL     1     -42.170  58.091 -52.060  1.00  0.00    -0.072 N 
HETATM   13  C   UNL     1     -42.062  59.446 -51.431  1.00  0.00     0.269 C 
HETATM   14  H   UNL     1     -42.129  57.394 -51.305  1.00  0.00     0.279 HD
HETATM   15  C   UNL     1     -40.993  57.798 -52.999  1.00  0.00     0.254 C 
HETATM   16  C   UNL     1     -41.125  56.376 -53.583  1.00  0.00     0.150 C 
ENDBRANCH   1   9
BRANCH   5  17
HETATM   17  N   UNL     1     -43.046  56.848 -59.829  1.00  0.00    -0.114 N 
HETATM   18  O   UNL     1     -44.148  57.235 -60.229  1.00  0.00    -0.532 OA
HETATM   19  O   UNL     1     -42.082  56.518 -60.530  1.00  0.00    -0.532 OA
ENDBRANCH   5  17
TORSDOF 2
ENDMDL
MODEL 8
REMARK VINA RESULT:      -5.8      2.330      3.252
REMARK  2 active torsions:
REMARK  status: ('A' for Active; 'I' for Inactive)
REMARK    1  A    between atoms: N_6  and  C_7 
REMARK    2  A    between atoms: C_11  and  N_12 
ROOT
HETATM    1  C   UNL     1     -41.923  56.907 -52.549  1.00  0.00     0.070 A 
HETATM    2  C   UNL     1     -41.850  57.373 -51.218  1.00  0.00     0.145 A 
HETATM    3  F   UNL     1     -42.202  58.634 -50.922  1.00  0.00    -0.204 F 
HETATM    4  C   UNL     1     -41.373  56.588 -50.171  1.00  0.00     0.082 A 
HETATM    5  C   UNL     1     -40.951  55.289 -50.447  1.00  0.00     0.123 A 
HETATM    6  C   UNL     1     -41.007  54.768 -51.735  1.00  0.00     0.046 A 
HETATM    7 BR   UNL     1     -40.487  52.999 -52.174  1.00  0.00    -0.048 Br
HETATM    8  C   UNL     1     -41.497  55.580 -52.771  1.00  0.00     0.054 A 
ENDROOT
BRANCH   1   9
HETATM    9  N   UNL     1     -42.432  57.654 -53.615  1.00  0.00    -0.375 N 
HETATM   10  C   UNL     1     -41.589  58.716 -54.204  1.00  0.00     0.150 C 
HETATM   11  C   UNL     1     -41.985  60.105 -53.653  1.00  0.00     0.254 C 
HETATM   12  N   UNL     1     -43.481  60.357 -53.848  1.00  0.00    -0.072 N 
HETATM   13  C   UNL     1     -43.891  61.715 -53.366  1.00  0.00     0.269 C 
HETATM   14  H   UNL     1     -43.667  60.318 -54.859  1.00  0.00     0.279 HD
HETATM   15  C   UNL     1     -44.312  59.243 -53.200  1.00  0.00     0.254 C 
HETATM   16  C   UNL     1     -43.886  57.871 -53.763  1.00  0.00     0.150 C 
ENDBRANCH   1   9
BRANCH   5  17
HETATM   17  N   UNL     1     -40.442  54.506 -49.348  1.00  0.00    -0.114 N 
HETATM   18  O   UNL     1     -39.220  54.326 -49.314  1.00  0.00    -0.532 OA
HETATM   19  O   UNL     1     -41.278  54.033 -48.569  1.00  0.00    -0.532 OA
ENDBRANCH   5  17
TORSDOF 2
ENDMDL
MODEL 9
REMARK VINA RESULT:      -5.7     16.492     17.727
REMARK  2 active torsions:
REMARK  status: ('A' for Active; 'I' for Inactive)
REMARK    1  A    between atoms: N_6  and  C_7 
REMARK    2  A    between atoms: C_11  and  N_12 
ROOT
HETATM    1  C   UNL     1     -35.674  40.582 -57.303  1.00  0.00     0.070 A 
HETATM    2  C   UNL     1     -35.043  41.594 -56.548  1.00  0.00     0.145 A 
HETATM    3  F   UNL     1     -35.653  42.774 -56.354  1.00  0.00    -0.204 F 
HETATM    4  C   UNL     1     -33.764  41.450 -56.016  1.00  0.00     0.082 A 
HETATM    5  C   UNL     1     -33.078  40.258 -56.238  1.00  0.00     0.123 A 
HETATM    6  C   UNL     1     -33.648  39.219 -56.966  1.00  0.00     0.046 A 
HETATM    7 BR   UNL     1     -32.788  37.557 -57.271  1.00  0.00    -0.048 Br
HETATM    8  C   UNL     1     -34.941  39.389 -57.485  1.00  0.00     0.054 A 
ENDROOT
BRANCH   1   9
HETATM    9  N   UNL     1     -36.970  40.678 -57.818  1.00  0.00    -0.375 N 
HETATM   10  C   UNL     1     -37.985  39.698 -57.376  1.00  0.00     0.150 C 
HETATM   11  C   UNL     1     -38.156  38.571 -58.420  1.00  0.00     0.254 C 
HETATM   12  N   UNL     1     -38.457  39.156 -59.802  1.00  0.00    -0.072 N 
HETATM   13  C   UNL     1     -38.675  38.089 -60.829  1.00  0.00     0.269 C 
HETATM   14  H   UNL     1     -39.331  39.692 -59.721  1.00  0.00     0.279 HD
HETATM   15  C   UNL     1     -37.365  40.146 -60.224  1.00  0.00     0.254 C 
HETATM   16  C   UNL     1     -37.212  41.251 -59.158  1.00  0.00     0.150 C 
ENDBRANCH   1   9
BRANCH   5  17
HETATM   17  N   UNL     1     -31.747  40.144 -55.694  1.00  0.00    -0.114 N 
HETATM   18  O   UNL     1     -31.656  40.033 -54.467  1.00  0.00    -0.532 OA
HETATM   19  O   UNL     1     -30.809  40.226 -56.498  1.00  0.00    -0.532 OA
ENDBRANCH   5  17
TORSDOF 2
ENDMDL
MODEL 10
REMARK VINA RESULT:      -5.7      5.942      7.539
REMARK  2 active torsions:
REMARK  status: ('A' for Active; 'I' for Inactive)
REMARK    1  A    between atoms: N_6  and  C_7 
REMARK    2  A    between atoms: C_11  and  N_12 
ROOT
HETATM    1  C   UNL     1     -43.103  56.611 -55.782  1.00  0.00     0.070 A 
HETATM    2  C   UNL     1     -42.864  55.472 -56.582  1.00  0.00     0.145 A 
HETATM    3  F   UNL     1     -42.216  54.412 -56.073  1.00  0.00    -0.204 F 
HETATM    4  C   UNL     1     -43.232  55.403 -57.923  1.00  0.00     0.082 A 
HETATM    5  C   UNL     1     -43.863  56.502 -58.501  1.00  0.00     0.123 A 
HETATM    6  C   UNL     1     -44.135  57.650 -57.765  1.00  0.00     0.046 A 
HETATM    7 BR   UNL     1     -45.025  59.166 -58.477  1.00  0.00    -0.048 Br
HETATM    8  C   UNL     1     -43.758  57.691 -56.413  1.00  0.00     0.054 A 
ENDROOT
BRANCH   1   9
HETATM    9  N   UNL     1     -42.781  56.700 -54.425  1.00  0.00    -0.375 N 
HETATM   10  C   UNL     1     -41.371  56.923 -54.043  1.00  0.00     0.150 C 
HETATM   11  C   UNL     1     -40.691  55.596 -53.638  1.00  0.00     0.254 C 
HETATM   12  N   UNL     1     -41.497  54.886 -52.548  1.00  0.00    -0.072 N 
HETATM   13  C   UNL     1     -40.840  53.617 -52.099  1.00  0.00     0.269 C 
HETATM   14  H   UNL     1     -41.535  55.519 -51.738  1.00  0.00     0.279 HD
HETATM   15  C   UNL     1     -42.943  54.656 -53.001  1.00  0.00     0.254 C 
HETATM   16  C   UNL     1     -43.589  55.996 -53.407  1.00  0.00     0.150 C 
ENDBRANCH   1   9
BRANCH   5  17
HETATM   17  N   UNL     1     -44.215  56.411 -59.897  1.00  0.00    -0.114 N 
HETATM   18  O   UNL     1     -45.358  56.022 -60.157  1.00  0.00    -0.532 OA
HETATM   19  O   UNL     1     -43.322  56.674 -60.713  1.00  0.00    -0.532 OA
ENDBRANCH   5  17
TORSDOF 2
ENDMDL
