MODEL 1
REMARK VINA RESULT:      -7.7      0.000      0.000
REMARK  10 active torsions:
REMARK  status: ('A' for Active; 'I' for Inactive)
REMARK    1  A    between atoms: C_2  and  O_3 
REMARK    2  A    between atoms: O_3  and  C_4 
REMARK    3  A    between atoms: C_7  and  C_8 
REMARK    4  A    between atoms: C_8  and  C_9 
REMARK    5  A    between atoms: C_10  and  C_11 
REMARK    6  A    between atoms: C_13  and  N_14 
REMARK    7  A    between atoms: N_20  and  C_21 
REMARK    8  A    between atoms: C_21  and  C_22 
REMARK    9  A    between atoms: C_22  and  N_23 
REMARK   10  A    between atoms: C_34  and  O_35 
ROOT
HETATM    1  C   UNL     1     -42.821  57.407 -56.472  1.00  0.00     0.059 C 
HETATM    2  C   UNL     1     -43.425  58.049 -55.262  1.00  0.00     0.161 C 
HETATM    3  N   UNL     1     -43.289  59.465 -55.603  1.00  0.00    -0.332 N 
HETATM    4  C   UNL     1     -42.502  59.637 -56.722  1.00  0.00     0.278 C 
HETATM    5  O   UNL     1     -42.128  60.714 -57.153  1.00  0.00    -0.265 OA
HETATM    6  C   UNL     1     -42.266  58.304 -57.303  1.00  0.00     0.146 C 
ENDROOT
BRANCH   1   7
HETATM    7  C   UNL     1     -42.725  55.968 -56.789  1.00  0.00     0.193 C 
HETATM    8  O   UNL     1     -43.123  55.575 -57.884  1.00  0.00    -0.287 OA
BRANCH   7   9
HETATM    9  C   UNL     1     -42.113  55.002 -55.851  1.00  0.00     0.015 A 
HETATM   10  C   UNL     1     -40.755  55.012 -55.521  1.00  0.00     0.018 A 
HETATM   11  C   UNL     1     -40.245  54.084 -54.600  1.00  0.00     0.038 A 
HETATM   12  C   UNL     1     -41.097  53.179 -53.967  1.00  0.00     0.069 A 
HETATM   13  C   UNL     1     -42.457  53.191 -54.285  1.00  0.00     0.038 A 
HETATM   14  C   UNL     1     -42.968  54.097 -55.216  1.00  0.00     0.018 A 
BRANCH  12  15
HETATM   15  O   UNL     1     -40.760  52.255 -53.026  1.00  0.00    -0.347 OA
BRANCH  15  16
HETATM   16  C   UNL     1     -39.644  51.383 -53.228  1.00  0.00     0.120 C 
HETATM   17  C   UNL     1     -40.004  50.372 -54.311  1.00  0.00     0.040 C 
HETATM   18  C   UNL     1     -39.381  50.676 -51.901  1.00  0.00     0.040 C 
ENDBRANCH  15  16
ENDBRANCH  12  15
ENDBRANCH   7   9
ENDBRANCH   1   7
BRANCH   2  19
HETATM   19  C   UNL     1     -42.752  57.713 -53.944  1.00  0.00    -0.028 A 
HETATM   20  C   UNL     1     -43.456  56.962 -52.987  1.00  0.00     0.045 A 
HETATM   21  C   UNL     1     -42.864  56.647 -51.752  1.00  0.00     0.103 A 
HETATM   22  C   UNL     1     -41.564  57.064 -51.456  1.00  0.00     0.036 A 
HETATM   23  C   UNL     1     -40.861  57.811 -52.401  1.00  0.00     0.003 A 
HETATM   24  C   UNL     1     -41.451  58.142 -53.627  1.00  0.00     0.010 A 
BRANCH  21  25
HETATM   25  N   UNL     1     -43.641  55.904 -50.751  1.00  0.00    -0.116 N 
HETATM   26  O   UNL     1     -44.746  56.372 -50.438  1.00  0.00    -0.532 OA
HETATM   27  O   UNL     1     -43.134  54.890 -50.260  1.00  0.00    -0.532 OA
ENDBRANCH  21  25
ENDBRANCH   2  19
BRANCH   6  28
HETATM   28  O   UNL     1     -41.600  58.104 -58.475  1.00  0.00    -0.355 OA
HETATM   29  H   UNL     1     -40.822  58.711 -58.483  1.00  0.00     0.218 HD
ENDBRANCH   6  28
BRANCH   3  30
HETATM   30  C   UNL     1     -43.740  60.559 -54.752  1.00  0.00     0.155 C 
BRANCH  30  31
HETATM   31  C   UNL     1     -45.135  60.308 -54.110  1.00  0.00     0.254 C 
BRANCH  31  32
HETATM   32  N   UNL     1     -45.362  61.102 -52.815  1.00  0.00    -0.066 N 
HETATM   33  H   UNL     1     -45.683  62.033 -53.131  1.00  0.00     0.280 HD
HETATM   34  C   UNL     1     -44.064  61.357 -52.035  1.00  0.00     0.262 C 
HETATM   35  C   UNL     1     -43.636  60.137 -51.182  1.00  0.00     0.260 C 
HETATM   36  N   UNL     1     -44.755  59.684 -50.282  1.00  0.00    -0.072 N 
HETATM   37  H   UNL     1     -44.934  60.363 -49.526  1.00  0.00     0.277 HD
HETATM   38  H   UNL     1     -44.458  58.826 -49.784  1.00  0.00     0.277 HD
HETATM   39  C   UNL     1     -46.028  59.362 -51.032  1.00  0.00     0.260 C 
HETATM   40  C   UNL     1     -46.479  60.565 -51.901  1.00  0.00     0.262 C 
ENDBRANCH  31  32
ENDBRANCH  30  31
ENDBRANCH   3  30
TORSDOF 10
ENDMDL
MODEL 2
REMARK VINA RESULT:      -7.5      1.586      1.902
REMARK  10 active torsions:
REMARK  status: ('A' for Active; 'I' for Inactive)
REMARK    1  A    between atoms: C_2  and  O_3 
REMARK    2  A    between atoms: O_3  and  C_4 
REMARK    3  A    between atoms: C_7  and  C_8 
REMARK    4  A    between atoms: C_8  and  C_9 
REMARK    5  A    between atoms: C_10  and  C_11 
REMARK    6  A    between atoms: C_13  and  N_14 
REMARK    7  A    between atoms: N_20  and  C_21 
REMARK    8  A    between atoms: C_21  and  C_22 
REMARK    9  A    between atoms: C_22  and  N_23 
REMARK   10  A    between atoms: C_34  and  O_35 
ROOT
HETATM    1  C   UNL     1     -42.870  57.283 -56.287  1.00  0.00     0.059 C 
HETATM    2  C   UNL     1     -43.535  57.947 -55.123  1.00  0.00     0.161 C 
HETATM    3  N   UNL     1     -43.484  59.349 -55.536  1.00  0.00    -0.332 N 
HETATM    4  C   UNL     1     -42.690  59.513 -56.651  1.00  0.00     0.278 C 
HETATM    5  O   UNL     1     -42.377  60.588 -57.134  1.00  0.00    -0.265 OA
HETATM    6  C   UNL     1     -42.359  58.169 -57.157  1.00  0.00     0.146 C 
ENDROOT
BRANCH   1   7
HETATM    7  C   UNL     1     -42.677  55.839 -56.525  1.00  0.00     0.193 C 
HETATM    8  O   UNL     1     -43.050  55.360 -57.595  1.00  0.00    -0.287 OA
BRANCH   7   9
HETATM    9  C   UNL     1     -41.999  54.970 -55.540  1.00  0.00     0.015 A 
HETATM   10  C   UNL     1     -40.661  55.133 -55.169  1.00  0.00     0.018 A 
HETATM   11  C   UNL     1     -40.088  54.290 -54.204  1.00  0.00     0.038 A 
HETATM   12  C   UNL     1     -40.861  53.318 -53.570  1.00  0.00     0.069 A 
HETATM   13  C   UNL     1     -42.204  53.177 -53.929  1.00  0.00     0.038 A 
HETATM   14  C   UNL     1     -42.775  53.997 -54.903  1.00  0.00     0.018 A 
BRANCH  12  15
HETATM   15  O   UNL     1     -40.461  52.461 -52.590  1.00  0.00    -0.347 OA
BRANCH  15  16
HETATM   16  C   UNL     1     -39.506  51.433 -52.867  1.00  0.00     0.120 C 
HETATM   17  C   UNL     1     -39.938  50.694 -54.129  1.00  0.00     0.040 C 
HETATM   18  C   UNL     1     -39.503  50.489 -51.667  1.00  0.00     0.040 C 
ENDBRANCH  15  16
ENDBRANCH  12  15
ENDBRANCH   7   9
ENDBRANCH   1   7
BRANCH   2  19
HETATM   19  C   UNL     1     -42.867  57.725 -53.779  1.00  0.00    -0.028 A 
HETATM   20  C   UNL     1     -41.656  58.381 -53.498  1.00  0.00     0.045 A 
HETATM   21  C   UNL     1     -41.007  58.184 -52.267  1.00  0.00     0.103 A 
HETATM   22  C   UNL     1     -41.556  57.342 -51.297  1.00  0.00     0.036 A 
HETATM   23  C   UNL     1     -42.756  56.685 -51.571  1.00  0.00     0.003 A 
HETATM   24  C   UNL     1     -43.399  56.865 -52.801  1.00  0.00     0.010 A 
BRANCH  21  25
HETATM   25  N   UNL     1     -39.718  58.844 -52.020  1.00  0.00    -0.116 N 
HETATM   26  O   UNL     1     -39.444  59.115 -50.842  1.00  0.00    -0.532 OA
HETATM   27  O   UNL     1     -39.013  59.120 -52.997  1.00  0.00    -0.532 OA
ENDBRANCH  21  25
ENDBRANCH   2  19
BRANCH   6  28
HETATM   28  O   UNL     1     -41.660  57.952 -58.307  1.00  0.00    -0.355 OA
HETATM   29  H   UNL     1     -40.705  57.887 -58.068  1.00  0.00     0.218 HD
ENDBRANCH   6  28
BRANCH   3  30
HETATM   30  C   UNL     1     -44.018  60.455 -54.752  1.00  0.00     0.155 C 
BRANCH  30  31
HETATM   31  C   UNL     1     -45.347  60.107 -54.020  1.00  0.00     0.254 C 
BRANCH  31  32
HETATM   32  N   UNL     1     -45.614  60.987 -52.788  1.00  0.00    -0.066 N 
HETATM   33  H   UNL     1     -46.084  61.827 -53.164  1.00  0.00     0.280 HD
HETATM   34  C   UNL     1     -44.324  61.497 -52.129  1.00  0.00     0.262 C 
HETATM   35  C   UNL     1     -43.674  60.440 -51.202  1.00  0.00     0.260 C 
HETATM   36  N   UNL     1     -44.662  59.927 -50.188  1.00  0.00    -0.072 N 
HETATM   37  H   UNL     1     -44.895  60.646 -49.485  1.00  0.00     0.277 HD
HETATM   38  H   UNL     1     -44.214  59.173 -49.636  1.00  0.00     0.277 HD
HETATM   39  C   UNL     1     -45.915  59.357 -50.813  1.00  0.00     0.260 C 
HETATM   40  C   UNL     1     -46.586  60.393 -51.753  1.00  0.00     0.262 C 
ENDBRANCH  31  32
ENDBRANCH  30  31
ENDBRANCH   3  30
TORSDOF 10
ENDMDL
MODEL 3
REMARK VINA RESULT:      -7.2      2.743      5.593
REMARK  10 active torsions:
REMARK  status: ('A' for Active; 'I' for Inactive)
REMARK    1  A    between atoms: C_2  and  O_3 
REMARK    2  A    between atoms: O_3  and  C_4 
REMARK    3  A    between atoms: C_7  and  C_8 
REMARK    4  A    between atoms: C_8  and  C_9 
REMARK    5  A    between atoms: C_10  and  C_11 
REMARK    6  A    between atoms: C_13  and  N_14 
REMARK    7  A    between atoms: N_20  and  C_21 
REMARK    8  A    between atoms: C_21  and  C_22 
REMARK    9  A    between atoms: C_22  and  N_23 
REMARK   10  A    between atoms: C_34  and  O_35 
ROOT
HETATM    1  C   UNL     1     -42.167  58.253 -54.080  1.00  0.00     0.059 C 
HETATM    2  C   UNL     1     -42.530  58.590 -55.492  1.00  0.00     0.161 C 
HETATM    3  N   UNL     1     -43.730  59.401 -55.284  1.00  0.00    -0.332 N 
HETATM    4  C   UNL     1     -44.152  59.343 -53.972  1.00  0.00     0.278 C 
HETATM    5  O   UNL     1     -45.189  59.825 -53.551  1.00  0.00    -0.265 OA
HETATM    6  C   UNL     1     -43.100  58.656 -53.202  1.00  0.00     0.146 C 
ENDROOT
BRANCH   1   7
HETATM    7  C   UNL     1     -40.987  57.511 -53.594  1.00  0.00     0.193 C 
HETATM    8  O   UNL     1     -40.040  58.143 -53.129  1.00  0.00    -0.287 OA
BRANCH   7   9
HETATM    9  C   UNL     1     -40.940  56.033 -53.598  1.00  0.00     0.015 A 
HETATM   10  C   UNL     1     -41.572  55.245 -52.632  1.00  0.00     0.018 A 
HETATM   11  C   UNL     1     -41.511  53.844 -52.713  1.00  0.00     0.038 A 
HETATM   12  C   UNL     1     -40.865  53.229 -53.785  1.00  0.00     0.069 A 
HETATM   13  C   UNL     1     -40.256  54.023 -54.759  1.00  0.00     0.038 A 
HETATM   14  C   UNL     1     -40.293  55.416 -54.673  1.00  0.00     0.018 A 
BRANCH  12  15
HETATM   15  O   UNL     1     -40.762  51.891 -54.022  1.00  0.00    -0.347 OA
BRANCH  15  16
HETATM   16  C   UNL     1     -39.552  51.190 -53.719  1.00  0.00     0.120 C 
HETATM   17  C   UNL     1     -39.566  49.854 -54.454  1.00  0.00     0.040 C 
HETATM   18  C   UNL     1     -39.528  50.970 -52.209  1.00  0.00     0.040 C 
ENDBRANCH  15  16
ENDBRANCH  12  15
ENDBRANCH   7   9
ENDBRANCH   1   7
BRANCH   2  19
HETATM   19  C   UNL     1     -42.796  57.400 -56.395  1.00  0.00    -0.028 A 
HETATM   20  C   UNL     1     -42.561  57.521 -57.776  1.00  0.00     0.045 A 
HETATM   21  C   UNL     1     -42.811  56.441 -58.639  1.00  0.00     0.103 A 
HETATM   22  C   UNL     1     -43.287  55.225 -58.142  1.00  0.00     0.036 A 
HETATM   23  C   UNL     1     -43.525  55.099 -56.773  1.00  0.00     0.003 A 
HETATM   24  C   UNL     1     -43.293  56.177 -55.910  1.00  0.00     0.010 A 
BRANCH  21  25
HETATM   25  N   UNL     1     -42.604  56.612 -60.083  1.00  0.00    -0.116 N 
HETATM   26  O   UNL     1     -41.569  57.197 -60.435  1.00  0.00    -0.532 OA
HETATM   27  O   UNL     1     -43.484  56.201 -60.847  1.00  0.00    -0.532 OA
ENDBRANCH  21  25
ENDBRANCH   2  19
BRANCH   6  28
HETATM   28  O   UNL     1     -43.142  58.503 -51.848  1.00  0.00    -0.355 OA
HETATM   29  H   UNL     1     -42.318  58.899 -51.478  1.00  0.00     0.218 HD
ENDBRANCH   6  28
BRANCH   3  30
HETATM   30  C   UNL     1     -44.503  60.011 -56.358  1.00  0.00     0.155 C 
BRANCH  30  31
HETATM   31  C   UNL     1     -45.688  59.127 -56.844  1.00  0.00     0.254 C 
BRANCH  31  32
HETATM   32  N   UNL     1     -46.393  59.684 -58.091  1.00  0.00    -0.066 N 
HETATM   33  H   UNL     1     -47.065  60.378 -57.724  1.00  0.00     0.280 HD
HETATM   34  C   UNL     1     -47.244  58.631 -58.816  1.00  0.00     0.262 C 
HETATM   35  C   UNL     1     -46.397  57.715 -59.734  1.00  0.00     0.260 C 
HETATM   36  N   UNL     1     -45.566  58.526 -60.693  1.00  0.00    -0.072 N 
HETATM   37  H   UNL     1     -46.151  58.987 -61.408  1.00  0.00     0.277 HD
HETATM   38  H   UNL     1     -44.962  57.885 -61.238  1.00  0.00     0.277 HD
HETATM   39  C   UNL     1     -44.668  59.527 -60.002  1.00  0.00     0.260 C 
HETATM   40  C   UNL     1     -45.488  60.456 -59.069  1.00  0.00     0.262 C 
ENDBRANCH  31  32
ENDBRANCH  30  31
ENDBRANCH   3  30
TORSDOF 10
ENDMDL
MODEL 4
REMARK VINA RESULT:      -7.0      3.232      6.125
REMARK  10 active torsions:
REMARK  status: ('A' for Active; 'I' for Inactive)
REMARK    1  A    between atoms: C_2  and  O_3 
REMARK    2  A    between atoms: O_3  and  C_4 
REMARK    3  A    between atoms: C_7  and  C_8 
REMARK    4  A    between atoms: C_8  and  C_9 
REMARK    5  A    between atoms: C_10  and  C_11 
REMARK    6  A    between atoms: C_13  and  N_14 
REMARK    7  A    between atoms: N_20  and  C_21 
REMARK    8  A    between atoms: C_21  and  C_22 
REMARK    9  A    between atoms: C_22  and  N_23 
REMARK   10  A    between atoms: C_34  and  O_35 
ROOT
HETATM    1  C   UNL     1     -43.424  58.112 -55.225  1.00  0.00     0.059 C 
HETATM    2  C   UNL     1     -43.312  58.363 -56.696  1.00  0.00     0.161 C 
HETATM    3  N   UNL     1     -43.075  59.806 -56.714  1.00  0.00    -0.332 N 
HETATM    4  C   UNL     1     -43.267  60.360 -55.466  1.00  0.00     0.278 C 
HETATM    5  O   UNL     1     -43.253  61.555 -55.224  1.00  0.00    -0.265 OA
HETATM    6  C   UNL     1     -43.425  59.249 -54.511  1.00  0.00     0.146 C 
ENDROOT
BRANCH   1   7
HETATM    7  C   UNL     1     -43.587  56.819 -54.530  1.00  0.00     0.193 C 
HETATM    8  O   UNL     1     -44.620  56.615 -53.894  1.00  0.00    -0.287 OA
BRANCH   7   9
HETATM    9  C   UNL     1     -42.572  55.748 -54.626  1.00  0.00     0.015 A 
HETATM   10  C   UNL     1     -41.197  55.998 -54.650  1.00  0.00     0.018 A 
HETATM   11  C   UNL     1     -40.287  54.931 -54.712  1.00  0.00     0.038 A 
HETATM   12  C   UNL     1     -40.743  53.614 -54.698  1.00  0.00     0.069 A 
HETATM   13  C   UNL     1     -42.119  53.372 -54.650  1.00  0.00     0.038 A 
HETATM   14  C   UNL     1     -43.031  54.428 -54.610  1.00  0.00     0.018 A 
BRANCH  12  15
HETATM   15  O   UNL     1     -39.986  52.482 -54.709  1.00  0.00    -0.347 OA
BRANCH  15  16
HETATM   16  C   UNL     1     -40.264  51.411 -53.802  1.00  0.00     0.120 C 
HETATM   17  C   UNL     1     -39.518  51.670 -52.498  1.00  0.00     0.040 C 
HETATM   18  C   UNL     1     -39.767  50.127 -54.460  1.00  0.00     0.040 C 
ENDBRANCH  15  16
ENDBRANCH  12  15
ENDBRANCH   7   9
ENDBRANCH   1   7
BRANCH   2  19
HETATM   19  C   UNL     1     -44.530  57.975 -57.515  1.00  0.00    -0.028 A 
HETATM   20  C   UNL     1     -44.360  57.180 -58.662  1.00  0.00     0.045 A 
HETATM   21  C   UNL     1     -45.467  56.816 -59.448  1.00  0.00     0.103 A 
HETATM   22  C   UNL     1     -46.755  57.229 -59.100  1.00  0.00     0.036 A 
HETATM   23  C   UNL     1     -46.931  58.020 -57.965  1.00  0.00     0.003 A 
HETATM   24  C   UNL     1     -45.830  58.399 -57.187  1.00  0.00     0.010 A 
BRANCH  21  25
HETATM   25  N   UNL     1     -45.254  56.026 -60.667  1.00  0.00    -0.116 N 
HETATM   26  O   UNL     1     -44.079  55.797 -60.988  1.00  0.00    -0.532 OA
HETATM   27  O   UNL     1     -46.249  55.677 -61.312  1.00  0.00    -0.532 OA
ENDBRANCH  21  25
ENDBRANCH   2  19
BRANCH   6  28
HETATM   28  O   UNL     1     -43.542  59.429 -53.165  1.00  0.00    -0.355 OA
HETATM   29  H   UNL     1     -42.798  60.008 -52.876  1.00  0.00     0.218 HD
ENDBRANCH   6  28
BRANCH   3  30
HETATM   30  C   UNL     1     -42.878  60.589 -57.928  1.00  0.00     0.155 C 
BRANCH  30  31
HETATM   31  C   UNL     1     -41.379  60.816 -58.279  1.00  0.00     0.254 C 
BRANCH  31  32
HETATM   32  N   UNL     1     -40.930  62.277 -58.120  1.00  0.00    -0.066 N 
HETATM   33  H   UNL     1     -40.622  62.350 -57.136  1.00  0.00     0.280 HD
HETATM   34  C   UNL     1     -42.087  63.276 -58.265  1.00  0.00     0.262 C 
HETATM   35  C   UNL     1     -42.434  63.570 -59.746  1.00  0.00     0.260 C 
HETATM   36  N   UNL     1     -41.213  64.005 -60.513  1.00  0.00    -0.072 N 
HETATM   37  H   UNL     1     -40.896  64.944 -60.225  1.00  0.00     0.277 HD
HETATM   38  H   UNL     1     -41.468  64.121 -61.510  1.00  0.00     0.277 HD
HETATM   39  C   UNL     1     -40.079  63.007 -60.441  1.00  0.00     0.260 C 
HETATM   40  C   UNL     1     -39.713  62.688 -58.969  1.00  0.00     0.262 C 
ENDBRANCH  31  32
ENDBRANCH  30  31
ENDBRANCH   3  30
TORSDOF 10
ENDMDL
MODEL 5
REMARK VINA RESULT:      -6.9      1.647      2.313
REMARK  10 active torsions:
REMARK  status: ('A' for Active; 'I' for Inactive)
REMARK    1  A    between atoms: C_2  and  O_3 
REMARK    2  A    between atoms: O_3  and  C_4 
REMARK    3  A    between atoms: C_7  and  C_8 
REMARK    4  A    between atoms: C_8  and  C_9 
REMARK    5  A    between atoms: C_10  and  C_11 
REMARK    6  A    between atoms: C_13  and  N_14 
REMARK    7  A    between atoms: N_20  and  C_21 
REMARK    8  A    between atoms: C_21  and  C_22 
REMARK    9  A    between atoms: C_22  and  N_23 
REMARK   10  A    between atoms: C_34  and  O_35 
ROOT
HETATM    1  C   UNL     1     -42.946  57.441 -56.764  1.00  0.00     0.059 C 
HETATM    2  C   UNL     1     -43.638  58.342 -55.790  1.00  0.00     0.161 C 
HETATM    3  N   UNL     1     -43.343  59.654 -56.367  1.00  0.00    -0.332 N 
HETATM    4  C   UNL     1     -42.412  59.556 -57.380  1.00  0.00     0.278 C 
HETATM    5  O   UNL     1     -41.899  60.504 -57.949  1.00  0.00    -0.265 OA
HETATM    6  C   UNL     1     -42.220  58.123 -57.664  1.00  0.00     0.146 C 
ENDROOT
BRANCH   1   7
HETATM    7  C   UNL     1     -42.933  55.965 -56.790  1.00  0.00     0.193 C 
HETATM    8  O   UNL     1     -43.318  55.388 -57.806  1.00  0.00    -0.287 OA
BRANCH   7   9
HETATM    9  C   UNL     1     -42.418  55.169 -55.655  1.00  0.00     0.015 A 
HETATM   10  C   UNL     1     -41.057  54.927 -55.446  1.00  0.00     0.018 A 
HETATM   11  C   UNL     1     -40.635  54.187 -54.330  1.00  0.00     0.038 A 
HETATM   12  C   UNL     1     -41.563  53.733 -53.394  1.00  0.00     0.069 A 
HETATM   13  C   UNL     1     -42.919  54.000 -53.597  1.00  0.00     0.038 A 
HETATM   14  C   UNL     1     -43.349  54.716 -54.716  1.00  0.00     0.018 A 
BRANCH  12  15
HETATM   15  O   UNL     1     -41.304  53.046 -52.247  1.00  0.00    -0.347 OA
BRANCH  15  16
HETATM   16  C   UNL     1     -39.970  52.958 -51.737  1.00  0.00     0.120 C 
HETATM   17  C   UNL     1     -39.619  51.487 -51.544  1.00  0.00     0.040 C 
HETATM   18  C   UNL     1     -39.952  53.694 -50.400  1.00  0.00     0.040 C 
ENDBRANCH  15  16
ENDBRANCH  12  15
ENDBRANCH   7   9
ENDBRANCH   1   7
BRANCH   2  19
HETATM   19  C   UNL     1     -43.163  58.232 -54.352  1.00  0.00    -0.028 A 
HETATM   20  C   UNL     1     -44.090  57.911 -53.346  1.00  0.00     0.045 A 
HETATM   21  C   UNL     1     -43.682  57.816 -52.005  1.00  0.00     0.103 A 
HETATM   22  C   UNL     1     -42.348  58.028 -51.648  1.00  0.00     0.036 A 
HETATM   23  C   UNL     1     -41.423  58.349 -52.641  1.00  0.00     0.003 A 
HETATM   24  C   UNL     1     -41.827  58.461 -53.977  1.00  0.00     0.010 A 
BRANCH  21  25
HETATM   25  N   UNL     1     -44.682  57.528 -50.968  1.00  0.00    -0.116 N 
HETATM   26  O   UNL     1     -44.714  56.370 -50.527  1.00  0.00    -0.532 OA
HETATM   27  O   UNL     1     -45.447  58.439 -50.633  1.00  0.00    -0.532 OA
ENDBRANCH  21  25
ENDBRANCH   2  19
BRANCH   6  28
HETATM   28  O   UNL     1     -41.433  57.659 -58.676  1.00  0.00    -0.355 OA
HETATM   29  H   UNL     1     -41.830  56.815 -58.999  1.00  0.00     0.218 HD
ENDBRANCH   6  28
BRANCH   3  30
HETATM   30  C   UNL     1     -43.801  60.918 -55.805  1.00  0.00     0.155 C 
BRANCH  30  31
HETATM   31  C   UNL     1     -45.177  61.380 -56.365  1.00  0.00     0.254 C 
BRANCH  31  32
HETATM   32  N   UNL     1     -46.328  61.227 -55.358  1.00  0.00    -0.066 N 
HETATM   33  H   UNL     1     -46.716  60.288 -55.544  1.00  0.00     0.280 HD
HETATM   34  C   UNL     1     -47.480  62.208 -55.615  1.00  0.00     0.262 C 
HETATM   35  C   UNL     1     -47.197  63.619 -55.041  1.00  0.00     0.260 C 
HETATM   36  N   UNL     1     -46.833  63.548 -53.582  1.00  0.00    -0.072 N 
HETATM   37  H   UNL     1     -47.644  63.288 -52.999  1.00  0.00     0.277 HD
HETATM   38  H   UNL     1     -46.581  64.497 -53.253  1.00  0.00     0.277 HD
HETATM   39  C   UNL     1     -45.657  62.638 -53.307  1.00  0.00     0.260 C 
HETATM   40  C   UNL     1     -45.909  61.218 -53.876  1.00  0.00     0.262 C 
ENDBRANCH  31  32
ENDBRANCH  30  31
ENDBRANCH   3  30
TORSDOF 10
ENDMDL
MODEL 6
REMARK VINA RESULT:      -6.7      3.035      5.830
REMARK  10 active torsions:
REMARK  status: ('A' for Active; 'I' for Inactive)
REMARK    1  A    between atoms: C_2  and  O_3 
REMARK    2  A    between atoms: O_3  and  C_4 
REMARK    3  A    between atoms: C_7  and  C_8 
REMARK    4  A    between atoms: C_8  and  C_9 
REMARK    5  A    between atoms: C_10  and  C_11 
REMARK    6  A    between atoms: C_13  and  N_14 
REMARK    7  A    between atoms: N_20  and  C_21 
REMARK    8  A    between atoms: C_21  and  C_22 
REMARK    9  A    between atoms: C_22  and  N_23 
REMARK   10  A    between atoms: C_34  and  O_35 
ROOT
HETATM    1  C   UNL     1     -43.980  59.215 -53.966  1.00  0.00     0.059 C 
HETATM    2  C   UNL     1     -43.086  58.516 -54.941  1.00  0.00     0.161 C 
HETATM    3  N   UNL     1     -43.704  58.901 -56.210  1.00  0.00    -0.332 N 
HETATM    4  C   UNL     1     -44.918  59.522 -56.007  1.00  0.00     0.278 C 
HETATM    5  O   UNL     1     -45.698  59.836 -56.889  1.00  0.00    -0.265 OA
HETATM    6  C   UNL     1     -45.047  59.774 -54.560  1.00  0.00     0.146 C 
ENDROOT
BRANCH   1   7
HETATM    7  C   UNL     1     -43.846  59.291 -52.498  1.00  0.00     0.193 C 
HETATM    8  O   UNL     1     -44.331  60.255 -51.908  1.00  0.00    -0.287 OA
BRANCH   7   9
HETATM    9  C   UNL     1     -43.196  58.216 -51.717  1.00  0.00     0.015 A 
HETATM   10  C   UNL     1     -43.867  57.064 -51.298  1.00  0.00     0.018 A 
HETATM   11  C   UNL     1     -43.181  56.068 -50.585  1.00  0.00     0.038 A 
HETATM   12  C   UNL     1     -41.816  56.195 -50.334  1.00  0.00     0.069 A 
HETATM   13  C   UNL     1     -41.147  57.339 -50.777  1.00  0.00     0.038 A 
HETATM   14  C   UNL     1     -41.827  58.344 -51.468  1.00  0.00     0.018 A 
BRANCH  12  15
HETATM   15  O   UNL     1     -41.011  55.299 -49.698  1.00  0.00    -0.347 OA
BRANCH  15  16
HETATM   16  C   UNL     1     -41.096  53.903 -49.998  1.00  0.00     0.120 C 
HETATM   17  C   UNL     1     -40.422  53.120 -48.877  1.00  0.00     0.040 C 
HETATM   18  C   UNL     1     -40.365  53.683 -51.320  1.00  0.00     0.040 C 
ENDBRANCH  15  16
ENDBRANCH  12  15
ENDBRANCH   7   9
ENDBRANCH   1   7
BRANCH   2  19
HETATM   19  C   UNL     1     -43.004  57.009 -54.781  1.00  0.00    -0.028 A 
HETATM   20  C   UNL     1     -41.754  56.375 -54.887  1.00  0.00     0.045 A 
HETATM   21  C   UNL     1     -41.649  54.979 -54.757  1.00  0.00     0.103 A 
HETATM   22  C   UNL     1     -42.780  54.198 -54.511  1.00  0.00     0.036 A 
HETATM   23  C   UNL     1     -44.024  54.820 -54.407  1.00  0.00     0.003 A 
HETATM   24  C   UNL     1     -44.138  56.208 -54.552  1.00  0.00     0.010 A 
BRANCH  21  25
HETATM   25  N   UNL     1     -40.337  54.339 -54.922  1.00  0.00    -0.116 N 
HETATM   26  O   UNL     1     -40.304  53.102 -54.850  1.00  0.00    -0.532 OA
HETATM   27  O   UNL     1     -39.353  55.069 -55.079  1.00  0.00    -0.532 OA
ENDBRANCH  21  25
ENDBRANCH   2  19
BRANCH   6  28
HETATM   28  O   UNL     1     -46.088  60.459 -54.008  1.00  0.00    -0.355 OA
HETATM   29  H   UNL     1     -46.435  61.077 -54.694  1.00  0.00     0.218 HD
ENDBRANCH   6  28
BRANCH   3  30
HETATM   30  C   UNL     1     -43.213  58.490 -57.519  1.00  0.00     0.155 C 
BRANCH  30  31
HETATM   31  C   UNL     1     -43.912  57.213 -58.068  1.00  0.00     0.254 C 
BRANCH  31  32
HETATM   32  N   UNL     1     -44.342  57.336 -59.538  1.00  0.00    -0.066 N 
HETATM   33  H   UNL     1     -43.673  58.008 -59.950  1.00  0.00     0.280 HD
HETATM   34  C   UNL     1     -45.726  57.980 -59.703  1.00  0.00     0.262 C 
HETATM   35  C   UNL     1     -46.880  56.971 -59.476  1.00  0.00     0.260 C 
HETATM   36  N   UNL     1     -46.716  55.755 -60.349  1.00  0.00    -0.072 N 
HETATM   37  H   UNL     1     -46.878  55.975 -61.344  1.00  0.00     0.277 HD
HETATM   38  H   UNL     1     -47.462  55.074 -60.118  1.00  0.00     0.277 HD
HETATM   39  C   UNL     1     -45.385  55.062 -60.159  1.00  0.00     0.260 C 
HETATM   40  C   UNL     1     -44.210  56.050 -60.373  1.00  0.00     0.262 C 
ENDBRANCH  31  32
ENDBRANCH  30  31
ENDBRANCH   3  30
TORSDOF 10
ENDMDL
MODEL 7
REMARK VINA RESULT:      -6.7      3.270      6.164
REMARK  10 active torsions:
REMARK  status: ('A' for Active; 'I' for Inactive)
REMARK    1  A    between atoms: C_2  and  O_3 
REMARK    2  A    between atoms: O_3  and  C_4 
REMARK    3  A    between atoms: C_7  and  C_8 
REMARK    4  A    between atoms: C_8  and  C_9 
REMARK    5  A    between atoms: C_10  and  C_11 
REMARK    6  A    between atoms: C_13  and  N_14 
REMARK    7  A    between atoms: N_20  and  C_21 
REMARK    8  A    between atoms: C_21  and  C_22 
REMARK    9  A    between atoms: C_22  and  N_23 
REMARK   10  A    between atoms: C_34  and  O_35 
ROOT
HETATM    1  C   UNL     1     -43.050  57.707 -55.607  1.00  0.00     0.059 C 
HETATM    2  C   UNL     1     -42.422  57.899 -56.952  1.00  0.00     0.161 C 
HETATM    3  N   UNL     1     -42.388  59.359 -57.036  1.00  0.00    -0.332 N 
HETATM    4  C   UNL     1     -43.110  59.937 -56.013  1.00  0.00     0.278 C 
HETATM    5  O   UNL     1     -43.346  61.128 -55.912  1.00  0.00    -0.265 OA
HETATM    6  C   UNL     1     -43.471  58.864 -55.070  1.00  0.00     0.146 C 
ENDROOT
BRANCH   1   7
HETATM    7  C   UNL     1     -43.293  56.442 -54.887  1.00  0.00     0.193 C 
HETATM    8  O   UNL     1     -44.402  56.246 -54.392  1.00  0.00    -0.287 OA
BRANCH   7   9
HETATM    9  C   UNL     1     -42.262  55.386 -54.795  1.00  0.00     0.015 A 
HETATM   10  C   UNL     1     -40.906  55.618 -55.039  1.00  0.00     0.018 A 
HETATM   11  C   UNL     1     -39.975  54.576 -54.904  1.00  0.00     0.038 A 
HETATM   12  C   UNL     1     -40.388  53.314 -54.476  1.00  0.00     0.069 A 
HETATM   13  C   UNL     1     -41.742  53.096 -54.212  1.00  0.00     0.038 A 
HETATM   14  C   UNL     1     -42.677  54.122 -54.365  1.00  0.00     0.018 A 
BRANCH  12  15
HETATM   15  O   UNL     1     -39.602  52.223 -54.258  1.00  0.00    -0.347 OA
BRANCH  15  16
HETATM   16  C   UNL     1     -40.134  51.060 -53.618  1.00  0.00     0.120 C 
HETATM   17  C   UNL     1     -39.513  50.938 -52.231  1.00  0.00     0.040 C 
HETATM   18  C   UNL     1     -39.754  49.860 -54.483  1.00  0.00     0.040 C 
ENDBRANCH  15  16
ENDBRANCH  12  15
ENDBRANCH   7   9
ENDBRANCH   1   7
BRANCH   2  19
HETATM   19  C   UNL     1     -43.175  57.279 -58.115  1.00  0.00    -0.028 A 
HETATM   20  C   UNL     1     -44.570  57.435 -58.190  1.00  0.00     0.045 A 
HETATM   21  C   UNL     1     -45.296  56.860 -59.248  1.00  0.00     0.103 A 
HETATM   22  C   UNL     1     -44.645  56.134 -60.248  1.00  0.00     0.036 A 
HETATM   23  C   UNL     1     -43.262  55.974 -60.178  1.00  0.00     0.003 A 
HETATM   24  C   UNL     1     -42.535  56.530 -59.118  1.00  0.00     0.010 A 
BRANCH  21  25
HETATM   25  N   UNL     1     -46.758  56.997 -59.273  1.00  0.00    -0.116 N 
HETATM   26  O   UNL     1     -47.274  57.675 -58.372  1.00  0.00    -0.532 OA
HETATM   27  O   UNL     1     -47.380  56.402 -60.160  1.00  0.00    -0.532 OA
ENDBRANCH  21  25
ENDBRANCH   2  19
BRANCH   6  28
HETATM   28  O   UNL     1     -44.113  59.089 -53.889  1.00  0.00    -0.355 OA
HETATM   29  H   UNL     1     -43.914  58.329 -53.292  1.00  0.00     0.218 HD
ENDBRANCH   6  28
BRANCH   3  30
HETATM   30  C   UNL     1     -41.850  60.102 -58.169  1.00  0.00     0.155 C 
BRANCH  30  31
HETATM   31  C   UNL     1     -42.948  60.651 -59.125  1.00  0.00     0.254 C 
BRANCH  31  32
HETATM   32  N   UNL     1     -43.054  59.869 -60.444  1.00  0.00    -0.066 N 
HETATM   33  H   UNL     1     -42.943  58.879 -60.171  1.00  0.00     0.280 HD
HETATM   34  C   UNL     1     -41.895  60.164 -61.407  1.00  0.00     0.262 C 
HETATM   35  C   UNL     1     -42.101  61.480 -62.198  1.00  0.00     0.260 C 
HETATM   36  N   UNL     1     -43.433  61.488 -62.901  1.00  0.00    -0.072 N 
HETATM   37  H   UNL     1     -43.455  60.815 -63.683  1.00  0.00     0.277 HD
HETATM   38  H   UNL     1     -43.566  62.408 -63.356  1.00  0.00     0.277 HD
HETATM   39  C   UNL     1     -44.600  61.265 -61.965  1.00  0.00     0.260 C 
HETATM   40  C   UNL     1     -44.418  59.956 -61.153  1.00  0.00     0.262 C 
ENDBRANCH  31  32
ENDBRANCH  30  31
ENDBRANCH   3  30
TORSDOF 10
ENDMDL
MODEL 8
REMARK VINA RESULT:      -6.7     17.217     20.045
REMARK  10 active torsions:
REMARK  status: ('A' for Active; 'I' for Inactive)
REMARK    1  A    between atoms: C_2  and  O_3 
REMARK    2  A    between atoms: O_3  and  C_4 
REMARK    3  A    between atoms: C_7  and  C_8 
REMARK    4  A    between atoms: C_8  and  C_9 
REMARK    5  A    between atoms: C_10  and  C_11 
REMARK    6  A    between atoms: C_13  and  N_14 
REMARK    7  A    between atoms: N_20  and  C_21 
REMARK    8  A    between atoms: C_21  and  C_22 
REMARK    9  A    between atoms: C_22  and  N_23 
REMARK   10  A    between atoms: C_34  and  O_35 
ROOT
HETATM    1  C   UNL     1     -35.147  40.821 -52.514  1.00  0.00     0.059 C 
HETATM    2  C   UNL     1     -35.009  39.331 -52.517  1.00  0.00     0.161 C 
HETATM    3  N   UNL     1     -34.208  39.124 -51.310  1.00  0.00    -0.332 N 
HETATM    4  C   UNL     1     -33.735  40.319 -50.812  1.00  0.00     0.278 C 
HETATM    5  O   UNL     1     -32.947  40.428 -49.889  1.00  0.00    -0.265 OA
HETATM    6  C   UNL     1     -34.402  41.401 -51.558  1.00  0.00     0.146 C 
ENDROOT
BRANCH   1   7
HETATM    7  C   UNL     1     -35.923  41.667 -53.442  1.00  0.00     0.193 C 
HETATM    8  O   UNL     1     -36.531  42.637 -52.991  1.00  0.00    -0.287 OA
BRANCH   7   9
HETATM    9  C   UNL     1     -35.942  41.413 -54.898  1.00  0.00     0.015 A 
HETATM   10  C   UNL     1     -34.936  41.852 -55.764  1.00  0.00     0.018 A 
HETATM   11  C   UNL     1     -35.002  41.549 -57.134  1.00  0.00     0.038 A 
HETATM   12  C   UNL     1     -36.042  40.766 -57.633  1.00  0.00     0.069 A 
HETATM   13  C   UNL     1     -37.031  40.311 -56.757  1.00  0.00     0.038 A 
HETATM   14  C   UNL     1     -36.984  40.626 -55.398  1.00  0.00     0.018 A 
BRANCH  12  15
HETATM   15  O   UNL     1     -36.216  40.356 -58.920  1.00  0.00    -0.347 OA
BRANCH  15  16
HETATM   16  C   UNL     1     -37.405  40.696 -59.638  1.00  0.00     0.120 C 
HETATM   17  C   UNL     1     -37.442  39.891 -60.932  1.00  0.00     0.040 C 
HETATM   18  C   UNL     1     -37.335  42.191 -59.938  1.00  0.00     0.040 C 
ENDBRANCH  15  16
ENDBRANCH  12  15
ENDBRANCH   7   9
ENDBRANCH   1   7
BRANCH   2  19
HETATM   19  C   UNL     1     -34.346  38.742 -53.749  1.00  0.00    -0.028 A 
HETATM   20  C   UNL     1     -33.075  39.204 -54.130  1.00  0.00     0.045 A 
HETATM   21  C   UNL     1     -32.442  38.687 -55.274  1.00  0.00     0.103 A 
HETATM   22  C   UNL     1     -33.058  37.700 -56.046  1.00  0.00     0.036 A 
HETATM   23  C   UNL     1     -34.321  37.238 -55.674  1.00  0.00     0.003 A 
HETATM   24  C   UNL     1     -34.963  37.761 -54.545  1.00  0.00     0.010 A 
BRANCH  21  25
HETATM   25  N   UNL     1     -31.136  39.224 -55.677  1.00  0.00    -0.116 N 
HETATM   26  O   UNL     1     -30.143  38.518 -55.445  1.00  0.00    -0.532 OA
HETATM   27  O   UNL     1     -31.104  40.352 -56.181  1.00  0.00    -0.532 OA
ENDBRANCH  21  25
ENDBRANCH   2  19
BRANCH   6  28
HETATM   28  O   UNL     1     -34.241  42.723 -51.267  1.00  0.00    -0.355 OA
HETATM   29  H   UNL     1     -33.665  42.784 -50.468  1.00  0.00     0.218 HD
ENDBRANCH   6  28
BRANCH   3  30
HETATM   30  C   UNL     1     -33.783  37.817 -50.823  1.00  0.00     0.155 C 
BRANCH  30  31
HETATM   31  C   UNL     1     -34.683  37.261 -49.682  1.00  0.00     0.254 C 
BRANCH  31  32
HETATM   32  N   UNL     1     -35.019  38.305 -48.606  1.00  0.00    -0.066 N 
HETATM   33  H   UNL     1     -34.409  39.111 -48.824  1.00  0.00     0.280 HD
HETATM   34  C   UNL     1     -34.619  37.856 -47.193  1.00  0.00     0.262 C 
HETATM   35  C   UNL     1     -35.661  36.902 -46.558  1.00  0.00     0.260 C 
HETATM   36  N   UNL     1     -37.040  37.506 -46.588  1.00  0.00    -0.072 N 
HETATM   37  H   UNL     1     -37.121  38.303 -45.936  1.00  0.00     0.277 HD
HETATM   38  H   UNL     1     -37.717  36.813 -46.223  1.00  0.00     0.277 HD
HETATM   39  C   UNL     1     -37.486  37.898 -47.978  1.00  0.00     0.260 C 
HETATM   40  C   UNL     1     -36.459  38.850 -48.644  1.00  0.00     0.262 C 
ENDBRANCH  31  32
ENDBRANCH  30  31
ENDBRANCH   3  30
TORSDOF 10
ENDMDL
MODEL 9
REMARK VINA RESULT:      -6.7      2.514      5.457
REMARK  10 active torsions:
REMARK  status: ('A' for Active; 'I' for Inactive)
REMARK    1  A    between atoms: C_2  and  O_3 
REMARK    2  A    between atoms: O_3  and  C_4 
REMARK    3  A    between atoms: C_7  and  C_8 
REMARK    4  A    between atoms: C_8  and  C_9 
REMARK    5  A    between atoms: C_10  and  C_11 
REMARK    6  A    between atoms: C_13  and  N_14 
REMARK    7  A    between atoms: N_20  and  C_21 
REMARK    8  A    between atoms: C_21  and  C_22 
REMARK    9  A    between atoms: C_22  and  N_23 
REMARK   10  A    between atoms: C_34  and  O_35 
ROOT
HETATM    1  C   UNL     1     -42.198  58.290 -54.047  1.00  0.00     0.059 C 
HETATM    2  C   UNL     1     -42.540  58.726 -55.437  1.00  0.00     0.161 C 
HETATM    3  N   UNL     1     -43.754  59.505 -55.193  1.00  0.00    -0.332 N 
HETATM    4  C   UNL     1     -44.199  59.344 -53.898  1.00  0.00     0.278 C 
HETATM    5  O   UNL     1     -45.250  59.782 -53.463  1.00  0.00    -0.265 OA
HETATM    6  C   UNL     1     -43.153  58.615 -53.160  1.00  0.00     0.146 C 
ENDROOT
BRANCH   1   7
HETATM    7  C   UNL     1     -41.018  57.528 -53.595  1.00  0.00     0.193 C 
HETATM    8  O   UNL     1     -40.049  58.143 -53.153  1.00  0.00    -0.287 OA
BRANCH   7   9
HETATM    9  C   UNL     1     -40.993  56.049 -53.605  1.00  0.00     0.015 A 
HETATM   10  C   UNL     1     -41.701  55.266 -52.688  1.00  0.00     0.018 A 
HETATM   11  C   UNL     1     -41.657  53.866 -52.774  1.00  0.00     0.038 A 
HETATM   12  C   UNL     1     -40.950  53.245 -53.803  1.00  0.00     0.069 A 
HETATM   13  C   UNL     1     -40.264  54.035 -54.729  1.00  0.00     0.038 A 
HETATM   14  C   UNL     1     -40.285  55.427 -54.637  1.00  0.00     0.018 A 
BRANCH  12  15
HETATM   15  O   UNL     1     -40.852  51.907 -54.041  1.00  0.00    -0.347 OA
BRANCH  15  16
HETATM   16  C   UNL     1     -39.624  51.214 -53.800  1.00  0.00     0.120 C 
HETATM   17  C   UNL     1     -39.688  49.855 -54.490  1.00  0.00     0.040 C 
HETATM   18  C   UNL     1     -39.495  51.042 -52.289  1.00  0.00     0.040 C 
ENDBRANCH  15  16
ENDBRANCH  12  15
ENDBRANCH   7   9
ENDBRANCH   1   7
BRANCH   2  19
HETATM   19  C   UNL     1     -42.773  57.603 -56.432  1.00  0.00    -0.028 A 
HETATM   20  C   UNL     1     -42.562  57.844 -57.800  1.00  0.00     0.045 A 
HETATM   21  C   UNL     1     -42.783  56.828 -58.745  1.00  0.00     0.103 A 
HETATM   22  C   UNL     1     -43.205  55.559 -58.343  1.00  0.00     0.036 A 
HETATM   23  C   UNL     1     -43.419  55.313 -56.987  1.00  0.00     0.003 A 
HETATM   24  C   UNL     1     -43.216  56.327 -56.042  1.00  0.00     0.010 A 
BRANCH  21  25
HETATM   25  N   UNL     1     -42.602  57.122 -60.173  1.00  0.00    -0.116 N 
HETATM   26  O   UNL     1     -43.429  56.632 -60.955  1.00  0.00    -0.532 OA
HETATM   27  O   UNL     1     -41.624  57.800 -60.505  1.00  0.00    -0.532 OA
ENDBRANCH  21  25
ENDBRANCH   2  19
BRANCH   6  28
HETATM   28  O   UNL     1     -43.217  58.361 -51.823  1.00  0.00    -0.355 OA
HETATM   29  H   UNL     1     -42.801  59.123 -51.354  1.00  0.00     0.218 HD
ENDBRANCH   6  28
BRANCH   3  30
HETATM   30  C   UNL     1     -44.515  60.183 -56.235  1.00  0.00     0.155 C 
BRANCH  30  31
HETATM   31  C   UNL     1     -44.100  61.670 -56.432  1.00  0.00     0.254 C 
BRANCH  31  32
HETATM   32  N   UNL     1     -43.825  62.037 -57.899  1.00  0.00    -0.066 N 
HETATM   33  H   UNL     1     -44.685  61.763 -58.403  1.00  0.00     0.280 HD
HETATM   34  C   UNL     1     -42.698  61.200 -58.522  1.00  0.00     0.262 C 
HETATM   35  C   UNL     1     -41.291  61.732 -58.150  1.00  0.00     0.260 C 
HETATM   36  N   UNL     1     -41.157  63.194 -58.483  1.00  0.00    -0.072 N 
HETATM   37  H   UNL     1     -41.134  63.352 -59.503  1.00  0.00     0.277 HD
HETATM   38  H   UNL     1     -40.234  63.529 -58.156  1.00  0.00     0.277 HD
HETATM   39  C   UNL     1     -42.217  64.052 -57.829  1.00  0.00     0.260 C 
HETATM   40  C   UNL     1     -43.639  63.540 -58.178  1.00  0.00     0.262 C 
ENDBRANCH  31  32
ENDBRANCH  30  31
ENDBRANCH   3  30
TORSDOF 10
ENDMDL
MODEL 10
REMARK VINA RESULT:      -6.6      2.814      5.777
REMARK  10 active torsions:
REMARK  status: ('A' for Active; 'I' for Inactive)
REMARK    1  A    between atoms: C_2  and  O_3 
REMARK    2  A    between atoms: O_3  and  C_4 
REMARK    3  A    between atoms: C_7  and  C_8 
REMARK    4  A    between atoms: C_8  and  C_9 
REMARK    5  A    between atoms: C_10  and  C_11 
REMARK    6  A    between atoms: C_13  and  N_14 
REMARK    7  A    between atoms: N_20  and  C_21 
REMARK    8  A    between atoms: C_21  and  C_22 
REMARK    9  A    between atoms: C_22  and  N_23 
REMARK   10  A    between atoms: C_34  and  O_35 
ROOT
HETATM    1  C   UNL     1     -44.034  59.074 -53.510  1.00  0.00     0.059 C 
HETATM    2  C   UNL     1     -43.193  58.499 -54.606  1.00  0.00     0.161 C 
HETATM    3  N   UNL     1     -43.892  59.003 -55.787  1.00  0.00    -0.332 N 
HETATM    4  C   UNL     1     -45.100  59.576 -55.447  1.00  0.00     0.278 C 
HETATM    5  O   UNL     1     -45.936  59.967 -56.243  1.00  0.00    -0.265 OA
HETATM    6  C   UNL     1     -45.142  59.672 -53.977  1.00  0.00     0.146 C 
ENDROOT
BRANCH   1   7
HETATM    7  C   UNL     1     -43.810  58.998 -52.053  1.00  0.00     0.193 C 
HETATM    8  O   UNL     1     -44.174  59.938 -51.348  1.00  0.00    -0.287 OA
BRANCH   7   9
HETATM    9  C   UNL     1     -43.216  57.803 -51.416  1.00  0.00     0.015 A 
HETATM   10  C   UNL     1     -41.871  57.723 -51.045  1.00  0.00     0.018 A 
HETATM   11  C   UNL     1     -41.379  56.568 -50.417  1.00  0.00     0.038 A 
HETATM   12  C   UNL     1     -42.237  55.513 -50.112  1.00  0.00     0.069 A 
HETATM   13  C   UNL     1     -43.585  55.609 -50.465  1.00  0.00     0.038 A 
HETATM   14  C   UNL     1     -44.077  56.746 -51.109  1.00  0.00     0.018 A 
BRANCH  12  15
HETATM   15  O   UNL     1     -41.918  54.354 -49.470  1.00  0.00    -0.347 OA
BRANCH  15  16
HETATM   16  C   UNL     1     -40.555  53.936 -49.357  1.00  0.00     0.120 C 
HETATM   17  C   UNL     1     -40.395  52.596 -50.066  1.00  0.00     0.040 C 
HETATM   18  C   UNL     1     -40.252  53.794 -47.868  1.00  0.00     0.040 C 
ENDBRANCH  15  16
ENDBRANCH  12  15
ENDBRANCH   7   9
ENDBRANCH   1   7
BRANCH   2  19
HETATM   19  C   UNL     1     -43.082  56.985 -54.612  1.00  0.00    -0.028 A 
HETATM   20  C   UNL     1     -41.812  56.391 -54.715  1.00  0.00     0.045 A 
HETATM   21  C   UNL     1     -41.680  54.992 -54.737  1.00  0.00     0.103 A 
HETATM   22  C   UNL     1     -42.803  54.167 -54.648  1.00  0.00     0.036 A 
HETATM   23  C   UNL     1     -44.066  54.750 -54.548  1.00  0.00     0.003 A 
HETATM   24  C   UNL     1     -44.206  56.143 -54.541  1.00  0.00     0.010 A 
BRANCH  21  25
HETATM   25  N   UNL     1     -40.345  54.399 -54.895  1.00  0.00    -0.116 N 
HETATM   26  O   UNL     1     -39.403  55.182 -55.087  1.00  0.00    -0.532 OA
HETATM   27  O   UNL     1     -40.251  53.167 -54.867  1.00  0.00    -0.532 OA
ENDBRANCH  21  25
ENDBRANCH   2  19
BRANCH   6  28
HETATM   28  O   UNL     1     -46.156  60.275 -53.294  1.00  0.00    -0.355 OA
HETATM   29  H   UNL     1     -46.955  59.703 -53.382  1.00  0.00     0.218 HD
ENDBRANCH   6  28
BRANCH   3  30
HETATM   30  C   UNL     1     -43.477  58.742 -57.159  1.00  0.00     0.155 C 
BRANCH  30  31
HETATM   31  C   UNL     1     -44.363  57.687 -57.882  1.00  0.00     0.254 C 
BRANCH  31  32
HETATM   32  N   UNL     1     -44.284  57.770 -59.414  1.00  0.00    -0.066 N 
HETATM   33  H   UNL     1     -45.268  57.846 -59.723  1.00  0.00     0.280 HD
HETATM   34  C   UNL     1     -43.749  56.481 -60.055  1.00  0.00     0.262 C 
HETATM   35  C   UNL     1     -42.204  56.392 -60.005  1.00  0.00     0.260 C 
HETATM   36  N   UNL     1     -41.569  57.622 -60.598  1.00  0.00    -0.072 N 
HETATM   37  H   UNL     1     -41.702  57.664 -61.621  1.00  0.00     0.277 HD
HETATM   38  H   UNL     1     -40.542  57.558 -60.481  1.00  0.00     0.277 HD
HETATM   39  C   UNL     1     -42.029  58.903 -59.940  1.00  0.00     0.260 C 
HETATM   40  C   UNL     1     -43.575  59.019 -59.970  1.00  0.00     0.262 C 
ENDBRANCH  31  32
ENDBRANCH  30  31
ENDBRANCH   3  30
TORSDOF 10
ENDMDL
