MODEL 1
REMARK VINA RESULT:      -8.3      0.000      0.000
REMARK  11 active torsions:
REMARK  status: ('A' for Active; 'I' for Inactive)
REMARK    1  A    between atoms: C_3  and  N_4 
REMARK    2  A    between atoms: N_4  and  C_5 
REMARK    3  A    between atoms: C_7  and  C_8 
REMARK    4  A    between atoms: C_18  and  N_19 
REMARK       I    between atoms: N_19  and  C_20 
REMARK    5  A    between atoms: C_20  and  C_21 
REMARK    6  A    between atoms: C_22  and  C_23 
REMARK    7  A    between atoms: C_26  and  O_27 
REMARK    8  A    between atoms: O_27  and  C_28 
REMARK    9  A    between atoms: C_28  and  C_29 
REMARK   10  A    between atoms: C_29  and  C_30 
REMARK   11  A    between atoms: C_30  and  N_31 
ROOT
HETATM    1  C   UNL     1     -45.212  57.893 -56.709  1.00  0.00     0.050 C 
HETATM    2  C   UNL     1     -45.062  58.371 -55.289  1.00  0.00    -0.035 A 
HETATM    3  C   UNL     1     -44.839  57.475 -54.221  1.00  0.00     0.057 A 
HETATM    4  C   UNL     1     -44.654  58.006 -52.932  1.00  0.00     0.060 A 
HETATM    5  C   UNL     1     -44.685  59.380 -52.686  1.00  0.00     0.037 A 
HETATM    6  C   UNL     1     -44.899  60.251 -53.754  1.00  0.00     0.030 A 
HETATM    7  C   UNL     1     -45.088  59.753 -55.042  1.00  0.00     0.011 A 
ENDROOT
BRANCH   5   8
HETATM    8  N   UNL     1     -44.479  59.954 -51.414  1.00  0.00    -0.324 N 
HETATM    9  C   UNL     1     -43.311  60.498 -50.919  1.00  0.00     0.245 C 
HETATM   10  O   UNL     1     -42.202  60.489 -51.433  1.00  0.00    -0.268 OA
HETATM   11  H   UNL     1     -45.290  59.965 -50.813  1.00  0.00     0.169 HD
BRANCH   9  12
HETATM   12  C   UNL     1     -43.533  61.126 -49.589  1.00  0.00     0.075 C 
HETATM   13  C   UNL     1     -44.774  61.279 -49.103  1.00  0.00     0.017 C 
BRANCH  13  14
HETATM   14  C   UNL     1     -44.953  61.883 -47.787  1.00  0.00    -0.036 A 
HETATM   15  C   UNL     1     -45.058  63.271 -47.661  1.00  0.00     0.014 A 
HETATM   16  C   UNL     1     -45.117  63.860 -46.395  1.00  0.00     0.037 A 
HETATM   17  C   UNL     1     -45.046  63.060 -45.255  1.00  0.00     0.068 A 
HETATM   18  C   UNL     1     -44.996  61.672 -45.378  1.00  0.00     0.037 A 
HETATM   19  C   UNL     1     -44.941  61.083 -46.640  1.00  0.00     0.014 A 
BRANCH  17  20
HETATM   20  O   UNL     1     -45.101  63.544 -43.981  1.00  0.00    -0.351 OA
BRANCH  20  21
HETATM   21  C   UNL     1     -44.107  63.050 -43.081  1.00  0.00     0.177 C 
BRANCH  21  22
HETATM   22  C   UNL     1     -43.659  64.220 -42.209  1.00  0.00     0.054 C 
BRANCH  22  23
HETATM   23  C   UNL     1     -43.617  63.806 -40.740  1.00  0.00     0.236 C 
BRANCH  23  24
HETATM   24  N   UNL     1     -44.797  64.370 -39.973  1.00  0.00    -0.079 N 
HETATM   25  H   UNL     1     -45.003  65.305 -40.349  1.00  0.00     0.278 HD
HETATM   26  C   UNL     1     -46.047  63.540 -40.114  1.00  0.00     0.269 C 
HETATM   27  C   UNL     1     -44.446  64.560 -38.519  1.00  0.00     0.269 C 
ENDBRANCH  23  24
ENDBRANCH  22  23
ENDBRANCH  21  22
ENDBRANCH  20  21
ENDBRANCH  17  20
ENDBRANCH  13  14
ENDBRANCH   9  12
ENDBRANCH   5   8
BRANCH   3  28
HETATM   28  N   UNL     1     -44.719  56.096 -54.475  1.00  0.00    -0.188 N 
HETATM   29  H   UNL     1     -45.580  55.577 -54.547  1.00  0.00     0.184 HD
BRANCH  28  30
HETATM   30  C   UNL     1     -43.672  55.202 -54.259  1.00  0.00     0.727 A 
HETATM   31  N   UNL     1     -43.089  55.090 -53.054  1.00  0.00    -0.062 NA
HETATM   32  C   UNL     1     -42.082  54.206 -52.883  1.00  0.00     0.089 A 
HETATM   33  C   UNL     1     -41.645  53.434 -53.940  1.00  0.00     0.053 A 
HETATM   34  C   UNL     1     -42.275  53.631 -55.146  1.00  0.00     0.139 A 
HETATM   35  N   UNL     1     -43.274  54.508 -55.333  1.00  0.00    -0.075 NA
BRANCH  32  36
HETATM   36  C   UNL     1     -41.507  54.151 -51.519  1.00  0.00     0.011 A 
HETATM   37  C   UNL     1     -42.258  54.518 -50.394  1.00  0.00     0.130 A 
HETATM   38  N   UNL     1     -41.811  54.520 -49.107  1.00  0.00    -0.272 NA
HETATM   39  C   UNL     1     -40.540  54.125 -48.911  1.00  0.00     0.116 A 
HETATM   40  C   UNL     1     -39.700  53.731 -49.934  1.00  0.00     0.020 A 
HETATM   41  C   UNL     1     -40.190  53.747 -51.243  1.00  0.00     0.017 A 
ENDBRANCH  32  36
ENDBRANCH  28  30
ENDBRANCH   3  28
TORSDOF 11
ENDMDL
MODEL 2
REMARK VINA RESULT:      -7.7      5.532      8.877
REMARK  11 active torsions:
REMARK  status: ('A' for Active; 'I' for Inactive)
REMARK    1  A    between atoms: C_3  and  N_4 
REMARK    2  A    between atoms: N_4  and  C_5 
REMARK    3  A    between atoms: C_7  and  C_8 
REMARK    4  A    between atoms: C_18  and  N_19 
REMARK       I    between atoms: N_19  and  C_20 
REMARK    5  A    between atoms: C_20  and  C_21 
REMARK    6  A    between atoms: C_22  and  C_23 
REMARK    7  A    between atoms: C_26  and  O_27 
REMARK    8  A    between atoms: O_27  and  C_28 
REMARK    9  A    between atoms: C_28  and  C_29 
REMARK   10  A    between atoms: C_29  and  C_30 
REMARK   11  A    between atoms: C_30  and  N_31 
ROOT
HETATM    1  C   UNL     1     -40.373  57.961 -50.618  1.00  0.00     0.050 C 
HETATM    2  C   UNL     1     -41.729  58.521 -50.959  1.00  0.00    -0.035 A 
HETATM    3  C   UNL     1     -42.743  57.722 -51.531  1.00  0.00     0.057 A 
HETATM    4  C   UNL     1     -43.999  58.308 -51.769  1.00  0.00     0.060 A 
HETATM    5  C   UNL     1     -44.265  59.643 -51.457  1.00  0.00     0.037 A 
HETATM    6  C   UNL     1     -43.254  60.415 -50.885  1.00  0.00     0.030 A 
HETATM    7  C   UNL     1     -41.998  59.863 -50.641  1.00  0.00     0.011 A 
ENDROOT
BRANCH   5   8
HETATM    8  N   UNL     1     -45.517  60.260 -51.655  1.00  0.00    -0.324 N 
HETATM    9  C   UNL     1     -45.823  61.273 -52.541  1.00  0.00     0.245 C 
HETATM   10  O   UNL     1     -45.054  61.911 -53.246  1.00  0.00    -0.268 OA
HETATM   11  H   UNL     1     -46.265  59.904 -51.077  1.00  0.00     0.169 HD
BRANCH   9  12
HETATM   12  C   UNL     1     -47.283  61.557 -52.548  1.00  0.00     0.075 C 
HETATM   13  C   UNL     1     -47.761  62.670 -53.123  1.00  0.00     0.017 C 
BRANCH  13  14
HETATM   14  C   UNL     1     -49.201  62.908 -53.126  1.00  0.00    -0.036 A 
HETATM   15  C   UNL     1     -50.084  61.860 -52.852  1.00  0.00     0.014 A 
HETATM   16  C   UNL     1     -51.463  62.056 -52.964  1.00  0.00     0.037 A 
HETATM   17  C   UNL     1     -51.956  63.294 -53.372  1.00  0.00     0.068 A 
HETATM   18  C   UNL     1     -51.080  64.357 -53.593  1.00  0.00     0.037 A 
HETATM   19  C   UNL     1     -49.704  64.164 -53.478  1.00  0.00     0.014 A 
BRANCH  17  20
HETATM   20  O   UNL     1     -53.284  63.579 -53.505  1.00  0.00    -0.351 OA
BRANCH  20  21
HETATM   21  C   UNL     1     -53.707  64.000 -54.803  1.00  0.00     0.177 C 
BRANCH  21  22
HETATM   22  C   UNL     1     -54.395  62.810 -55.466  1.00  0.00     0.054 C 
BRANCH  22  23
HETATM   23  C   UNL     1     -53.853  62.597 -56.877  1.00  0.00     0.236 C 
BRANCH  23  24
HETATM   24  N   UNL     1     -52.823  61.484 -56.910  1.00  0.00    -0.079 N 
HETATM   25  H   UNL     1     -52.917  60.990 -57.807  1.00  0.00     0.278 HD
HETATM   26  C   UNL     1     -51.405  61.986 -56.818  1.00  0.00     0.269 C 
HETATM   27  C   UNL     1     -53.099  60.470 -55.830  1.00  0.00     0.269 C 
ENDBRANCH  23  24
ENDBRANCH  22  23
ENDBRANCH  21  22
ENDBRANCH  20  21
ENDBRANCH  17  20
ENDBRANCH  13  14
ENDBRANCH   9  12
ENDBRANCH   5   8
BRANCH   3  28
HETATM   28  N   UNL     1     -42.509  56.355 -51.768  1.00  0.00    -0.188 N 
HETATM   29  H   UNL     1     -42.599  55.742 -50.973  1.00  0.00     0.184 HD
BRANCH  28  30
HETATM   30  C   UNL     1     -41.796  55.697 -52.768  1.00  0.00     0.727 A 
HETATM   31  N   UNL     1     -41.403  54.422 -52.619  1.00  0.00    -0.062 NA
HETATM   32  C   UNL     1     -40.721  53.816 -53.615  1.00  0.00     0.089 A 
HETATM   33  C   UNL     1     -40.417  54.506 -54.772  1.00  0.00     0.053 A 
HETATM   34  C   UNL     1     -40.831  55.815 -54.832  1.00  0.00     0.139 A 
HETATM   35  N   UNL     1     -41.505  56.432 -53.849  1.00  0.00    -0.075 NA
BRANCH  32  36
HETATM   36  C   UNL     1     -40.336  52.408 -53.360  1.00  0.00     0.011 A 
HETATM   37  C   UNL     1     -39.879  51.992 -52.102  1.00  0.00     0.130 A 
HETATM   38  N   UNL     1     -39.484  50.729 -51.779  1.00  0.00    -0.272 NA
HETATM   39  C   UNL     1     -39.551  49.809 -52.758  1.00  0.00     0.116 A 
HETATM   40  C   UNL     1     -39.991  50.090 -54.037  1.00  0.00     0.020 A 
HETATM   41  C   UNL     1     -40.382  51.398 -54.335  1.00  0.00     0.017 A 
ENDBRANCH  32  36
ENDBRANCH  28  30
ENDBRANCH   3  28
TORSDOF 11
ENDMDL
MODEL 3
REMARK VINA RESULT:      -7.5      6.797     11.303
REMARK  11 active torsions:
REMARK  status: ('A' for Active; 'I' for Inactive)
REMARK    1  A    between atoms: C_3  and  N_4 
REMARK    2  A    between atoms: N_4  and  C_5 
REMARK    3  A    between atoms: C_7  and  C_8 
REMARK    4  A    between atoms: C_18  and  N_19 
REMARK       I    between atoms: N_19  and  C_20 
REMARK    5  A    between atoms: C_20  and  C_21 
REMARK    6  A    between atoms: C_22  and  C_23 
REMARK    7  A    between atoms: C_26  and  O_27 
REMARK    8  A    between atoms: O_27  and  C_28 
REMARK    9  A    between atoms: C_28  and  C_29 
REMARK   10  A    between atoms: C_29  and  C_30 
REMARK   11  A    between atoms: C_30  and  N_31 
ROOT
HETATM    1  C   UNL     1     -49.149  58.013 -62.489  1.00  0.00     0.050 C 
HETATM    2  C   UNL     1     -48.015  57.731 -61.540  1.00  0.00    -0.035 A 
HETATM    3  C   UNL     1     -47.442  58.744 -60.741  1.00  0.00     0.057 A 
HETATM    4  C   UNL     1     -46.422  58.387 -59.841  1.00  0.00     0.060 A 
HETATM    5  C   UNL     1     -45.969  57.073 -59.718  1.00  0.00     0.037 A 
HETATM    6  C   UNL     1     -46.552  56.082 -60.509  1.00  0.00     0.030 A 
HETATM    7  C   UNL     1     -47.563  56.407 -61.413  1.00  0.00     0.011 A 
ENDROOT
BRANCH   5   8
HETATM    8  N   UNL     1     -44.969  56.669 -58.809  1.00  0.00    -0.324 N 
HETATM    9  C   UNL     1     -43.648  56.381 -59.089  1.00  0.00     0.245 C 
HETATM   10  O   UNL     1     -43.112  56.309 -60.185  1.00  0.00    -0.268 OA
HETATM   11  H   UNL     1     -45.271  56.591 -57.849  1.00  0.00     0.169 HD
BRANCH   9  12
HETATM   12  C   UNL     1     -42.880  56.125 -57.841  1.00  0.00     0.075 C 
HETATM   13  C   UNL     1     -43.229  55.130 -57.014  1.00  0.00     0.017 C 
BRANCH  13  14
HETATM   14  C   UNL     1     -42.441  54.897 -55.808  1.00  0.00    -0.036 A 
HETATM   15  C   UNL     1     -42.568  53.695 -55.109  1.00  0.00     0.014 A 
HETATM   16  C   UNL     1     -41.901  53.513 -53.894  1.00  0.00     0.037 A 
HETATM   17  C   UNL     1     -41.125  54.545 -53.369  1.00  0.00     0.068 A 
HETATM   18  C   UNL     1     -40.952  55.726 -54.091  1.00  0.00     0.037 A 
HETATM   19  C   UNL     1     -41.614  55.907 -55.304  1.00  0.00     0.014 A 
BRANCH  17  20
HETATM   20  O   UNL     1     -40.434  54.458 -52.195  1.00  0.00    -0.351 OA
BRANCH  20  21
HETATM   21  C   UNL     1     -40.903  53.480 -51.266  1.00  0.00     0.177 C 
BRANCH  21  22
HETATM   22  C   UNL     1     -41.709  54.215 -50.197  1.00  0.00     0.054 C 
BRANCH  22  23
HETATM   23  C   UNL     1     -41.030  55.532 -49.828  1.00  0.00     0.236 C 
BRANCH  23  24
HETATM   24  N   UNL     1     -41.906  56.720 -50.171  1.00  0.00    -0.079 N 
HETATM   25  H   UNL     1     -42.215  57.153 -49.291  1.00  0.00     0.278 HD
HETATM   26  C   UNL     1     -41.186  57.778 -50.967  1.00  0.00     0.269 C 
HETATM   27  C   UNL     1     -43.154  56.273 -50.890  1.00  0.00     0.269 C 
ENDBRANCH  23  24
ENDBRANCH  22  23
ENDBRANCH  21  22
ENDBRANCH  20  21
ENDBRANCH  17  20
ENDBRANCH  13  14
ENDBRANCH   9  12
ENDBRANCH   5   8
BRANCH   3  28
HETATM   28  N   UNL     1     -47.952  60.055 -60.796  1.00  0.00    -0.188 N 
HETATM   29  H   UNL     1     -47.768  60.572 -61.641  1.00  0.00     0.184 HD
BRANCH  28  30
HETATM   30  C   UNL     1     -48.320  60.948 -59.792  1.00  0.00     0.727 A 
HETATM   31  N   UNL     1     -49.299  60.652 -58.922  1.00  0.00    -0.062 NA
HETATM   32  C   UNL     1     -49.621  61.541 -57.957  1.00  0.00     0.089 A 
HETATM   33  C   UNL     1     -48.958  62.749 -57.872  1.00  0.00     0.053 A 
HETATM   34  C   UNL     1     -47.990  62.985 -58.819  1.00  0.00     0.139 A 
HETATM   35  N   UNL     1     -47.663  62.114 -59.786  1.00  0.00    -0.075 NA
BRANCH  32  36
HETATM   36  C   UNL     1     -50.709  61.123 -57.042  1.00  0.00     0.011 A 
HETATM   37  C   UNL     1     -50.847  61.685 -55.766  1.00  0.00     0.130 A 
HETATM   38  N   UNL     1     -51.800  61.352 -54.850  1.00  0.00    -0.272 NA
HETATM   39  C   UNL     1     -52.683  60.407 -55.218  1.00  0.00     0.116 A 
HETATM   40  C   UNL     1     -52.659  59.783 -56.450  1.00  0.00     0.020 A 
HETATM   41  C   UNL     1     -51.665  60.145 -57.362  1.00  0.00     0.017 A 
ENDBRANCH  32  36
ENDBRANCH  28  30
ENDBRANCH   3  28
TORSDOF 11
ENDMDL
MODEL 4
REMARK VINA RESULT:      -7.3      6.398     11.307
REMARK  11 active torsions:
REMARK  status: ('A' for Active; 'I' for Inactive)
REMARK    1  A    between atoms: C_3  and  N_4 
REMARK    2  A    between atoms: N_4  and  C_5 
REMARK    3  A    between atoms: C_7  and  C_8 
REMARK    4  A    between atoms: C_18  and  N_19 
REMARK       I    between atoms: N_19  and  C_20 
REMARK    5  A    between atoms: C_20  and  C_21 
REMARK    6  A    between atoms: C_22  and  C_23 
REMARK    7  A    between atoms: C_26  and  O_27 
REMARK    8  A    between atoms: O_27  and  C_28 
REMARK    9  A    between atoms: C_28  and  C_29 
REMARK   10  A    between atoms: C_29  and  C_30 
REMARK   11  A    between atoms: C_30  and  N_31 
ROOT
HETATM    1  C   UNL     1     -39.296  49.766 -51.996  1.00  0.00     0.050 C 
HETATM    2  C   UNL     1     -39.842  50.875 -52.857  1.00  0.00    -0.035 A 
HETATM    3  C   UNL     1     -40.128  52.154 -52.331  1.00  0.00     0.057 A 
HETATM    4  C   UNL     1     -40.583  53.151 -53.213  1.00  0.00     0.060 A 
HETATM    5  C   UNL     1     -40.756  52.910 -54.577  1.00  0.00     0.037 A 
HETATM    6  C   UNL     1     -40.462  51.643 -55.080  1.00  0.00     0.030 A 
HETATM    7  C   UNL     1     -40.012  50.634 -54.230  1.00  0.00     0.011 A 
ENDROOT
BRANCH   5   8
HETATM    8  N   UNL     1     -41.185  53.889 -55.498  1.00  0.00    -0.324 N 
HETATM    9  C   UNL     1     -42.419  54.503 -55.555  1.00  0.00     0.245 C 
HETATM   10  O   UNL     1     -43.417  54.246 -54.898  1.00  0.00    -0.268 OA
HETATM   11  H   UNL     1     -40.495  54.162 -56.183  1.00  0.00     0.169 HD
BRANCH   9  12
HETATM   12  C   UNL     1     -42.436  55.578 -56.584  1.00  0.00     0.075 C 
HETATM   13  C   UNL     1     -43.177  55.452 -57.694  1.00  0.00     0.017 C 
BRANCH  13  14
HETATM   14  C   UNL     1     -43.183  56.534 -58.673  1.00  0.00    -0.036 A 
HETATM   15  C   UNL     1     -42.074  56.737 -59.499  1.00  0.00     0.014 A 
HETATM   16  C   UNL     1     -42.030  57.838 -60.358  1.00  0.00     0.037 A 
HETATM   17  C   UNL     1     -43.085  58.749 -60.372  1.00  0.00     0.068 A 
HETATM   18  C   UNL     1     -44.216  58.520 -59.588  1.00  0.00     0.037 A 
HETATM   19  C   UNL     1     -44.263  57.420 -58.734  1.00  0.00     0.014 A 
BRANCH  17  20
HETATM   20  O   UNL     1     -43.132  59.849 -61.179  1.00  0.00    -0.351 OA
BRANCH  20  21
HETATM   21  C   UNL     1     -41.987  60.702 -61.140  1.00  0.00     0.177 C 
BRANCH  21  22
HETATM   22  C   UNL     1     -42.206  61.709 -60.013  1.00  0.00     0.054 C 
BRANCH  22  23
HETATM   23  C   UNL     1     -41.293  61.395 -58.831  1.00  0.00     0.236 C 
BRANCH  23  24
HETATM   24  N   UNL     1     -42.081  61.269 -57.542  1.00  0.00    -0.079 N 
HETATM   25  H   UNL     1     -41.655  61.895 -56.846  1.00  0.00     0.278 HD
HETATM   26  C   UNL     1     -43.526  61.672 -57.689  1.00  0.00     0.269 C 
HETATM   27  C   UNL     1     -41.973  59.871 -56.986  1.00  0.00     0.269 C 
ENDBRANCH  23  24
ENDBRANCH  22  23
ENDBRANCH  21  22
ENDBRANCH  20  21
ENDBRANCH  17  20
ENDBRANCH  13  14
ENDBRANCH   9  12
ENDBRANCH   5   8
BRANCH   3  28
HETATM   28  N   UNL     1     -39.873  52.429 -50.975  1.00  0.00    -0.188 N 
HETATM   29  H   UNL     1     -39.600  51.645 -50.403  1.00  0.00     0.184 HD
BRANCH  28  30
HETATM   30  C   UNL     1     -40.291  53.468 -50.146  1.00  0.00     0.727 A 
HETATM   31  N   UNL     1     -40.713  54.637 -50.655  1.00  0.00    -0.062 NA
HETATM   32  C   UNL     1     -41.119  55.617 -49.819  1.00  0.00     0.089 A 
HETATM   33  C   UNL     1     -41.088  55.426 -48.452  1.00  0.00     0.053 A 
HETATM   34  C   UNL     1     -40.615  54.212 -48.013  1.00  0.00     0.139 A 
HETATM   35  N   UNL     1     -40.205  53.230 -48.831  1.00  0.00    -0.075 NA
BRANCH  32  36
HETATM   36  C   UNL     1     -41.571  56.867 -50.473  1.00  0.00     0.011 A 
HETATM   37  C   UNL     1     -40.735  57.989 -50.564  1.00  0.00     0.130 A 
HETATM   38  N   UNL     1     -41.069  59.184 -51.127  1.00  0.00    -0.272 NA
HETATM   39  C   UNL     1     -42.306  59.281 -51.644  1.00  0.00     0.116 A 
HETATM   40  C   UNL     1     -43.221  58.246 -51.627  1.00  0.00     0.020 A 
HETATM   41  C   UNL     1     -42.847  57.036 -51.036  1.00  0.00     0.017 A 
ENDBRANCH  32  36
ENDBRANCH  28  30
ENDBRANCH   3  28
TORSDOF 11
ENDMDL
MODEL 5
REMARK VINA RESULT:      -7.3      6.457     12.005
REMARK  11 active torsions:
REMARK  status: ('A' for Active; 'I' for Inactive)
REMARK    1  A    between atoms: C_3  and  N_4 
REMARK    2  A    between atoms: N_4  and  C_5 
REMARK    3  A    between atoms: C_7  and  C_8 
REMARK    4  A    between atoms: C_18  and  N_19 
REMARK       I    between atoms: N_19  and  C_20 
REMARK    5  A    between atoms: C_20  and  C_21 
REMARK    6  A    between atoms: C_22  and  C_23 
REMARK    7  A    between atoms: C_26  and  O_27 
REMARK    8  A    between atoms: O_27  and  C_28 
REMARK    9  A    between atoms: C_28  and  C_29 
REMARK   10  A    between atoms: C_29  and  C_30 
REMARK   11  A    between atoms: C_30  and  N_31 
ROOT
HETATM    1  C   UNL     1     -39.468  49.543 -52.012  1.00  0.00     0.050 C 
HETATM    2  C   UNL     1     -39.857  50.734 -52.847  1.00  0.00    -0.035 A 
HETATM    3  C   UNL     1     -40.199  51.973 -52.263  1.00  0.00     0.057 A 
HETATM    4  C   UNL     1     -40.497  53.052 -53.115  1.00  0.00     0.060 A 
HETATM    5  C   UNL     1     -40.464  52.929 -54.505  1.00  0.00     0.037 A 
HETATM    6  C   UNL     1     -40.116  51.700 -55.065  1.00  0.00     0.030 A 
HETATM    7  C   UNL     1     -39.818  50.612 -54.245  1.00  0.00     0.011 A 
ENDROOT
BRANCH   5   8
HETATM    8  N   UNL     1     -40.730  53.992 -55.393  1.00  0.00    -0.324 N 
HETATM    9  C   UNL     1     -41.947  54.594 -55.641  1.00  0.00     0.245 C 
HETATM   10  O   UNL     1     -43.048  54.257 -55.229  1.00  0.00    -0.268 OA
HETATM   11  H   UNL     1     -39.925  54.343 -55.893  1.00  0.00     0.169 HD
BRANCH   9  12
HETATM   12  C   UNL     1     -41.792  55.768 -56.540  1.00  0.00     0.075 C 
HETATM   13  C   UNL     1     -42.843  56.262 -57.210  1.00  0.00     0.017 C 
BRANCH  13  14
HETATM   14  C   UNL     1     -42.656  57.426 -58.070  1.00  0.00    -0.036 A 
HETATM   15  C   UNL     1     -42.633  57.275 -59.459  1.00  0.00     0.014 A 
HETATM   16  C   UNL     1     -42.343  58.367 -60.280  1.00  0.00     0.037 A 
HETATM   17  C   UNL     1     -42.054  59.606 -59.709  1.00  0.00     0.068 A 
HETATM   18  C   UNL     1     -42.130  59.773 -58.327  1.00  0.00     0.037 A 
HETATM   19  C   UNL     1     -42.423  58.684 -57.506  1.00  0.00     0.014 A 
BRANCH  17  20
HETATM   20  O   UNL     1     -41.765  60.728 -60.430  1.00  0.00    -0.351 OA
BRANCH  20  21
HETATM   21  C   UNL     1     -41.940  61.971 -59.747  1.00  0.00     0.177 C 
BRANCH  21  22
HETATM   22  C   UNL     1     -41.407  63.072 -60.661  1.00  0.00     0.054 C 
BRANCH  22  23
HETATM   23  C   UNL     1     -39.965  62.779 -61.067  1.00  0.00     0.236 C 
BRANCH  23  24
HETATM   24  N   UNL     1     -39.843  62.576 -62.564  1.00  0.00    -0.079 N 
HETATM   25  H   UNL     1     -39.514  61.616 -62.730  1.00  0.00     0.278 HD
HETATM   26  C   UNL     1     -41.153  62.737 -63.293  1.00  0.00     0.269 C 
HETATM   27  C   UNL     1     -38.797  63.494 -63.143  1.00  0.00     0.269 C 
ENDBRANCH  23  24
ENDBRANCH  22  23
ENDBRANCH  21  22
ENDBRANCH  20  21
ENDBRANCH  17  20
ENDBRANCH  13  14
ENDBRANCH   9  12
ENDBRANCH   5   8
BRANCH   3  28
HETATM   28  N   UNL     1     -40.150  52.129 -50.865  1.00  0.00    -0.188 N 
HETATM   29  H   UNL     1     -40.198  51.283 -50.319  1.00  0.00     0.184 HD
BRANCH  28  30
HETATM   30  C   UNL     1     -40.448  53.214 -50.044  1.00  0.00     0.727 A 
HETATM   31  N   UNL     1     -40.881  54.377 -50.556  1.00  0.00    -0.062 NA
HETATM   32  C   UNL     1     -41.167  55.403 -49.725  1.00  0.00     0.089 A 
HETATM   33  C   UNL     1     -41.003  55.264 -48.362  1.00  0.00     0.053 A 
HETATM   34  C   UNL     1     -40.527  54.051 -47.922  1.00  0.00     0.139 A 
HETATM   35  N   UNL     1     -40.235  53.024 -48.735  1.00  0.00    -0.075 NA
BRANCH  32  36
HETATM   36  C   UNL     1     -41.644  56.642 -50.383  1.00  0.00     0.011 A 
HETATM   37  C   UNL     1     -42.863  56.680 -51.075  1.00  0.00     0.130 A 
HETATM   38  N   UNL     1     -43.372  57.764 -51.726  1.00  0.00    -0.272 NA
HETATM   39  C   UNL     1     -42.637  58.889 -51.688  1.00  0.00     0.116 A 
HETATM   40  C   UNL     1     -41.424  58.983 -51.033  1.00  0.00     0.020 A 
HETATM   41  C   UNL     1     -40.929  57.851 -50.381  1.00  0.00     0.017 A 
ENDBRANCH  32  36
ENDBRANCH  28  30
ENDBRANCH   3  28
TORSDOF 11
ENDMDL
MODEL 6
REMARK VINA RESULT:      -7.2      8.419     12.184
REMARK  11 active torsions:
REMARK  status: ('A' for Active; 'I' for Inactive)
REMARK    1  A    between atoms: C_3  and  N_4 
REMARK    2  A    between atoms: N_4  and  C_5 
REMARK    3  A    between atoms: C_7  and  C_8 
REMARK    4  A    between atoms: C_18  and  N_19 
REMARK       I    between atoms: N_19  and  C_20 
REMARK    5  A    between atoms: C_20  and  C_21 
REMARK    6  A    between atoms: C_22  and  C_23 
REMARK    7  A    between atoms: C_26  and  O_27 
REMARK    8  A    between atoms: O_27  and  C_28 
REMARK    9  A    between atoms: C_28  and  C_29 
REMARK   10  A    between atoms: C_29  and  C_30 
REMARK   11  A    between atoms: C_30  and  N_31 
ROOT
HETATM    1  C   UNL     1     -48.680  57.810 -62.554  1.00  0.00     0.050 C 
HETATM    2  C   UNL     1     -47.716  57.650 -61.408  1.00  0.00    -0.035 A 
HETATM    3  C   UNL     1     -47.335  58.741 -60.598  1.00  0.00     0.057 A 
HETATM    4  C   UNL     1     -46.473  58.497 -59.514  1.00  0.00     0.060 A 
HETATM    5  C   UNL     1     -45.992  57.219 -59.223  1.00  0.00     0.037 A 
HETATM    6  C   UNL     1     -46.385  56.151 -60.030  1.00  0.00     0.030 A 
HETATM    7  C   UNL     1     -47.236  56.363 -61.113  1.00  0.00     0.011 A 
ENDROOT
BRANCH   5   8
HETATM    8  N   UNL     1     -45.148  56.928 -58.131  1.00  0.00    -0.324 N 
HETATM    9  C   UNL     1     -43.842  57.336 -57.947  1.00  0.00     0.245 C 
HETATM   10  O   UNL     1     -43.124  57.931 -58.738  1.00  0.00    -0.268 OA
HETATM   11  H   UNL     1     -45.565  56.360 -57.408  1.00  0.00     0.169 HD
BRANCH   9  12
HETATM   12  C   UNL     1     -43.340  56.939 -56.605  1.00  0.00     0.075 C 
HETATM   13  C   UNL     1     -43.073  55.654 -56.327  1.00  0.00     0.017 C 
BRANCH  13  14
HETATM   14  C   UNL     1     -42.565  55.303 -55.004  1.00  0.00    -0.036 A 
HETATM   15  C   UNL     1     -43.334  54.515 -54.145  1.00  0.00     0.014 A 
HETATM   16  C   UNL     1     -42.900  54.270 -52.839  1.00  0.00     0.037 A 
HETATM   17  C   UNL     1     -41.709  54.835 -52.387  1.00  0.00     0.068 A 
HETATM   18  C   UNL     1     -40.912  55.577 -53.260  1.00  0.00     0.037 A 
HETATM   19  C   UNL     1     -41.342  55.819 -54.564  1.00  0.00     0.014 A 
BRANCH  17  20
HETATM   20  O   UNL     1     -41.204  54.648 -51.133  1.00  0.00    -0.351 OA
BRANCH  20  21
HETATM   21  C   UNL     1     -39.968  53.936 -51.057  1.00  0.00     0.177 C 
BRANCH  21  22
HETATM   22  C   UNL     1     -40.298  52.446 -51.083  1.00  0.00     0.054 C 
BRANCH  22  23
HETATM   23  C   UNL     1     -39.378  51.712 -52.056  1.00  0.00     0.236 C 
BRANCH  23  24
HETATM   24  N   UNL     1     -40.145  51.199 -53.259  1.00  0.00    -0.079 N 
HETATM   25  H   UNL     1     -41.122  51.049 -52.974  1.00  0.00     0.278 HD
HETATM   26  C   UNL     1     -40.154  52.166 -54.414  1.00  0.00     0.269 C 
HETATM   27  C   UNL     1     -39.616  49.856 -53.695  1.00  0.00     0.269 C 
ENDBRANCH  23  24
ENDBRANCH  22  23
ENDBRANCH  21  22
ENDBRANCH  20  21
ENDBRANCH  17  20
ENDBRANCH  13  14
ENDBRANCH   9  12
ENDBRANCH   5   8
BRANCH   3  28
HETATM   28  N   UNL     1     -47.885  60.015 -60.831  1.00  0.00    -0.188 N 
HETATM   29  H   UNL     1     -47.233  60.781 -60.885  1.00  0.00     0.184 HD
BRANCH  28  30
HETATM   30  C   UNL     1     -49.163  60.525 -60.614  1.00  0.00     0.727 A 
HETATM   31  N   UNL     1     -49.774  60.393 -59.426  1.00  0.00    -0.062 NA
HETATM   32  C   UNL     1     -51.010  60.910 -59.253  1.00  0.00     0.089 A 
HETATM   33  C   UNL     1     -51.648  61.556 -60.292  1.00  0.00     0.053 A 
HETATM   34  C   UNL     1     -50.966  61.622 -61.484  1.00  0.00     0.139 A 
HETATM   35  N   UNL     1     -49.739  61.110 -61.672  1.00  0.00    -0.075 NA
BRANCH  32  36
HETATM   36  C   UNL     1     -51.598  60.718 -57.906  1.00  0.00     0.011 A 
HETATM   37  C   UNL     1     -52.858  60.129 -57.736  1.00  0.00     0.130 A 
HETATM   38  N   UNL     1     -53.487  59.930 -56.544  1.00  0.00    -0.272 NA
HETATM   39  C   UNL     1     -52.829  60.331 -55.442  1.00  0.00     0.116 A 
HETATM   40  C   UNL     1     -51.579  60.918 -55.475  1.00  0.00     0.020 A 
HETATM   41  C   UNL     1     -50.965  61.112 -56.715  1.00  0.00     0.017 A 
ENDBRANCH  32  36
ENDBRANCH  28  30
ENDBRANCH   3  28
TORSDOF 11
ENDMDL
MODEL 7
REMARK VINA RESULT:      -7.1      6.660     11.226
REMARK  11 active torsions:
REMARK  status: ('A' for Active; 'I' for Inactive)
REMARK    1  A    between atoms: C_3  and  N_4 
REMARK    2  A    between atoms: N_4  and  C_5 
REMARK    3  A    between atoms: C_7  and  C_8 
REMARK    4  A    between atoms: C_18  and  N_19 
REMARK       I    between atoms: N_19  and  C_20 
REMARK    5  A    between atoms: C_20  and  C_21 
REMARK    6  A    between atoms: C_22  and  C_23 
REMARK    7  A    between atoms: C_26  and  O_27 
REMARK    8  A    between atoms: O_27  and  C_28 
REMARK    9  A    between atoms: C_28  and  C_29 
REMARK   10  A    between atoms: C_29  and  C_30 
REMARK   11  A    between atoms: C_30  and  N_31 
ROOT
HETATM    1  C   UNL     1     -48.555  58.924 -62.416  1.00  0.00     0.050 C 
HETATM    2  C   UNL     1     -47.569  58.253 -61.497  1.00  0.00    -0.035 A 
HETATM    3  C   UNL     1     -46.538  58.975 -60.857  1.00  0.00     0.057 A 
HETATM    4  C   UNL     1     -45.692  58.285 -59.971  1.00  0.00     0.060 A 
HETATM    5  C   UNL     1     -45.845  56.922 -59.711  1.00  0.00     0.037 A 
HETATM    6  C   UNL     1     -46.874  56.226 -60.346  1.00  0.00     0.030 A 
HETATM    7  C   UNL     1     -47.726  56.883 -61.233  1.00  0.00     0.011 A 
ENDROOT
BRANCH   5   8
HETATM    8  N   UNL     1     -45.035  56.199 -58.810  1.00  0.00    -0.324 N 
HETATM    9  C   UNL     1     -43.738  55.771 -59.006  1.00  0.00     0.245 C 
HETATM   10  O   UNL     1     -43.074  55.833 -60.030  1.00  0.00    -0.268 OA
HETATM   11  H   UNL     1     -45.470  55.983 -57.924  1.00  0.00     0.169 HD
BRANCH   9  12
HETATM   12  C   UNL     1     -43.182  55.161 -57.768  1.00  0.00     0.075 C 
HETATM   13  C   UNL     1     -42.882  55.921 -56.705  1.00  0.00     0.017 C 
BRANCH  13  14
HETATM   14  C   UNL     1     -42.355  55.286 -55.501  1.00  0.00    -0.036 A 
HETATM   15  C   UNL     1     -40.976  55.232 -55.284  1.00  0.00     0.014 A 
HETATM   16  C   UNL     1     -40.463  54.527 -54.192  1.00  0.00     0.037 A 
HETATM   17  C   UNL     1     -41.331  53.858 -53.330  1.00  0.00     0.068 A 
HETATM   18  C   UNL     1     -42.711  53.955 -53.513  1.00  0.00     0.037 A 
HETATM   19  C   UNL     1     -43.223  54.661 -54.601  1.00  0.00     0.014 A 
BRANCH  17  20
HETATM   20  O   UNL     1     -40.924  53.150 -52.237  1.00  0.00    -0.351 OA
BRANCH  20  21
HETATM   21  C   UNL     1     -41.468  53.568 -50.984  1.00  0.00     0.177 C 
BRANCH  21  22
HETATM   22  C   UNL     1     -40.599  54.712 -50.468  1.00  0.00     0.054 C 
BRANCH  22  23
HETATM   23  C   UNL     1     -41.456  55.937 -50.159  1.00  0.00     0.236 C 
BRANCH  23  24
HETATM   24  N   UNL     1     -41.242  57.033 -51.184  1.00  0.00    -0.079 N 
HETATM   25  H   UNL     1     -40.466  56.750 -51.797  1.00  0.00     0.278 HD
HETATM   26  C   UNL     1     -42.446  57.269 -52.061  1.00  0.00     0.269 C 
HETATM   27  C   UNL     1     -40.814  58.314 -50.514  1.00  0.00     0.269 C 
ENDBRANCH  23  24
ENDBRANCH  22  23
ENDBRANCH  21  22
ENDBRANCH  20  21
ENDBRANCH  17  20
ENDBRANCH  13  14
ENDBRANCH   9  12
ENDBRANCH   5   8
BRANCH   3  28
HETATM   28  N   UNL     1     -46.432  60.366 -61.046  1.00  0.00    -0.188 N 
HETATM   29  H   UNL     1     -46.732  60.720 -61.941  1.00  0.00     0.184 HD
BRANCH  28  30
HETATM   30  C   UNL     1     -45.639  61.327 -60.422  1.00  0.00     0.727 A 
HETATM   31  N   UNL     1     -44.373  61.544 -60.812  1.00  0.00    -0.062 NA
HETATM   32  C   UNL     1     -43.639  62.491 -60.188  1.00  0.00     0.089 A 
HETATM   33  C   UNL     1     -44.180  63.220 -59.149  1.00  0.00     0.053 A 
HETATM   34  C   UNL     1     -45.473  62.916 -58.793  1.00  0.00     0.139 A 
HETATM   35  N   UNL     1     -46.213  61.975 -59.401  1.00  0.00    -0.075 NA
BRANCH  32  36
HETATM   36  C   UNL     1     -42.256  62.660 -60.692  1.00  0.00     0.011 A 
HETATM   37  C   UNL     1     -41.977  62.691 -62.065  1.00  0.00     0.130 A 
HETATM   38  N   UNL     1     -40.739  62.822 -62.620  1.00  0.00    -0.272 NA
HETATM   39  C   UNL     1     -39.706  62.940 -61.768  1.00  0.00     0.116 A 
HETATM   40  C   UNL     1     -39.850  62.933 -60.394  1.00  0.00     0.020 A 
HETATM   41  C   UNL     1     -41.132  62.790 -59.858  1.00  0.00     0.017 A 
ENDBRANCH  32  36
ENDBRANCH  28  30
ENDBRANCH   3  28
TORSDOF 11
ENDMDL
MODEL 8
REMARK VINA RESULT:      -7.1     18.381     22.610
REMARK  11 active torsions:
REMARK  status: ('A' for Active; 'I' for Inactive)
REMARK    1  A    between atoms: C_3  and  N_4 
REMARK    2  A    between atoms: N_4  and  C_5 
REMARK    3  A    between atoms: C_7  and  C_8 
REMARK    4  A    between atoms: C_18  and  N_19 
REMARK       I    between atoms: N_19  and  C_20 
REMARK    5  A    between atoms: C_20  and  C_21 
REMARK    6  A    between atoms: C_22  and  C_23 
REMARK    7  A    between atoms: C_26  and  O_27 
REMARK    8  A    between atoms: O_27  and  C_28 
REMARK    9  A    between atoms: C_28  and  C_29 
REMARK   10  A    between atoms: C_29  and  C_30 
REMARK   11  A    between atoms: C_30  and  N_31 
ROOT
HETATM    1  C   UNL     1     -44.453  36.720 -47.363  1.00  0.00     0.050 C 
HETATM    2  C   UNL     1     -43.209  37.281 -48.000  1.00  0.00    -0.035 A 
HETATM    3  C   UNL     1     -42.312  38.104 -47.285  1.00  0.00     0.057 A 
HETATM    4  C   UNL     1     -41.145  38.541 -47.936  1.00  0.00     0.060 A 
HETATM    5  C   UNL     1     -40.855  38.186 -49.255  1.00  0.00     0.037 A 
HETATM    6  C   UNL     1     -41.749  37.366 -49.944  1.00  0.00     0.030 A 
HETATM    7  C   UNL     1     -42.916  36.919 -49.325  1.00  0.00     0.011 A 
ENDROOT
BRANCH   5   8
HETATM    8  N   UNL     1     -39.685  38.582 -49.935  1.00  0.00    -0.324 N 
HETATM    9  C   UNL     1     -38.423  38.035 -49.820  1.00  0.00     0.245 C 
HETATM   10  O   UNL     1     -38.043  37.182 -49.031  1.00  0.00    -0.268 OA
HETATM   11  H   UNL     1     -39.804  39.350 -50.579  1.00  0.00     0.169 HD
BRANCH   9  12
HETATM   12  C   UNL     1     -37.485  38.639 -50.805  1.00  0.00     0.075 C 
HETATM   13  C   UNL     1     -37.880  39.646 -51.597  1.00  0.00     0.017 C 
BRANCH  13  14
HETATM   14  C   UNL     1     -36.927  40.226 -52.539  1.00  0.00    -0.036 A 
HETATM   15  C   UNL     1     -36.944  41.598 -52.797  1.00  0.00     0.014 A 
HETATM   16  C   UNL     1     -36.110  42.140 -53.779  1.00  0.00     0.037 A 
HETATM   17  C   UNL     1     -35.277  41.302 -54.519  1.00  0.00     0.068 A 
HETATM   18  C   UNL     1     -35.218  39.939 -54.227  1.00  0.00     0.037 A 
HETATM   19  C   UNL     1     -36.047  39.399 -53.244  1.00  0.00     0.014 A 
BRANCH  17  20
HETATM   20  O   UNL     1     -34.427  41.739 -55.493  1.00  0.00    -0.351 OA
BRANCH  20  21
HETATM   21  C   UNL     1     -35.028  42.459 -56.571  1.00  0.00     0.177 C 
BRANCH  21  22
HETATM   22  C   UNL     1     -35.576  41.430 -57.557  1.00  0.00     0.054 C 
BRANCH  22  23
HETATM   23  C   UNL     1     -36.942  41.866 -58.080  1.00  0.00     0.236 C 
BRANCH  23  24
HETATM   24  N   UNL     1     -38.006  40.829 -57.776  1.00  0.00    -0.079 N 
HETATM   25  H   UNL     1     -38.817  41.020 -58.379  1.00  0.00     0.278 HD
HETATM   26  C   UNL     1     -37.556  39.418 -58.056  1.00  0.00     0.269 C 
HETATM   27  C   UNL     1     -38.489  40.961 -56.354  1.00  0.00     0.269 C 
ENDBRANCH  23  24
ENDBRANCH  22  23
ENDBRANCH  21  22
ENDBRANCH  20  21
ENDBRANCH  17  20
ENDBRANCH  13  14
ENDBRANCH   9  12
ENDBRANCH   5   8
BRANCH   3  28
HETATM   28  N   UNL     1     -42.554  38.394 -45.930  1.00  0.00    -0.188 N 
HETATM   29  H   UNL     1     -43.403  38.897 -45.724  1.00  0.00     0.184 HD
BRANCH  28  30
HETATM   30  C   UNL     1     -41.695  38.493 -44.837  1.00  0.00     0.727 A 
HETATM   31  N   UNL     1     -41.492  39.665 -44.214  1.00  0.00    -0.062 NA
HETATM   32  C   UNL     1     -40.658  39.718 -43.153  1.00  0.00     0.089 A 
HETATM   33  C   UNL     1     -40.008  38.580 -42.719  1.00  0.00     0.053 A 
HETATM   34  C   UNL     1     -40.248  37.428 -43.430  1.00  0.00     0.139 A 
HETATM   35  N   UNL     1     -41.071  37.361 -44.488  1.00  0.00    -0.075 NA
BRANCH  32  36
HETATM   36  C   UNL     1     -40.503  41.053 -42.529  1.00  0.00     0.011 A 
HETATM   37  C   UNL     1     -39.571  41.278 -41.507  1.00  0.00     0.130 A 
HETATM   38  N   UNL     1     -39.372  42.462 -40.861  1.00  0.00    -0.272 NA
HETATM   39  C   UNL     1     -40.135  43.497 -41.254  1.00  0.00     0.116 A 
HETATM   40  C   UNL     1     -41.083  43.407 -42.255  1.00  0.00     0.020 A 
HETATM   41  C   UNL     1     -41.265  42.176 -42.891  1.00  0.00     0.017 A 
ENDBRANCH  32  36
ENDBRANCH  28  30
ENDBRANCH   3  28
TORSDOF 11
ENDMDL
MODEL 9
REMARK VINA RESULT:      -6.9      7.066     11.153
REMARK  11 active torsions:
REMARK  status: ('A' for Active; 'I' for Inactive)
REMARK    1  A    between atoms: C_3  and  N_4 
REMARK    2  A    between atoms: N_4  and  C_5 
REMARK    3  A    between atoms: C_7  and  C_8 
REMARK    4  A    between atoms: C_18  and  N_19 
REMARK       I    between atoms: N_19  and  C_20 
REMARK    5  A    between atoms: C_20  and  C_21 
REMARK    6  A    between atoms: C_22  and  C_23 
REMARK    7  A    between atoms: C_26  and  O_27 
REMARK    8  A    between atoms: O_27  and  C_28 
REMARK    9  A    between atoms: C_28  and  C_29 
REMARK   10  A    between atoms: C_29  and  C_30 
REMARK   11  A    between atoms: C_30  and  N_31 
ROOT
HETATM    1  C   UNL     1     -49.571  60.732 -61.149  1.00  0.00     0.050 C 
HETATM    2  C   UNL     1     -48.550  60.023 -60.298  1.00  0.00    -0.035 A 
HETATM    3  C   UNL     1     -48.439  60.266 -58.912  1.00  0.00     0.057 A 
HETATM    4  C   UNL     1     -47.497  59.522 -58.179  1.00  0.00     0.060 A 
HETATM    5  C   UNL     1     -46.680  58.563 -58.780  1.00  0.00     0.037 A 
HETATM    6  C   UNL     1     -46.809  58.330 -60.149  1.00  0.00     0.030 A 
HETATM    7  C   UNL     1     -47.732  59.054 -60.903  1.00  0.00     0.011 A 
ENDROOT
BRANCH   5   8
HETATM    8  N   UNL     1     -45.743  57.778 -58.077  1.00  0.00    -0.324 N 
HETATM    9  C   UNL     1     -44.369  57.793 -58.208  1.00  0.00     0.245 C 
HETATM   10  O   UNL     1     -43.701  58.401 -59.032  1.00  0.00    -0.268 OA
HETATM   11  H   UNL     1     -46.140  57.142 -57.400  1.00  0.00     0.169 HD
BRANCH   9  12
HETATM   12  C   UNL     1     -43.723  56.919 -57.193  1.00  0.00     0.075 C 
HETATM   13  C   UNL     1     -43.908  57.138 -55.883  1.00  0.00     0.017 C 
BRANCH  13  14
HETATM   14  C   UNL     1     -43.273  56.248 -54.916  1.00  0.00    -0.036 A 
HETATM   15  C   UNL     1     -41.890  56.296 -54.724  1.00  0.00     0.014 A 
HETATM   16  C   UNL     1     -41.265  55.371 -53.883  1.00  0.00     0.037 A 
HETATM   17  C   UNL     1     -42.022  54.384 -53.253  1.00  0.00     0.068 A 
HETATM   18  C   UNL     1     -43.410  54.368 -53.400  1.00  0.00     0.037 A 
HETATM   19  C   UNL     1     -44.035  55.293 -54.236  1.00  0.00     0.014 A 
BRANCH  17  20
HETATM   20  O   UNL     1     -41.502  53.444 -52.412  1.00  0.00    -0.351 OA
BRANCH  20  21
HETATM   21  C   UNL     1     -40.123  53.125 -52.609  1.00  0.00     0.177 C 
BRANCH  21  22
HETATM   22  C   UNL     1     -39.580  52.611 -51.278  1.00  0.00     0.054 C 
BRANCH  22  23
HETATM   23  C   UNL     1     -40.553  52.928 -50.145  1.00  0.00     0.236 C 
BRANCH  23  24
HETATM   24  N   UNL     1     -40.140  54.181 -49.399  1.00  0.00    -0.079 N 
HETATM   25  H   UNL     1     -39.158  54.382 -49.630  1.00  0.00     0.278 HD
HETATM   26  C   UNL     1     -40.951  55.393 -49.781  1.00  0.00     0.269 C 
HETATM   27  C   UNL     1     -40.192  53.956 -47.909  1.00  0.00     0.269 C 
ENDBRANCH  23  24
ENDBRANCH  22  23
ENDBRANCH  21  22
ENDBRANCH  20  21
ENDBRANCH  17  20
ENDBRANCH  13  14
ENDBRANCH   9  12
ENDBRANCH   5   8
BRANCH   3  28
HETATM   28  N   UNL     1     -49.317  61.168 -58.284  1.00  0.00    -0.188 N 
HETATM   29  H   UNL     1     -48.985  62.113 -58.173  1.00  0.00     0.184 HD
BRANCH  28  30
HETATM   30  C   UNL     1     -50.393  60.964 -57.422  1.00  0.00     0.727 A 
HETATM   31  N   UNL     1     -50.423  61.522 -56.201  1.00  0.00    -0.062 NA
HETATM   32  C   UNL     1     -51.488  61.307 -55.398  1.00  0.00     0.089 A 
HETATM   33  C   UNL     1     -52.531  60.509 -55.822  1.00  0.00     0.053 A 
HETATM   34  C   UNL     1     -52.409  59.952 -57.073  1.00  0.00     0.139 A 
HETATM   35  N   UNL     1     -51.355  60.153 -57.880  1.00  0.00    -0.075 NA
BRANCH  32  36
HETATM   36  C   UNL     1     -51.432  61.969 -54.074  1.00  0.00     0.011 A 
HETATM   37  C   UNL     1     -50.209  62.289 -53.468  1.00  0.00     0.130 A 
HETATM   38  N   UNL     1     -50.058  62.877 -52.248  1.00  0.00    -0.272 NA
HETATM   39  C   UNL     1     -51.186  63.180 -51.582  1.00  0.00     0.116 A 
HETATM   40  C   UNL     1     -52.451  62.923 -52.074  1.00  0.00     0.020 A 
HETATM   41  C   UNL     1     -52.570  62.313 -53.325  1.00  0.00     0.017 A 
ENDBRANCH  32  36
ENDBRANCH  28  30
ENDBRANCH   3  28
TORSDOF 11
ENDMDL
MODEL 10
REMARK VINA RESULT:      -6.8     20.755     23.130
REMARK  11 active torsions:
REMARK  status: ('A' for Active; 'I' for Inactive)
REMARK    1  A    between atoms: C_3  and  N_4 
REMARK    2  A    between atoms: N_4  and  C_5 
REMARK    3  A    between atoms: C_7  and  C_8 
REMARK    4  A    between atoms: C_18  and  N_19 
REMARK       I    between atoms: N_19  and  C_20 
REMARK    5  A    between atoms: C_20  and  C_21 
REMARK    6  A    between atoms: C_22  and  C_23 
REMARK    7  A    between atoms: C_26  and  O_27 
REMARK    8  A    between atoms: O_27  and  C_28 
REMARK    9  A    between atoms: C_28  and  C_29 
REMARK   10  A    between atoms: C_29  and  C_30 
REMARK   11  A    between atoms: C_30  and  N_31 
ROOT
HETATM    1  C   UNL     1     -37.474  42.240 -58.486  1.00  0.00     0.050 C 
HETATM    2  C   UNL     1     -36.719  41.666 -57.316  1.00  0.00    -0.035 A 
HETATM    3  C   UNL     1     -35.812  40.595 -57.467  1.00  0.00     0.057 A 
HETATM    4  C   UNL     1     -35.106  40.154 -56.334  1.00  0.00     0.060 A 
HETATM    5  C   UNL     1     -35.278  40.741 -55.079  1.00  0.00     0.037 A 
HETATM    6  C   UNL     1     -36.172  41.804 -54.949  1.00  0.00     0.030 A 
HETATM    7  C   UNL     1     -36.889  42.261 -56.055  1.00  0.00     0.011 A 
ENDROOT
BRANCH   5   8
HETATM    8  N   UNL     1     -34.571  40.346 -53.924  1.00  0.00    -0.324 N 
HETATM    9  C   UNL     1     -33.208  40.403 -53.715  1.00  0.00     0.245 C 
HETATM   10  O   UNL     1     -32.336  40.697 -54.520  1.00  0.00    -0.268 OA
HETATM   11  H   UNL     1     -35.144  39.989 -53.174  1.00  0.00     0.169 HD
BRANCH   9  12
HETATM   12  C   UNL     1     -32.864  40.023 -52.318  1.00  0.00     0.075 C 
HETATM   13  C   UNL     1     -33.823  39.875 -51.393  1.00  0.00     0.017 C 
BRANCH  13  14
HETATM   14  C   UNL     1     -33.450  39.484 -50.037  1.00  0.00    -0.036 A 
HETATM   15  C   UNL     1     -32.223  39.888 -49.505  1.00  0.00     0.014 A 
HETATM   16  C   UNL     1     -31.813  39.424 -48.252  1.00  0.00     0.037 A 
HETATM   17  C   UNL     1     -32.623  38.538 -47.543  1.00  0.00     0.068 A 
HETATM   18  C   UNL     1     -33.872  38.177 -48.047  1.00  0.00     0.037 A 
HETATM   19  C   UNL     1     -34.283  38.642 -49.295  1.00  0.00     0.014 A 
BRANCH  17  20
HETATM   20  O   UNL     1     -32.309  38.037 -46.312  1.00  0.00    -0.351 OA
BRANCH  20  21
HETATM   21  C   UNL     1     -30.925  38.062 -45.962  1.00  0.00     0.177 C 
BRANCH  21  22
HETATM   22  C   UNL     1     -30.743  39.137 -44.893  1.00  0.00     0.054 C 
BRANCH  22  23
HETATM   23  C   UNL     1     -29.694  40.154 -45.331  1.00  0.00     0.236 C 
BRANCH  23  24
HETATM   24  N   UNL     1     -28.393  39.965 -44.577  1.00  0.00    -0.079 N 
HETATM   25  H   UNL     1     -28.015  40.896 -44.355  1.00  0.00     0.278 HD
HETATM   26  C   UNL     1     -28.564  39.226 -43.275  1.00  0.00     0.269 C 
HETATM   27  C   UNL     1     -27.367  39.282 -45.445  1.00  0.00     0.269 C 
ENDBRANCH  23  24
ENDBRANCH  22  23
ENDBRANCH  21  22
ENDBRANCH  20  21
ENDBRANCH  17  20
ENDBRANCH  13  14
ENDBRANCH   9  12
ENDBRANCH   5   8
BRANCH   3  28
HETATM   28  N   UNL     1     -35.569  40.056 -58.744  1.00  0.00    -0.188 N 
HETATM   29  H   UNL     1     -35.234  40.698 -59.445  1.00  0.00     0.184 HD
BRANCH  28  30
HETATM   30  C   UNL     1     -36.059  38.914 -59.375  1.00  0.00     0.727 A 
HETATM   31  N   UNL     1     -37.365  38.780 -59.656  1.00  0.00    -0.062 NA
HETATM   32  C   UNL     1     -37.799  37.661 -60.276  1.00  0.00     0.089 A 
HETATM   33  C   UNL     1     -36.911  36.658 -60.607  1.00  0.00     0.053 A 
HETATM   34  C   UNL     1     -35.597  36.862 -60.259  1.00  0.00     0.139 A 
HETATM   35  N   UNL     1     -35.151  37.965 -59.639  1.00  0.00    -0.075 NA
BRANCH  32  36
HETATM   36  C   UNL     1     -39.255  37.607 -60.548  1.00  0.00     0.011 A 
HETATM   37  C   UNL     1     -40.145  37.012 -59.644  1.00  0.00     0.130 A 
HETATM   38  N   UNL     1     -41.492  36.897 -59.816  1.00  0.00    -0.272 NA
HETATM   39  C   UNL     1     -42.000  37.409 -60.951  1.00  0.00     0.116 A 
HETATM   40  C   UNL     1     -41.230  38.027 -61.917  1.00  0.00     0.020 A 
HETATM   41  C   UNL     1     -39.851  38.122 -61.711  1.00  0.00     0.017 A 
ENDBRANCH  32  36
ENDBRANCH  28  30
ENDBRANCH   3  28
TORSDOF 11
ENDMDL
