MODEL 1
REMARK VINA RESULT:      -8.0      0.000      0.000
REMARK  9 active torsions:
REMARK  status: ('A' for Active; 'I' for Inactive)
REMARK    1  A    between atoms: O_2  and  C_3 
REMARK    2  A    between atoms: C_5  and  C_15 
REMARK    3  A    between atoms: C_8  and  C_9 
REMARK       I    between atoms: C_15  and  N_17 
REMARK    4  A    between atoms: N_17  and  C_18 
REMARK    5  A    between atoms: C_18  and  C_19 
REMARK    6  A    between atoms: C_18  and  C_27 
REMARK    7  A    between atoms: C_19  and  N_20 
REMARK    8  A    between atoms: N_20  and  S_21 
REMARK    9  A    between atoms: S_21  and  C_24 
ROOT
HETATM    1  C   UNL     1     -41.573  56.490 -54.684  1.00  0.00     0.252 C 
HETATM    2  O   UNL     1     -41.151  57.475 -54.088  1.00  0.00    -0.268 OA
HETATM    3  N   UNL     1     -42.430  56.593 -55.758  1.00  0.00    -0.347 N 
HETATM    4  H   UNL     1     -42.703  55.784 -56.298  1.00  0.00     0.163 HD
ENDROOT
BRANCH   3   5
HETATM    5  C   UNL     1     -42.812  57.911 -56.281  1.00  0.00     0.132 C 
BRANCH   5   6
HETATM    6  C   UNL     1     -44.265  58.261 -55.844  1.00  0.00     0.134 C 
BRANCH   6   7
HETATM    7  N   UNL     1     -45.257  57.558 -56.707  1.00  0.00    -0.217 NA
HETATM    8  H   UNL     1     -45.876  56.962 -56.154  1.00  0.00     0.139 HD
BRANCH   7   9
HETATM    9  S   UNL     1     -46.206  58.529 -57.710  1.00  0.00     0.213 S 
HETATM   10  O   UNL     1     -47.573  58.141 -57.449  1.00  0.00    -0.211 OA
HETATM   11  O   UNL     1     -45.762  59.891 -57.526  1.00  0.00    -0.211 OA
BRANCH   9  12
HETATM   12  C   UNL     1     -45.785  58.087 -59.420  1.00  0.00     0.124 A 
HETATM   13  C   UNL     1     -45.944  56.625 -59.743  1.00  0.00     0.023 A 
HETATM   14  C   UNL     1     -46.938  57.625 -60.269  1.00  0.00     0.023 A 
ENDBRANCH   9  12
ENDBRANCH   7   9
ENDBRANCH   6   7
ENDBRANCH   5   6
BRANCH   5  15
HETATM   15  C   UNL     1     -42.495  57.986 -57.774  1.00  0.00    -0.034 A 
HETATM   16  C   UNL     1     -42.381  56.856 -58.597  1.00  0.00     0.009 A 
HETATM   17  C   UNL     1     -42.112  56.982 -59.965  1.00  0.00     0.001 A 
HETATM   18  C   UNL     1     -41.956  58.242 -60.534  1.00  0.00     0.000 A 
HETATM   19  C   UNL     1     -42.078  59.378 -59.742  1.00  0.00     0.001 A 
HETATM   20  C   UNL     1     -42.355  59.252 -58.379  1.00  0.00     0.009 A 
ENDBRANCH   5  15
ENDBRANCH   3   5
BRANCH   1  21
HETATM   21  C   UNL     1     -41.123  55.126 -54.281  1.00  0.00     0.034 A 
HETATM   22  C   UNL     1     -41.408  54.710 -52.969  1.00  0.00     0.054 A 
HETATM   23  C   UNL     1     -41.015  53.448 -52.506  1.00  0.00     0.080 A 
HETATM   24  C   UNL     1     -40.327  52.576 -53.376  1.00  0.00     0.010 A 
HETATM   25  C   UNL     1     -40.058  52.995 -54.692  1.00  0.00     0.016 A 
HETATM   26  C   UNL     1     -40.453  54.258 -55.145  1.00  0.00     0.018 A 
BRANCH  23  27
HETATM   27  O   UNL     1     -41.249  52.999 -51.231  1.00  0.00    -0.355 OA
HETATM   28  C   UNL     1     -41.145  53.931 -50.162  1.00  0.00     0.210 C 
ENDBRANCH  23  27
BRANCH  24  29
HETATM   29  C   UNL     1     -39.905  51.245 -52.958  1.00  0.00     0.013 A 
HETATM   30  C   UNL     1     -39.857  50.021 -53.664  1.00  0.00     0.152 A 
HETATM   31  N   UNL     1     -39.401  49.009 -52.920  1.00  0.00    -0.187 NA
HETATM   32  N   UNL     1     -39.175  49.579 -51.726  1.00  0.00    -0.289 N 
HETATM   33  H   UNL     1     -38.830  48.992 -50.974  1.00  0.00     0.188 HD
HETATM   34  C   UNL     1     -39.452  50.915 -51.697  1.00  0.00     0.123 A 
ENDBRANCH  24  29
ENDBRANCH   1  21
TORSDOF 9
ENDMDL
MODEL 2
REMARK VINA RESULT:      -7.8      2.650      3.947
REMARK  9 active torsions:
REMARK  status: ('A' for Active; 'I' for Inactive)
REMARK    1  A    between atoms: O_2  and  C_3 
REMARK    2  A    between atoms: C_5  and  C_15 
REMARK    3  A    between atoms: C_8  and  C_9 
REMARK       I    between atoms: C_15  and  N_17 
REMARK    4  A    between atoms: N_17  and  C_18 
REMARK    5  A    between atoms: C_18  and  C_19 
REMARK    6  A    between atoms: C_18  and  C_27 
REMARK    7  A    between atoms: C_19  and  N_20 
REMARK    8  A    between atoms: N_20  and  S_21 
REMARK    9  A    between atoms: S_21  and  C_24 
ROOT
HETATM    1  C   UNL     1     -41.271  56.805 -53.878  1.00  0.00     0.252 C 
HETATM    2  O   UNL     1     -40.512  57.691 -53.498  1.00  0.00    -0.268 OA
HETATM    3  N   UNL     1     -42.459  57.082 -54.518  1.00  0.00    -0.347 N 
HETATM    4  H   UNL     1     -43.036  56.349 -54.906  1.00  0.00     0.163 HD
ENDROOT
BRANCH   3   5
HETATM    5  C   UNL     1     -42.827  58.468 -54.839  1.00  0.00     0.132 C 
BRANCH   5   6
HETATM    6  C   UNL     1     -44.264  58.775 -54.324  1.00  0.00     0.134 C 
BRANCH   6   7
HETATM    7  N   UNL     1     -44.666  57.796 -53.274  1.00  0.00    -0.217 NA
HETATM    8  H   UNL     1     -44.243  56.879 -53.437  1.00  0.00     0.139 HD
BRANCH   7   9
HETATM    9  S   UNL     1     -44.371  58.243 -51.674  1.00  0.00     0.213 S 
HETATM   10  O   UNL     1     -45.578  57.915 -50.949  1.00  0.00    -0.211 OA
HETATM   11  O   UNL     1     -43.094  57.678 -51.303  1.00  0.00    -0.211 OA
BRANCH   9  12
HETATM   12  C   UNL     1     -44.148  60.044 -51.663  1.00  0.00     0.124 A 
HETATM   13  C   UNL     1     -43.858  60.628 -50.306  1.00  0.00     0.023 A 
HETATM   14  C   UNL     1     -42.761  60.520 -51.330  1.00  0.00     0.023 A 
ENDBRANCH   9  12
ENDBRANCH   7   9
ENDBRANCH   6   7
ENDBRANCH   5   6
BRANCH   5  15
HETATM   15  C   UNL     1     -42.538  58.750 -56.313  1.00  0.00    -0.034 A 
HETATM   16  C   UNL     1     -42.203  60.021 -56.805  1.00  0.00     0.009 A 
HETATM   17  C   UNL     1     -41.924  60.220 -58.161  1.00  0.00     0.001 A 
HETATM   18  C   UNL     1     -41.973  59.152 -59.050  1.00  0.00     0.000 A 
HETATM   19  C   UNL     1     -42.289  57.880 -58.585  1.00  0.00     0.001 A 
HETATM   20  C   UNL     1     -42.559  57.680 -57.230  1.00  0.00     0.009 A 
ENDBRANCH   5  15
ENDBRANCH   3   5
BRANCH   1  21
HETATM   21  C   UNL     1     -40.897  55.373 -53.694  1.00  0.00     0.034 A 
HETATM   22  C   UNL     1     -41.019  54.831 -52.403  1.00  0.00     0.054 A 
HETATM   23  C   UNL     1     -40.682  53.497 -52.140  1.00  0.00     0.080 A 
HETATM   24  C   UNL     1     -40.219  52.681 -53.194  1.00  0.00     0.010 A 
HETATM   25  C   UNL     1     -40.112  53.228 -54.486  1.00  0.00     0.016 A 
HETATM   26  C   UNL     1     -40.450  54.562 -54.738  1.00  0.00     0.018 A 
BRANCH  23  27
HETATM   27  O   UNL     1     -40.763  52.923 -50.897  1.00  0.00    -0.355 OA
HETATM   28  C   UNL     1     -40.329  53.685 -49.777  1.00  0.00     0.210 C 
ENDBRANCH  23  27
BRANCH  24  29
HETATM   29  C   UNL     1     -39.867  51.282 -52.987  1.00  0.00     0.013 A 
HETATM   30  C   UNL     1     -39.812  50.195 -53.890  1.00  0.00     0.152 A 
HETATM   31  N   UNL     1     -39.437  49.053 -53.305  1.00  0.00    -0.187 NA
HETATM   32  N   UNL     1     -39.269  49.402 -52.020  1.00  0.00    -0.289 N 
HETATM   33  H   UNL     1     -38.992  48.683 -51.361  1.00  0.00     0.188 HD
HETATM   34  C   UNL     1     -39.506  50.725 -51.778  1.00  0.00     0.123 A 
ENDBRANCH  24  29
ENDBRANCH   1  21
TORSDOF 9
ENDMDL
MODEL 3
REMARK VINA RESULT:      -7.8      3.201      8.437
REMARK  9 active torsions:
REMARK  status: ('A' for Active; 'I' for Inactive)
REMARK    1  A    between atoms: O_2  and  C_3 
REMARK    2  A    between atoms: C_5  and  C_15 
REMARK    3  A    between atoms: C_8  and  C_9 
REMARK       I    between atoms: C_15  and  N_17 
REMARK    4  A    between atoms: N_17  and  C_18 
REMARK    5  A    between atoms: C_18  and  C_19 
REMARK    6  A    between atoms: C_18  and  C_27 
REMARK    7  A    between atoms: C_19  and  N_20 
REMARK    8  A    between atoms: N_20  and  S_21 
REMARK    9  A    between atoms: S_21  and  C_24 
ROOT
HETATM    1  C   UNL     1     -43.020  55.447 -54.465  1.00  0.00     0.252 C 
HETATM    2  O   UNL     1     -44.001  54.777 -54.158  1.00  0.00    -0.268 OA
HETATM    3  N   UNL     1     -41.872  55.459 -53.703  1.00  0.00    -0.347 N 
HETATM    4  H   UNL     1     -41.039  55.941 -54.007  1.00  0.00     0.163 HD
ENDROOT
BRANCH   3   5
HETATM    5  C   UNL     1     -41.755  54.596 -52.519  1.00  0.00     0.132 C 
BRANCH   5   6
HETATM    6  C   UNL     1     -41.239  55.421 -51.303  1.00  0.00     0.134 C 
BRANCH   6   7
HETATM    7  N   UNL     1     -42.176  56.538 -50.990  1.00  0.00    -0.217 NA
HETATM    8  H   UNL     1     -42.496  56.494 -50.020  1.00  0.00     0.139 HD
BRANCH   7   9
HETATM    9  S   UNL     1     -41.617  58.099 -51.299  1.00  0.00     0.213 S 
HETATM   10  O   UNL     1     -40.902  58.501 -50.109  1.00  0.00    -0.211 OA
HETATM   11  O   UNL     1     -40.972  58.072 -52.592  1.00  0.00    -0.211 OA
BRANCH   9  12
HETATM   12  C   UNL     1     -43.083  59.154 -51.490  1.00  0.00     0.124 A 
HETATM   13  C   UNL     1     -42.792  60.632 -51.481  1.00  0.00     0.023 A 
HETATM   14  C   UNL     1     -43.148  59.942 -52.770  1.00  0.00     0.023 A 
ENDBRANCH   9  12
ENDBRANCH   7   9
ENDBRANCH   6   7
ENDBRANCH   5   6
BRANCH   5  15
HETATM   15  C   UNL     1     -40.986  53.326 -52.879  1.00  0.00    -0.034 A 
HETATM   16  C   UNL     1     -41.034  52.727 -54.147  1.00  0.00     0.009 A 
HETATM   17  C   UNL     1     -40.290  51.577 -54.431  1.00  0.00     0.001 A 
HETATM   18  C   UNL     1     -39.483  51.005 -53.452  1.00  0.00     0.000 A 
HETATM   19  C   UNL     1     -39.408  51.588 -52.192  1.00  0.00     0.001 A 
HETATM   20  C   UNL     1     -40.144  52.741 -51.911  1.00  0.00     0.009 A 
ENDBRANCH   5  15
ENDBRANCH   3   5
BRANCH   1  21
HETATM   21  C   UNL     1     -43.028  56.248 -55.723  1.00  0.00     0.034 A 
HETATM   22  C   UNL     1     -43.041  55.545 -56.940  1.00  0.00     0.054 A 
HETATM   23  C   UNL     1     -43.042  56.219 -58.168  1.00  0.00     0.080 A 
HETATM   24  C   UNL     1     -43.038  57.630 -58.182  1.00  0.00     0.010 A 
HETATM   25  C   UNL     1     -43.039  58.326 -56.959  1.00  0.00     0.016 A 
HETATM   26  C   UNL     1     -43.037  57.644 -55.738  1.00  0.00     0.018 A 
BRANCH  23  27
HETATM   27  O   UNL     1     -43.034  55.583 -59.384  1.00  0.00    -0.355 OA
HETATM   28  C   UNL     1     -44.202  54.874 -59.777  1.00  0.00     0.210 C 
ENDBRANCH  23  27
BRANCH  24  29
HETATM   29  C   UNL     1     -43.054  58.387 -59.427  1.00  0.00     0.013 A 
HETATM   30  C   UNL     1     -42.001  58.950 -60.185  1.00  0.00     0.152 A 
HETATM   31  N   UNL     1     -42.430  59.577 -61.285  1.00  0.00    -0.187 NA
HETATM   32  N   UNL     1     -43.763  59.434 -61.224  1.00  0.00    -0.289 N 
HETATM   33  H   UNL     1     -44.323  59.849 -61.960  1.00  0.00     0.188 HD
HETATM   34  C   UNL     1     -44.187  58.724 -60.137  1.00  0.00     0.123 A 
ENDBRANCH  24  29
ENDBRANCH   1  21
TORSDOF 9
ENDMDL
MODEL 4
REMARK VINA RESULT:      -7.8      2.996      8.314
REMARK  9 active torsions:
REMARK  status: ('A' for Active; 'I' for Inactive)
REMARK    1  A    between atoms: O_2  and  C_3 
REMARK    2  A    between atoms: C_5  and  C_15 
REMARK    3  A    between atoms: C_8  and  C_9 
REMARK       I    between atoms: C_15  and  N_17 
REMARK    4  A    between atoms: N_17  and  C_18 
REMARK    5  A    between atoms: C_18  and  C_19 
REMARK    6  A    between atoms: C_18  and  C_27 
REMARK    7  A    between atoms: C_19  and  N_20 
REMARK    8  A    between atoms: N_20  and  S_21 
REMARK    9  A    between atoms: S_21  and  C_24 
ROOT
HETATM    1  C   UNL     1     -43.020  55.348 -54.561  1.00  0.00     0.252 C 
HETATM    2  O   UNL     1     -44.018  54.743 -54.185  1.00  0.00    -0.268 OA
HETATM    3  N   UNL     1     -41.840  55.330 -53.850  1.00  0.00    -0.347 N 
HETATM    4  H   UNL     1     -40.998  55.756 -54.209  1.00  0.00     0.163 HD
ENDROOT
BRANCH   3   5
HETATM    5  C   UNL     1     -41.714  54.511 -52.637  1.00  0.00     0.132 C 
BRANCH   5   6
HETATM    6  C   UNL     1     -41.173  55.374 -51.460  1.00  0.00     0.134 C 
BRANCH   6   7
HETATM    7  N   UNL     1     -42.228  56.305 -50.963  1.00  0.00    -0.217 NA
HETATM    8  H   UNL     1     -42.346  56.227 -49.951  1.00  0.00     0.139 HD
BRANCH   7   9
HETATM    9  S   UNL     1     -42.041  57.935 -51.357  1.00  0.00     0.213 S 
HETATM   10  O   UNL     1     -41.312  58.521 -50.256  1.00  0.00    -0.211 OA
HETATM   11  O   UNL     1     -41.534  57.990 -52.709  1.00  0.00    -0.211 OA
BRANCH   9  12
HETATM   12  C   UNL     1     -43.706  58.657 -51.412  1.00  0.00     0.124 A 
HETATM   13  C   UNL     1     -44.557  58.174 -52.557  1.00  0.00     0.023 A 
HETATM   14  C   UNL     1     -44.834  57.695 -51.157  1.00  0.00     0.023 A 
ENDBRANCH   9  12
ENDBRANCH   7   9
ENDBRANCH   6   7
ENDBRANCH   5   6
BRANCH   5  15
HETATM   15  C   UNL     1     -40.961  53.221 -52.960  1.00  0.00    -0.034 A 
HETATM   16  C   UNL     1     -41.025  52.581 -54.207  1.00  0.00     0.009 A 
HETATM   17  C   UNL     1     -40.296  51.414 -54.458  1.00  0.00     0.001 A 
HETATM   18  C   UNL     1     -39.487  50.866 -53.468  1.00  0.00     0.000 A 
HETATM   19  C   UNL     1     -39.396  51.490 -52.228  1.00  0.00     0.001 A 
HETATM   20  C   UNL     1     -40.117  52.659 -51.980  1.00  0.00     0.009 A 
ENDBRANCH   5  15
ENDBRANCH   3   5
BRANCH   1  21
HETATM   21  C   UNL     1     -43.044  56.098 -55.851  1.00  0.00     0.034 A 
HETATM   22  C   UNL     1     -43.138  57.498 -55.785  1.00  0.00     0.054 A 
HETATM   23  C   UNL     1     -43.175  58.278 -56.948  1.00  0.00     0.080 A 
HETATM   24  C   UNL     1     -43.107  57.646 -58.207  1.00  0.00     0.010 A 
HETATM   25  C   UNL     1     -42.999  56.244 -58.263  1.00  0.00     0.016 A 
HETATM   26  C   UNL     1     -42.965  55.473 -57.097  1.00  0.00     0.018 A 
BRANCH  23  27
HETATM   27  O   UNL     1     -43.286  59.646 -56.943  1.00  0.00    -0.355 OA
HETATM   28  C   UNL     1     -42.192  60.406 -56.445  1.00  0.00     0.210 C 
ENDBRANCH  23  27
BRANCH  24  29
HETATM   29  C   UNL     1     -43.125  58.404 -59.452  1.00  0.00     0.013 A 
HETATM   30  C   UNL     1     -42.087  59.056 -60.157  1.00  0.00     0.152 A 
HETATM   31  N   UNL     1     -42.513  59.649 -61.277  1.00  0.00    -0.187 NA
HETATM   32  N   UNL     1     -43.831  59.394 -61.282  1.00  0.00    -0.289 N 
HETATM   33  H   UNL     1     -44.386  59.763 -62.045  1.00  0.00     0.188 HD
HETATM   34  C   UNL     1     -44.246  58.647 -60.217  1.00  0.00     0.123 A 
ENDBRANCH  24  29
ENDBRANCH   1  21
TORSDOF 9
ENDMDL
MODEL 5
REMARK VINA RESULT:      -7.8      2.232      3.494
REMARK  9 active torsions:
REMARK  status: ('A' for Active; 'I' for Inactive)
REMARK    1  A    between atoms: O_2  and  C_3 
REMARK    2  A    between atoms: C_5  and  C_15 
REMARK    3  A    between atoms: C_8  and  C_9 
REMARK       I    between atoms: C_15  and  N_17 
REMARK    4  A    between atoms: N_17  and  C_18 
REMARK    5  A    between atoms: C_18  and  C_19 
REMARK    6  A    between atoms: C_18  and  C_27 
REMARK    7  A    between atoms: C_19  and  N_20 
REMARK    8  A    between atoms: N_20  and  S_21 
REMARK    9  A    between atoms: S_21  and  C_24 
ROOT
HETATM    1  C   UNL     1     -41.269  56.380 -54.418  1.00  0.00     0.252 C 
HETATM    2  O   UNL     1     -40.710  57.371 -53.957  1.00  0.00    -0.268 OA
HETATM    3  N   UNL     1     -42.220  56.470 -55.411  1.00  0.00    -0.347 N 
HETATM    4  H   UNL     1     -42.611  55.647 -55.846  1.00  0.00     0.163 HD
ENDROOT
BRANCH   3   5
HETATM    5  C   UNL     1     -42.548  57.769 -56.014  1.00  0.00     0.132 C 
BRANCH   5   6
HETATM    6  C   UNL     1     -43.856  58.336 -55.389  1.00  0.00     0.134 C 
BRANCH   6   7
HETATM    7  N   UNL     1     -43.575  59.586 -54.625  1.00  0.00    -0.217 NA
HETATM    8  H   UNL     1     -44.170  60.356 -54.939  1.00  0.00     0.139 HD
BRANCH   7   9
HETATM    9  S   UNL     1     -43.677  59.481 -52.944  1.00  0.00     0.213 S 
HETATM   10  O   UNL     1     -42.342  59.738 -52.456  1.00  0.00    -0.211 OA
HETATM   11  O   UNL     1     -44.797  60.297 -52.535  1.00  0.00    -0.211 OA
BRANCH   9  12
HETATM   12  C   UNL     1     -44.129  57.768 -52.550  1.00  0.00     0.124 A 
HETATM   13  C   UNL     1     -43.509  57.236 -51.285  1.00  0.00     0.023 A 
HETATM   14  C   UNL     1     -44.971  57.592 -51.316  1.00  0.00     0.023 A 
ENDBRANCH   9  12
ENDBRANCH   7   9
ENDBRANCH   6   7
ENDBRANCH   5   6
BRANCH   5  15
HETATM   15  C   UNL     1     -42.491  57.661 -57.537  1.00  0.00    -0.034 A 
HETATM   16  C   UNL     1     -42.074  58.710 -58.371  1.00  0.00     0.009 A 
HETATM   17  C   UNL     1     -42.018  58.549 -59.759  1.00  0.00     0.001 A 
HETATM   18  C   UNL     1     -42.376  57.336 -60.340  1.00  0.00     0.000 A 
HETATM   19  C   UNL     1     -42.779  56.278 -59.534  1.00  0.00     0.001 A 
HETATM   20  C   UNL     1     -42.826  56.435 -58.147  1.00  0.00     0.009 A 
ENDBRANCH   5  15
ENDBRANCH   3   5
BRANCH   1  21
HETATM   21  C   UNL     1     -40.891  55.020 -53.936  1.00  0.00     0.034 A 
HETATM   22  C   UNL     1     -41.071  54.742 -52.571  1.00  0.00     0.054 A 
HETATM   23  C   UNL     1     -40.734  53.493 -52.034  1.00  0.00     0.080 A 
HETATM   24  C   UNL     1     -40.213  52.493 -52.883  1.00  0.00     0.010 A 
HETATM   25  C   UNL     1     -40.049  52.776 -54.251  1.00  0.00     0.016 A 
HETATM   26  C   UNL     1     -40.387  54.027 -54.778  1.00  0.00     0.018 A 
BRANCH  23  27
HETATM   27  O   UNL     1     -40.870  53.174 -50.706  1.00  0.00    -0.355 OA
HETATM   28  C   UNL     1     -40.389  54.101 -49.742  1.00  0.00     0.210 C 
ENDBRANCH  23  27
BRANCH  24  29
HETATM   29  C   UNL     1     -39.859  51.169 -52.386  1.00  0.00     0.013 A 
HETATM   30  C   UNL     1     -39.500  50.728 -51.091  1.00  0.00     0.152 A 
HETATM   31  N   UNL     1     -39.246  49.417 -51.041  1.00  0.00    -0.187 NA
HETATM   32  N   UNL     1     -39.421  49.018 -52.311  1.00  0.00    -0.289 N 
HETATM   33  H   UNL     1     -39.266  48.040 -52.530  1.00  0.00     0.188 HD
HETATM   34  C   UNL     1     -39.796  50.025 -53.153  1.00  0.00     0.123 A 
ENDBRANCH  24  29
ENDBRANCH   1  21
TORSDOF 9
ENDMDL
MODEL 6
REMARK VINA RESULT:      -7.5      3.057      8.273
REMARK  9 active torsions:
REMARK  status: ('A' for Active; 'I' for Inactive)
REMARK    1  A    between atoms: O_2  and  C_3 
REMARK    2  A    between atoms: C_5  and  C_15 
REMARK    3  A    between atoms: C_8  and  C_9 
REMARK       I    between atoms: C_15  and  N_17 
REMARK    4  A    between atoms: N_17  and  C_18 
REMARK    5  A    between atoms: C_18  and  C_19 
REMARK    6  A    between atoms: C_18  and  C_27 
REMARK    7  A    between atoms: C_19  and  N_20 
REMARK    8  A    between atoms: N_20  and  S_21 
REMARK    9  A    between atoms: S_21  and  C_24 
ROOT
HETATM    1  C   UNL     1     -42.048  56.185 -54.492  1.00  0.00     0.252 C 
HETATM    2  O   UNL     1     -41.089  56.493 -53.791  1.00  0.00    -0.268 OA
HETATM    3  N   UNL     1     -42.921  55.180 -54.138  1.00  0.00    -0.347 N 
HETATM    4  H   UNL     1     -43.756  54.991 -54.674  1.00  0.00     0.163 HD
ENDROOT
BRANCH   3   5
HETATM    5  C   UNL     1     -42.775  54.483 -52.853  1.00  0.00     0.132 C 
BRANCH   5   6
HETATM    6  C   UNL     1     -42.751  55.512 -51.684  1.00  0.00     0.134 C 
BRANCH   6   7
HETATM    7  N   UNL     1     -44.133  55.965 -51.355  1.00  0.00    -0.217 NA
HETATM    8  H   UNL     1     -44.352  55.806 -50.369  1.00  0.00     0.139 HD
BRANCH   7   9
HETATM    9  S   UNL     1     -44.514  57.563 -51.736  1.00  0.00     0.213 S 
HETATM   10  O   UNL     1     -44.860  57.558 -53.139  1.00  0.00    -0.211 OA
HETATM   11  O   UNL     1     -45.445  58.029 -50.734  1.00  0.00    -0.211 OA
BRANCH   9  12
HETATM   12  C   UNL     1     -42.998  58.535 -51.507  1.00  0.00     0.124 A 
HETATM   13  C   UNL     1     -42.883  59.732 -52.413  1.00  0.00     0.023 A 
HETATM   14  C   UNL     1     -43.197  59.919 -50.953  1.00  0.00     0.023 A 
ENDBRANCH   9  12
ENDBRANCH   7   9
ENDBRANCH   6   7
ENDBRANCH   5   6
BRANCH   5  15
HETATM   15  C   UNL     1     -41.617  53.490 -52.933  1.00  0.00    -0.034 A 
HETATM   16  C   UNL     1     -40.770  53.202 -51.851  1.00  0.00     0.009 A 
HETATM   17  C   UNL     1     -39.738  52.265 -51.971  1.00  0.00     0.001 A 
HETATM   18  C   UNL     1     -39.535  51.597 -53.175  1.00  0.00     0.000 A 
HETATM   19  C   UNL     1     -40.369  51.856 -54.257  1.00  0.00     0.001 A 
HETATM   20  C   UNL     1     -41.404  52.784 -54.134  1.00  0.00     0.009 A 
ENDBRANCH   5  15
ENDBRANCH   3   5
BRANCH   1  21
HETATM   21  C   UNL     1     -42.325  56.938 -55.749  1.00  0.00     0.034 A 
HETATM   22  C   UNL     1     -42.525  56.191 -56.922  1.00  0.00     0.054 A 
HETATM   23  C   UNL     1     -42.783  56.819 -58.147  1.00  0.00     0.080 A 
HETATM   24  C   UNL     1     -42.851  58.227 -58.202  1.00  0.00     0.010 A 
HETATM   25  C   UNL     1     -42.663  58.967 -57.019  1.00  0.00     0.016 A 
HETATM   26  C   UNL     1     -42.404  58.331 -55.801  1.00  0.00     0.018 A 
BRANCH  23  27
HETATM   27  O   UNL     1     -42.966  56.140 -59.326  1.00  0.00    -0.355 OA
HETATM   28  C   UNL     1     -44.066  55.243 -59.419  1.00  0.00     0.210 C 
ENDBRANCH  23  27
BRANCH  24  29
HETATM   29  C   UNL     1     -43.131  58.937 -59.443  1.00  0.00     0.013 A 
HETATM   30  C   UNL     1     -44.355  59.245 -60.082  1.00  0.00     0.152 A 
HETATM   31  N   UNL     1     -44.190  59.922 -61.222  1.00  0.00    -0.187 NA
HETATM   32  N   UNL     1     -42.857  60.033 -61.328  1.00  0.00    -0.289 N 
HETATM   33  H   UNL     1     -42.480  60.508 -62.140  1.00  0.00     0.188 HD
HETATM   34  C   UNL     1     -42.178  59.468 -60.287  1.00  0.00     0.123 A 
ENDBRANCH  24  29
ENDBRANCH   1  21
TORSDOF 9
ENDMDL
MODEL 7
REMARK VINA RESULT:      -7.4      4.419      7.939
REMARK  9 active torsions:
REMARK  status: ('A' for Active; 'I' for Inactive)
REMARK    1  A    between atoms: O_2  and  C_3 
REMARK    2  A    between atoms: C_5  and  C_15 
REMARK    3  A    between atoms: C_8  and  C_9 
REMARK       I    between atoms: C_15  and  N_17 
REMARK    4  A    between atoms: N_17  and  C_18 
REMARK    5  A    between atoms: C_18  and  C_19 
REMARK    6  A    between atoms: C_18  and  C_27 
REMARK    7  A    between atoms: C_19  and  N_20 
REMARK    8  A    between atoms: N_20  and  S_21 
REMARK    9  A    between atoms: S_21  and  C_24 
ROOT
HETATM    1  C   UNL     1     -42.333  57.575 -53.410  1.00  0.00     0.252 C 
HETATM    2  O   UNL     1     -41.422  58.100 -54.040  1.00  0.00    -0.268 OA
HETATM    3  N   UNL     1     -42.616  56.230 -53.512  1.00  0.00    -0.347 N 
HETATM    4  H   UNL     1     -43.308  55.788 -52.925  1.00  0.00     0.163 HD
ENDROOT
BRANCH   3   5
HETATM    5  C   UNL     1     -41.773  55.352 -54.335  1.00  0.00     0.132 C 
BRANCH   5   6
HETATM    6  C   UNL     1     -42.557  54.883 -55.595  1.00  0.00     0.134 C 
BRANCH   6   7
HETATM    7  N   UNL     1     -42.126  55.653 -56.798  1.00  0.00    -0.217 NA
HETATM    8  H   UNL     1     -42.059  55.050 -57.622  1.00  0.00     0.139 HD
BRANCH   7   9
HETATM    9  S   UNL     1     -43.052  57.005 -57.199  1.00  0.00     0.213 S 
HETATM   10  O   UNL     1     -44.117  57.052 -56.223  1.00  0.00    -0.211 OA
HETATM   11  O   UNL     1     -42.137  58.111 -57.367  1.00  0.00    -0.211 OA
BRANCH   9  12
HETATM   12  C   UNL     1     -43.767  56.687 -58.837  1.00  0.00     0.124 A 
HETATM   13  C   UNL     1     -42.788  56.158 -59.852  1.00  0.00     0.023 A 
HETATM   14  C   UNL     1     -43.817  55.241 -59.248  1.00  0.00     0.023 A 
ENDBRANCH   9  12
ENDBRANCH   7   9
ENDBRANCH   6   7
ENDBRANCH   5   6
BRANCH   5  15
HETATM   15  C   UNL     1     -41.145  54.269 -53.459  1.00  0.00    -0.034 A 
HETATM   16  C   UNL     1     -40.620  53.072 -53.969  1.00  0.00     0.009 A 
HETATM   17  C   UNL     1     -40.034  52.122 -53.124  1.00  0.00     0.001 A 
HETATM   18  C   UNL     1     -39.962  52.354 -51.754  1.00  0.00     0.000 A 
HETATM   19  C   UNL     1     -40.463  53.539 -51.226  1.00  0.00     0.001 A 
HETATM   20  C   UNL     1     -41.040  54.490 -52.071  1.00  0.00     0.009 A 
ENDBRANCH   5  15
ENDBRANCH   3   5
BRANCH   1  21
HETATM   21  C   UNL     1     -43.148  58.387 -52.460  1.00  0.00     0.034 A 
HETATM   22  C   UNL     1     -42.692  59.681 -52.157  1.00  0.00     0.054 A 
HETATM   23  C   UNL     1     -43.392  60.508 -51.269  1.00  0.00     0.080 A 
HETATM   24  C   UNL     1     -44.581  60.035 -50.676  1.00  0.00     0.010 A 
HETATM   25  C   UNL     1     -45.038  58.743 -50.996  1.00  0.00     0.016 A 
HETATM   26  C   UNL     1     -44.332  57.924 -51.882  1.00  0.00     0.018 A 
BRANCH  23  27
HETATM   27  O   UNL     1     -42.982  61.771 -50.922  1.00  0.00    -0.355 OA
HETATM   28  C   UNL     1     -43.288  62.841 -51.806  1.00  0.00     0.210 C 
ENDBRANCH  23  27
BRANCH  24  29
HETATM   29  C   UNL     1     -45.362  60.853 -49.756  1.00  0.00     0.013 A 
HETATM   30  C   UNL     1     -46.358  61.828 -49.997  1.00  0.00     0.152 A 
HETATM   31  N   UNL     1     -46.845  62.362 -48.873  1.00  0.00    -0.187 NA
HETATM   32  N   UNL     1     -46.146  61.745 -47.907  1.00  0.00    -0.289 N 
HETATM   33  H   UNL     1     -46.332  62.001 -46.944  1.00  0.00     0.188 HD
HETATM   34  C   UNL     1     -45.252  60.828 -48.381  1.00  0.00     0.123 A 
ENDBRANCH  24  29
ENDBRANCH   1  21
TORSDOF 9
ENDMDL
MODEL 8
REMARK VINA RESULT:      -7.3      7.948     10.816
REMARK  9 active torsions:
REMARK  status: ('A' for Active; 'I' for Inactive)
REMARK    1  A    between atoms: O_2  and  C_3 
REMARK    2  A    between atoms: C_5  and  C_15 
REMARK    3  A    between atoms: C_8  and  C_9 
REMARK       I    between atoms: C_15  and  N_17 
REMARK    4  A    between atoms: N_17  and  C_18 
REMARK    5  A    between atoms: C_18  and  C_19 
REMARK    6  A    between atoms: C_18  and  C_27 
REMARK    7  A    between atoms: C_19  and  N_20 
REMARK    8  A    between atoms: N_20  and  S_21 
REMARK    9  A    between atoms: S_21  and  C_24 
ROOT
HETATM    1  C   UNL     1     -44.051  61.319 -50.485  1.00  0.00     0.252 C 
HETATM    2  O   UNL     1     -44.038  61.950 -51.537  1.00  0.00    -0.268 OA
HETATM    3  N   UNL     1     -43.604  60.018 -50.404  1.00  0.00    -0.347 N 
HETATM    4  H   UNL     1     -43.534  59.536 -49.520  1.00  0.00     0.163 HD
ENDROOT
BRANCH   3   5
HETATM    5  C   UNL     1     -43.017  59.357 -51.578  1.00  0.00     0.132 C 
BRANCH   5   6
HETATM    6  C   UNL     1     -43.726  57.995 -51.837  1.00  0.00     0.134 C 
BRANCH   6   7
HETATM    7  N   UNL     1     -43.677  57.138 -50.617  1.00  0.00    -0.217 NA
HETATM    8  H   UNL     1     -44.612  56.831 -50.340  1.00  0.00     0.139 HD
BRANCH   7   9
HETATM    9  S   UNL     1     -42.668  55.787 -50.684  1.00  0.00     0.213 S 
HETATM   10  O   UNL     1     -41.486  56.146 -49.934  1.00  0.00    -0.211 OA
HETATM   11  O   UNL     1     -43.468  54.640 -50.323  1.00  0.00    -0.211 OA
BRANCH   9  12
HETATM   12  C   UNL     1     -42.213  55.557 -52.426  1.00  0.00     0.124 A 
HETATM   13  C   UNL     1     -41.243  54.431 -52.673  1.00  0.00     0.023 A 
HETATM   14  C   UNL     1     -42.691  54.276 -53.054  1.00  0.00     0.023 A 
ENDBRANCH   9  12
ENDBRANCH   7   9
ENDBRANCH   6   7
ENDBRANCH   5   6
BRANCH   5  15
HETATM   15  C   UNL     1     -41.494  59.341 -51.455  1.00  0.00    -0.034 A 
HETATM   16  C   UNL     1     -40.812  59.660 -50.271  1.00  0.00     0.009 A 
HETATM   17  C   UNL     1     -39.415  59.605 -50.206  1.00  0.00     0.001 A 
HETATM   18  C   UNL     1     -38.676  59.228 -51.322  1.00  0.00     0.000 A 
HETATM   19  C   UNL     1     -39.330  58.894 -52.503  1.00  0.00     0.001 A 
HETATM   20  C   UNL     1     -40.724  58.940 -52.565  1.00  0.00     0.009 A 
ENDBRANCH   5  15
ENDBRANCH   3   5
BRANCH   1  21
HETATM   21  C   UNL     1     -44.517  61.974 -49.228  1.00  0.00     0.034 A 
HETATM   22  C   UNL     1     -44.858  61.140 -48.150  1.00  0.00     0.054 A 
HETATM   23  C   UNL     1     -45.312  61.672 -46.936  1.00  0.00     0.080 A 
HETATM   24  C   UNL     1     -45.422  63.071 -46.793  1.00  0.00     0.010 A 
HETATM   25  C   UNL     1     -45.065  63.899 -47.873  1.00  0.00     0.016 A 
HETATM   26  C   UNL     1     -44.614  63.359 -49.081  1.00  0.00     0.018 A 
BRANCH  23  27
HETATM   27  O   UNL     1     -45.677  60.905 -45.859  1.00  0.00    -0.355 OA
HETATM   28  C   UNL     1     -46.428  59.722 -46.102  1.00  0.00     0.210 C 
ENDBRANCH  23  27
BRANCH  24  29
HETATM   29  C   UNL     1     -45.874  63.685 -45.550  1.00  0.00     0.013 A 
HETATM   30  C   UNL     1     -47.164  64.078 -45.124  1.00  0.00     0.152 A 
HETATM   31  N   UNL     1     -47.166  64.610 -43.898  1.00  0.00    -0.187 NA
HETATM   32  N   UNL     1     -45.872  64.578 -43.543  1.00  0.00    -0.289 N 
HETATM   33  H   UNL     1     -45.616  64.950 -42.635  1.00  0.00     0.188 HD
HETATM   34  C   UNL     1     -45.059  64.027 -44.491  1.00  0.00     0.123 A 
ENDBRANCH  24  29
ENDBRANCH   1  21
TORSDOF 9
ENDMDL
MODEL 9
REMARK VINA RESULT:      -7.3      3.959      8.360
REMARK  9 active torsions:
REMARK  status: ('A' for Active; 'I' for Inactive)
REMARK    1  A    between atoms: O_2  and  C_3 
REMARK    2  A    between atoms: C_5  and  C_15 
REMARK    3  A    between atoms: C_8  and  C_9 
REMARK       I    between atoms: C_15  and  N_17 
REMARK    4  A    between atoms: N_17  and  C_18 
REMARK    5  A    between atoms: C_18  and  C_19 
REMARK    6  A    between atoms: C_18  and  C_27 
REMARK    7  A    between atoms: C_19  and  N_20 
REMARK    8  A    between atoms: N_20  and  S_21 
REMARK    9  A    between atoms: S_21  and  C_24 
ROOT
HETATM    1  C   UNL     1     -41.686  58.857 -53.937  1.00  0.00     0.252 C 
HETATM    2  O   UNL     1     -40.683  59.564 -53.909  1.00  0.00    -0.268 OA
HETATM    3  N   UNL     1     -42.386  58.532 -52.796  1.00  0.00    -0.347 N 
HETATM    4  H   UNL     1     -43.258  58.025 -52.836  1.00  0.00     0.163 HD
ENDROOT
BRANCH   3   5
HETATM    5  C   UNL     1     -41.992  59.091 -51.496  1.00  0.00     0.132 C 
BRANCH   5   6
HETATM    6  C   UNL     1     -41.238  58.018 -50.656  1.00  0.00     0.134 C 
BRANCH   6   7
HETATM    7  N   UNL     1     -42.167  56.926 -50.243  1.00  0.00    -0.217 NA
HETATM    8  H   UNL     1     -43.134  57.256 -50.202  1.00  0.00     0.139 HD
BRANCH   7   9
HETATM    9  S   UNL     1     -42.124  55.512 -51.161  1.00  0.00     0.213 S 
HETATM   10  O   UNL     1     -43.503  55.193 -51.452  1.00  0.00    -0.211 OA
HETATM   11  O   UNL     1     -41.161  55.720 -52.218  1.00  0.00    -0.211 OA
BRANCH   9  12
HETATM   12  C   UNL     1     -41.432  54.214 -50.096  1.00  0.00     0.124 A 
HETATM   13  C   UNL     1     -39.953  54.341 -49.840  1.00  0.00     0.023 A 
HETATM   14  C   UNL     1     -40.938  54.678 -48.753  1.00  0.00     0.023 A 
ENDBRANCH   9  12
ENDBRANCH   7   9
ENDBRANCH   6   7
ENDBRANCH   5   6
BRANCH   5  15
HETATM   15  C   UNL     1     -43.193  59.773 -50.841  1.00  0.00    -0.034 A 
HETATM   16  C   UNL     1     -44.512  59.315 -50.981  1.00  0.00     0.009 A 
HETATM   17  C   UNL     1     -45.573  59.963 -50.340  1.00  0.00     0.001 A 
HETATM   18  C   UNL     1     -45.334  61.081 -49.546  1.00  0.00     0.000 A 
HETATM   19  C   UNL     1     -44.034  61.546 -49.382  1.00  0.00     0.001 A 
HETATM   20  C   UNL     1     -42.974  60.893 -50.014  1.00  0.00     0.009 A 
ENDBRANCH   5  15
ENDBRANCH   3   5
BRANCH   1  21
HETATM   21  C   UNL     1     -42.211  58.360 -55.242  1.00  0.00     0.034 A 
HETATM   22  C   UNL     1     -42.467  56.983 -55.355  1.00  0.00     0.054 A 
HETATM   23  C   UNL     1     -42.954  56.431 -56.547  1.00  0.00     0.080 A 
HETATM   24  C   UNL     1     -43.199  57.275 -57.650  1.00  0.00     0.010 A 
HETATM   25  C   UNL     1     -42.953  58.655 -57.523  1.00  0.00     0.016 A 
HETATM   26  C   UNL     1     -42.466  59.197 -56.330  1.00  0.00     0.018 A 
BRANCH  23  27
HETATM   27  O   UNL     1     -43.202  55.092 -56.720  1.00  0.00    -0.355 OA
HETATM   28  C   UNL     1     -43.088  54.238 -55.589  1.00  0.00     0.210 C 
ENDBRANCH  23  27
BRANCH  24  29
HETATM   29  C   UNL     1     -43.720  56.763 -58.912  1.00  0.00     0.013 A 
HETATM   30  C   UNL     1     -43.126  55.939 -59.896  1.00  0.00     0.152 A 
HETATM   31  N   UNL     1     -43.943  55.685 -60.923  1.00  0.00    -0.187 NA
HETATM   32  N   UNL     1     -45.057  56.364 -60.609  1.00  0.00    -0.289 N 
HETATM   33  H   UNL     1     -45.834  56.335 -61.260  1.00  0.00     0.188 HD
HETATM   34  C   UNL     1     -44.979  57.018 -59.413  1.00  0.00     0.123 A 
ENDBRANCH  24  29
ENDBRANCH   1  21
TORSDOF 9
ENDMDL
MODEL 10
REMARK VINA RESULT:      -7.2      4.685      7.828
REMARK  9 active torsions:
REMARK  status: ('A' for Active; 'I' for Inactive)
REMARK    1  A    between atoms: O_2  and  C_3 
REMARK    2  A    between atoms: C_5  and  C_15 
REMARK    3  A    between atoms: C_8  and  C_9 
REMARK       I    between atoms: C_15  and  N_17 
REMARK    4  A    between atoms: N_17  and  C_18 
REMARK    5  A    between atoms: C_18  and  C_19 
REMARK    6  A    between atoms: C_18  and  C_27 
REMARK    7  A    between atoms: C_19  and  N_20 
REMARK    8  A    between atoms: N_20  and  S_21 
REMARK    9  A    between atoms: S_21  and  C_24 
ROOT
HETATM    1  C   UNL     1     -41.983  58.542 -53.618  1.00  0.00     0.252 C 
HETATM    2  O   UNL     1     -41.372  59.114 -54.515  1.00  0.00    -0.268 OA
HETATM    3  N   UNL     1     -42.165  57.177 -53.608  1.00  0.00    -0.347 N 
HETATM    4  H   UNL     1     -42.591  56.704 -52.825  1.00  0.00     0.163 HD
ENDROOT
BRANCH   3   5
HETATM    5  C   UNL     1     -41.558  56.337 -54.650  1.00  0.00     0.132 C 
BRANCH   5   6
HETATM    6  C   UNL     1     -42.502  56.247 -55.885  1.00  0.00     0.134 C 
BRANCH   6   7
HETATM    7  N   UNL     1     -42.033  57.153 -56.973  1.00  0.00    -0.217 NA
HETATM    8  H   UNL     1     -41.190  56.790 -57.422  1.00  0.00     0.139 HD
BRANCH   7   9
HETATM    9  S   UNL     1     -43.156  57.536 -58.172  1.00  0.00     0.213 S 
HETATM   10  O   UNL     1     -44.162  58.343 -57.520  1.00  0.00    -0.211 OA
HETATM   11  O   UNL     1     -42.413  58.033 -59.307  1.00  0.00    -0.211 OA
BRANCH   9  12
HETATM   12  C   UNL     1     -43.909  55.974 -58.706  1.00  0.00     0.124 A 
HETATM   13  C   UNL     1     -45.046  56.132 -59.681  1.00  0.00     0.023 A 
HETATM   14  C   UNL     1     -43.711  55.625 -60.156  1.00  0.00     0.023 A 
ENDBRANCH   9  12
ENDBRANCH   7   9
ENDBRANCH   6   7
ENDBRANCH   5   6
BRANCH   5  15
HETATM   15  C   UNL     1     -41.079  55.021 -54.040  1.00  0.00    -0.034 A 
HETATM   16  C   UNL     1     -41.087  54.761 -52.661  1.00  0.00     0.009 A 
HETATM   17  C   UNL     1     -40.660  53.528 -52.156  1.00  0.00     0.001 A 
HETATM   18  C   UNL     1     -40.217  52.533 -53.021  1.00  0.00     0.000 A 
HETATM   19  C   UNL     1     -40.212  52.761 -54.392  1.00  0.00     0.001 A 
HETATM   20  C   UNL     1     -40.647  53.989 -54.897  1.00  0.00     0.009 A 
ENDBRANCH   5  15
ENDBRANCH   3   5
BRANCH   1  21
HETATM   21  C   UNL     1     -42.517  59.324 -52.465  1.00  0.00     0.034 A 
HETATM   22  C   UNL     1     -43.913  59.443 -52.352  1.00  0.00     0.054 A 
HETATM   23  C   UNL     1     -44.498  60.165 -51.305  1.00  0.00     0.080 A 
HETATM   24  C   UNL     1     -43.670  60.777 -50.340  1.00  0.00     0.010 A 
HETATM   25  C   UNL     1     -42.274  60.641 -50.453  1.00  0.00     0.016 A 
HETATM   26  C   UNL     1     -41.699  59.919 -51.503  1.00  0.00     0.018 A 
BRANCH  23  27
HETATM   27  O   UNL     1     -45.852  60.330 -51.158  1.00  0.00    -0.355 OA
HETATM   28  C   UNL     1     -46.560  61.007 -52.188  1.00  0.00     0.210 C 
ENDBRANCH  23  27
BRANCH  24  29
HETATM   29  C   UNL     1     -44.220  61.528 -49.219  1.00  0.00     0.013 A 
HETATM   30  C   UNL     1     -44.692  61.100 -47.956  1.00  0.00     0.152 A 
HETATM   31  N   UNL     1     -45.121  62.110 -47.193  1.00  0.00    -0.187 NA
HETATM   32  N   UNL     1     -44.942  63.188 -47.973  1.00  0.00    -0.289 N 
HETATM   33  H   UNL     1     -45.215  64.093 -47.608  1.00  0.00     0.188 HD
HETATM   34  C   UNL     1     -44.399  62.896 -49.191  1.00  0.00     0.123 A 
ENDBRANCH  24  29
ENDBRANCH   1  21
TORSDOF 9
ENDMDL
