MODEL 1
REMARK VINA RESULT:      -8.3      0.000      0.000
REMARK  6 active torsions:
REMARK  status: ('A' for Active; 'I' for Inactive)
REMARK    1  A    between atoms: C_3  and  C_4 
REMARK    2  A    between atoms: C_4  and  N_5 
REMARK    3  A    between atoms: C_4  and  C_9 
REMARK       I    between atoms: N_5  and  C_6 
REMARK       I    between atoms: C_6  and  N_7 
REMARK    4  A    between atoms: C_9  and  C_10 
REMARK       I    between atoms: C_10  and  N_11 
REMARK    5  A    between atoms: N_11  and  C_12 
REMARK    6  A    between atoms: C_14  and  C_15 
ROOT
HETATM    1  C   UNL     1     -43.442  54.519 -53.994  1.00  0.00     0.133 C 
ENDROOT
BRANCH   1   2
HETATM    2  C   UNL     1     -42.167  54.755 -53.182  1.00  0.00     0.128 C 
BRANCH   2   3
HETATM    3  C   UNL     1     -41.194  53.575 -53.111  1.00  0.00    -0.029 A 
HETATM    4  C   UNL     1     -40.486  53.165 -51.958  1.00  0.00    -0.054 A 
HETATM    5  C   UNL     1     -40.546  53.878 -50.634  1.00  0.00     0.049 C 
HETATM    6  C   UNL     1     -39.642  52.037 -52.032  1.00  0.00     0.007 A 
HETATM    7  C   UNL     1     -39.515  51.300 -53.208  1.00  0.00     0.001 A 
HETATM    8  C   UNL     1     -40.219  51.686 -54.338  1.00  0.00     0.001 A 
HETATM    9  C   UNL     1     -41.044  52.808 -54.291  1.00  0.00     0.010 A 
ENDBRANCH   2   3
BRANCH   2  10
HETATM   10  N   UNL     1     -41.430  55.988 -53.468  1.00  0.00    -0.339 N 
HETATM   11  C   UNL     1     -41.266  57.048 -52.636  1.00  0.00     0.292 C 
HETATM   12  N   UNL     1     -40.547  58.043 -53.214  1.00  0.00    -0.254 NA
HETATM   13  O   UNL     1     -41.686  57.155 -51.495  1.00  0.00    -0.254 OA
HETATM   14  H   UNL     1     -39.783  57.762 -53.810  1.00  0.00     0.128 HD
HETATM   15  H   UNL     1     -40.319  58.790 -52.568  1.00  0.00     0.128 HD
HETATM   16  H   UNL     1     -41.282  56.186 -54.446  1.00  0.00     0.164 HD
ENDBRANCH   2  10
ENDBRANCH   1   2
BRANCH   1  17
HETATM   17  C   UNL     1     -43.624  55.595 -55.045  1.00  0.00     0.224 C 
HETATM   18  N   UNL     1     -43.235  55.196 -56.310  1.00  0.00    -0.327 N 
HETATM   19  H   UNL     1     -43.096  54.202 -56.450  1.00  0.00     0.169 HD
HETATM   20  O   UNL     1     -44.081  56.693 -54.736  1.00  0.00    -0.273 OA
BRANCH  18  21
HETATM   21  C   UNL     1     -43.058  56.013 -57.445  1.00  0.00     0.035 A 
HETATM   22  C   UNL     1     -42.659  57.353 -57.382  1.00  0.00     0.042 A 
HETATM   23  C   UNL     1     -42.443  58.102 -58.552  1.00  0.00    -0.021 A 
HETATM   24  C   UNL     1     -42.640  57.488 -59.794  1.00  0.00     0.012 A 
HETATM   25  C   UNL     1     -43.041  56.153 -59.867  1.00  0.00     0.003 A 
HETATM   26  C   UNL     1     -43.245  55.419 -58.698  1.00  0.00     0.029 A 
BRANCH  23  27
HETATM   27  C   UNL     1     -41.998  59.485 -58.485  1.00  0.00     0.010 A 
HETATM   28  C   UNL     1     -41.735  60.426 -59.510  1.00  0.00     0.152 A 
HETATM   29  N   UNL     1     -41.344  61.613 -59.039  1.00  0.00    -0.187 NA
HETATM   30  N   UNL     1     -41.348  61.436 -57.708  1.00  0.00    -0.289 N 
HETATM   31  H   UNL     1     -41.075  62.215 -57.118  1.00  0.00     0.188 HD
HETATM   32  C   UNL     1     -41.736  60.186 -57.326  1.00  0.00     0.123 A 
ENDBRANCH  23  27
ENDBRANCH  18  21
ENDBRANCH   1  17
TORSDOF 6
ENDMDL
MODEL 2
REMARK VINA RESULT:      -8.2      3.237      5.859
REMARK  6 active torsions:
REMARK  status: ('A' for Active; 'I' for Inactive)
REMARK    1  A    between atoms: C_3  and  C_4 
REMARK    2  A    between atoms: C_4  and  N_5 
REMARK    3  A    between atoms: C_4  and  C_9 
REMARK       I    between atoms: N_5  and  C_6 
REMARK       I    between atoms: C_6  and  N_7 
REMARK    4  A    between atoms: C_9  and  C_10 
REMARK       I    between atoms: C_10  and  N_11 
REMARK    5  A    between atoms: N_11  and  C_12 
REMARK    6  A    between atoms: C_14  and  C_15 
ROOT
HETATM    1  C   UNL     1     -43.206  54.418 -52.745  1.00  0.00     0.133 C 
ENDROOT
BRANCH   1   2
HETATM    2  C   UNL     1     -41.950  54.338 -53.616  1.00  0.00     0.128 C 
BRANCH   2   3
HETATM    3  C   UNL     1     -41.053  53.119 -53.382  1.00  0.00    -0.029 A 
HETATM    4  C   UNL     1     -40.284  52.880 -52.220  1.00  0.00    -0.054 A 
HETATM    5  C   UNL     1     -40.191  53.833 -51.059  1.00  0.00     0.049 C 
HETATM    6  C   UNL     1     -39.523  51.696 -52.129  1.00  0.00     0.007 A 
HETATM    7  C   UNL     1     -39.538  50.742 -53.145  1.00  0.00     0.001 A 
HETATM    8  C   UNL     1     -40.303  50.961 -54.280  1.00  0.00     0.001 A 
HETATM    9  C   UNL     1     -41.048  52.134 -54.397  1.00  0.00     0.010 A 
ENDBRANCH   2   3
BRANCH   2  10
HETATM   10  N   UNL     1     -42.139  54.546 -55.053  1.00  0.00    -0.339 N 
HETATM   11  C   UNL     1     -42.109  55.731 -55.714  1.00  0.00     0.292 C 
HETATM   12  N   UNL     1     -42.343  55.580 -57.042  1.00  0.00    -0.254 NA
HETATM   13  O   UNL     1     -41.901  56.833 -55.232  1.00  0.00    -0.254 OA
HETATM   14  H   UNL     1     -41.949  54.762 -57.482  1.00  0.00     0.128 HD
HETATM   15  H   UNL     1     -42.211  56.438 -57.564  1.00  0.00     0.128 HD
HETATM   16  H   UNL     1     -42.609  53.797 -55.540  1.00  0.00     0.164 HD
ENDBRANCH   2  10
ENDBRANCH   1   2
BRANCH   1  17
HETATM   17  C   UNL     1     -43.143  55.609 -51.810  1.00  0.00     0.224 C 
HETATM   18  N   UNL     1     -42.478  56.694 -52.350  1.00  0.00    -0.327 N 
HETATM   19  H   UNL     1     -42.313  56.674 -53.349  1.00  0.00     0.169 HD
HETATM   20  O   UNL     1     -43.656  55.550 -50.696  1.00  0.00    -0.273 OA
BRANCH  18  21
HETATM   21  C   UNL     1     -42.047  57.853 -51.673  1.00  0.00     0.035 A 
HETATM   22  C   UNL     1     -42.887  58.930 -51.366  1.00  0.00     0.042 A 
HETATM   23  C   UNL     1     -42.414  60.035 -50.638  1.00  0.00    -0.021 A 
HETATM   24  C   UNL     1     -41.077  60.051 -50.224  1.00  0.00     0.012 A 
HETATM   25  C   UNL     1     -40.231  58.983 -50.529  1.00  0.00     0.003 A 
HETATM   26  C   UNL     1     -40.716  57.889 -51.245  1.00  0.00     0.029 A 
BRANCH  23  27
HETATM   27  C   UNL     1     -43.296  61.139 -50.292  1.00  0.00     0.010 A 
HETATM   28  C   UNL     1     -44.408  61.200 -49.417  1.00  0.00     0.152 A 
HETATM   29  N   UNL     1     -44.962  62.414 -49.364  1.00  0.00    -0.187 NA
HETATM   30  N   UNL     1     -44.211  63.136 -50.210  1.00  0.00    -0.289 N 
HETATM   31  H   UNL     1     -44.444  64.114 -50.346  1.00  0.00     0.188 HD
HETATM   32  C   UNL     1     -43.200  62.423 -50.785  1.00  0.00     0.123 A 
ENDBRANCH  23  27
ENDBRANCH  18  21
ENDBRANCH   1  17
TORSDOF 6
ENDMDL
MODEL 3
REMARK VINA RESULT:      -8.1      2.297      7.952
REMARK  6 active torsions:
REMARK  status: ('A' for Active; 'I' for Inactive)
REMARK    1  A    between atoms: C_3  and  C_4 
REMARK    2  A    between atoms: C_4  and  N_5 
REMARK    3  A    between atoms: C_4  and  C_9 
REMARK       I    between atoms: N_5  and  C_6 
REMARK       I    between atoms: C_6  and  N_7 
REMARK    4  A    between atoms: C_9  and  C_10 
REMARK       I    between atoms: C_10  and  N_11 
REMARK    5  A    between atoms: N_11  and  C_12 
REMARK    6  A    between atoms: C_14  and  C_15 
ROOT
HETATM    1  C   UNL     1     -42.548  55.969 -57.233  1.00  0.00     0.133 C 
ENDROOT
BRANCH   1   2
HETATM    2  C   UNL     1     -43.253  57.323 -57.123  1.00  0.00     0.128 C 
BRANCH   2   3
HETATM    3  C   UNL     1     -42.759  58.411 -58.081  1.00  0.00    -0.029 A 
HETATM    4  C   UNL     1     -42.204  59.653 -57.694  1.00  0.00    -0.054 A 
HETATM    5  C   UNL     1     -42.075  60.110 -56.267  1.00  0.00     0.049 C 
HETATM    6  C   UNL     1     -41.763  60.550 -58.688  1.00  0.00     0.007 A 
HETATM    7  C   UNL     1     -41.833  60.227 -60.043  1.00  0.00     0.001 A 
HETATM    8  C   UNL     1     -42.360  59.005 -60.429  1.00  0.00     0.001 A 
HETATM    9  C   UNL     1     -42.818  58.112 -59.463  1.00  0.00     0.010 A 
ENDBRANCH   2   3
BRANCH   2  10
HETATM   10  N   UNL     1     -44.717  57.298 -57.116  1.00  0.00    -0.339 N 
HETATM   11  C   UNL     1     -45.539  58.056 -56.346  1.00  0.00     0.292 C 
HETATM   12  N   UNL     1     -46.848  57.772 -56.566  1.00  0.00    -0.254 NA
HETATM   13  O   UNL     1     -45.206  58.907 -55.537  1.00  0.00    -0.254 OA
HETATM   14  H   UNL     1     -47.114  57.570 -57.518  1.00  0.00     0.128 HD
HETATM   15  H   UNL     1     -47.474  58.407 -56.085  1.00  0.00     0.128 HD
HETATM   16  H   UNL     1     -45.137  56.461 -57.494  1.00  0.00     0.164 HD
ENDBRANCH   2  10
ENDBRANCH   1   2
BRANCH   1  17
HETATM   17  C   UNL     1     -42.481  55.281 -55.886  1.00  0.00     0.224 C 
HETATM   18  N   UNL     1     -41.190  55.023 -55.467  1.00  0.00    -0.327 N 
HETATM   19  H   UNL     1     -40.447  55.502 -55.961  1.00  0.00     0.169 HD
HETATM   20  O   UNL     1     -43.512  55.011 -55.275  1.00  0.00    -0.273 OA
BRANCH  18  21
HETATM   21  C   UNL     1     -40.790  54.202 -54.392  1.00  0.00     0.035 A 
HETATM   22  C   UNL     1     -40.927  54.564 -53.047  1.00  0.00     0.042 A 
HETATM   23  C   UNL     1     -40.563  53.680 -52.016  1.00  0.00    -0.021 A 
HETATM   24  C   UNL     1     -40.050  52.422 -52.354  1.00  0.00     0.012 A 
HETATM   25  C   UNL     1     -39.906  52.054 -53.692  1.00  0.00     0.003 A 
HETATM   26  C   UNL     1     -40.278  52.938 -54.704  1.00  0.00     0.029 A 
BRANCH  23  27
HETATM   27  C   UNL     1     -40.736  54.045 -50.619  1.00  0.00     0.010 A 
HETATM   28  C   UNL     1     -40.533  53.299 -49.432  1.00  0.00     0.152 A 
HETATM   29  N   UNL     1     -40.800  53.999 -48.326  1.00  0.00    -0.187 NA
HETATM   30  N   UNL     1     -41.182  55.195 -48.799  1.00  0.00    -0.289 N 
HETATM   31  H   UNL     1     -41.446  55.914 -48.134  1.00  0.00     0.188 HD
HETATM   32  C   UNL     1     -41.156  55.276 -50.160  1.00  0.00     0.123 A 
ENDBRANCH  23  27
ENDBRANCH  18  21
ENDBRANCH   1  17
TORSDOF 6
ENDMDL
MODEL 4
REMARK VINA RESULT:      -8.0      2.218      3.800
REMARK  6 active torsions:
REMARK  status: ('A' for Active; 'I' for Inactive)
REMARK    1  A    between atoms: C_3  and  C_4 
REMARK    2  A    between atoms: C_4  and  N_5 
REMARK    3  A    between atoms: C_4  and  C_9 
REMARK       I    between atoms: N_5  and  C_6 
REMARK       I    between atoms: C_6  and  N_7 
REMARK    4  A    between atoms: C_9  and  C_10 
REMARK       I    between atoms: C_10  and  N_11 
REMARK    5  A    between atoms: N_11  and  C_12 
REMARK    6  A    between atoms: C_14  and  C_15 
ROOT
HETATM    1  C   UNL     1     -40.920  57.354 -52.202  1.00  0.00     0.133 C 
ENDROOT
BRANCH   1   2
HETATM    2  C   UNL     1     -41.870  56.160 -52.332  1.00  0.00     0.128 C 
BRANCH   2   3
HETATM    3  C   UNL     1     -41.207  54.780 -52.347  1.00  0.00    -0.029 A 
HETATM    4  C   UNL     1     -40.875  54.044 -53.508  1.00  0.00    -0.054 A 
HETATM    5  C   UNL     1     -41.184  54.494 -54.909  1.00  0.00     0.049 C 
HETATM    6  C   UNL     1     -40.239  52.793 -53.371  1.00  0.00     0.007 A 
HETATM    7  C   UNL     1     -39.902  52.280 -52.119  1.00  0.00     0.001 A 
HETATM    8  C   UNL     1     -40.210  53.004 -50.977  1.00  0.00     0.001 A 
HETATM    9  C   UNL     1     -40.855  54.234 -51.090  1.00  0.00     0.010 A 
ENDBRANCH   2   3
BRANCH   2  10
HETATM   10  N   UNL     1     -43.025  56.146 -51.433  1.00  0.00    -0.339 N 
HETATM   11  C   UNL     1     -44.160  56.880 -51.556  1.00  0.00     0.292 C 
HETATM   12  N   UNL     1     -45.030  56.648 -50.541  1.00  0.00    -0.254 NA
HETATM   13  O   UNL     1     -44.428  57.670 -52.447  1.00  0.00    -0.254 OA
HETATM   14  H   UNL     1     -45.093  55.698 -50.206  1.00  0.00     0.128 HD
HETATM   15  H   UNL     1     -45.925  57.101 -50.679  1.00  0.00     0.128 HD
HETATM   16  H   UNL     1     -42.848  55.785 -50.507  1.00  0.00     0.164 HD
ENDBRANCH   2  10
ENDBRANCH   1   2
BRANCH   1  17
HETATM   17  C   UNL     1     -41.019  58.261 -53.411  1.00  0.00     0.224 C 
HETATM   18  N   UNL     1     -42.050  57.920 -54.267  1.00  0.00    -0.327 N 
HETATM   19  H   UNL     1     -42.748  57.280 -53.907  1.00  0.00     0.169 HD
HETATM   20  O   UNL     1     -40.232  59.192 -53.555  1.00  0.00    -0.273 OA
BRANCH  18  21
HETATM   21  C   UNL     1     -42.269  58.404 -55.574  1.00  0.00     0.035 A 
HETATM   22  C   UNL     1     -42.677  57.597 -56.641  1.00  0.00     0.042 A 
HETATM   23  C   UNL     1     -42.935  58.146 -57.909  1.00  0.00    -0.021 A 
HETATM   24  C   UNL     1     -42.771  59.524 -58.096  1.00  0.00     0.012 A 
HETATM   25  C   UNL     1     -42.361  60.336 -57.037  1.00  0.00     0.003 A 
HETATM   26  C   UNL     1     -42.116  59.779 -55.783  1.00  0.00     0.029 A 
BRANCH  23  27
HETATM   27  C   UNL     1     -43.389  57.311 -59.010  1.00  0.00     0.010 A 
HETATM   28  C   UNL     1     -43.205  55.931 -59.266  1.00  0.00     0.152 A 
HETATM   29  N   UNL     1     -43.791  55.528 -60.397  1.00  0.00    -0.187 NA
HETATM   30  N   UNL     1     -44.349  56.652 -60.875  1.00  0.00    -0.289 N 
HETATM   31  H   UNL     1     -44.859  56.601 -61.750  1.00  0.00     0.188 HD
HETATM   32  C   UNL     1     -44.143  57.742 -60.082  1.00  0.00     0.123 A 
ENDBRANCH  23  27
ENDBRANCH  18  21
ENDBRANCH   1  17
TORSDOF 6
ENDMDL
MODEL 5
REMARK VINA RESULT:      -7.8      3.956      5.727
REMARK  6 active torsions:
REMARK  status: ('A' for Active; 'I' for Inactive)
REMARK    1  A    between atoms: C_3  and  C_4 
REMARK    2  A    between atoms: C_4  and  N_5 
REMARK    3  A    between atoms: C_4  and  C_9 
REMARK       I    between atoms: N_5  and  C_6 
REMARK       I    between atoms: C_6  and  N_7 
REMARK    4  A    between atoms: C_9  and  C_10 
REMARK       I    between atoms: C_10  and  N_11 
REMARK    5  A    between atoms: N_11  and  C_12 
REMARK    6  A    between atoms: C_14  and  C_15 
ROOT
HETATM    1  C   UNL     1     -42.936  54.514 -52.443  1.00  0.00     0.133 C 
ENDROOT
BRANCH   1   2
HETATM    2  C   UNL     1     -41.657  54.441 -53.281  1.00  0.00     0.128 C 
BRANCH   2   3
HETATM    3  C   UNL     1     -40.859  53.139 -53.165  1.00  0.00    -0.029 A 
HETATM    4  C   UNL     1     -40.142  52.717 -52.022  1.00  0.00    -0.054 A 
HETATM    5  C   UNL     1     -40.014  53.527 -50.761  1.00  0.00     0.049 C 
HETATM    6  C   UNL     1     -39.473  51.476 -52.048  1.00  0.00     0.007 A 
HETATM    7  C   UNL     1     -39.528  50.643 -53.164  1.00  0.00     0.001 A 
HETATM    8  C   UNL     1     -40.242  51.042 -54.283  1.00  0.00     0.001 A 
HETATM    9  C   UNL     1     -40.895  52.273 -54.284  1.00  0.00     0.010 A 
ENDBRANCH   2   3
BRANCH   2  10
HETATM   10  N   UNL     1     -41.778  54.825 -54.689  1.00  0.00    -0.339 N 
HETATM   11  C   UNL     1     -41.807  56.087 -55.187  1.00  0.00     0.292 C 
HETATM   12  N   UNL     1     -41.949  56.100 -56.537  1.00  0.00    -0.254 NA
HETATM   13  O   UNL     1     -41.720  57.127 -54.553  1.00  0.00    -0.254 OA
HETATM   14  H   UNL     1     -41.463  55.379 -57.050  1.00  0.00     0.128 HD
HETATM   15  H   UNL     1     -41.859  57.027 -56.933  1.00  0.00     0.128 HD
HETATM   16  H   UNL     1     -42.155  54.116 -55.300  1.00  0.00     0.164 HD
ENDBRANCH   2  10
ENDBRANCH   1   2
BRANCH   1  17
HETATM   17  C   UNL     1     -43.235  55.941 -52.033  1.00  0.00     0.224 C 
HETATM   18  N   UNL     1     -44.358  56.462 -52.646  1.00  0.00    -0.327 N 
HETATM   19  H   UNL     1     -44.975  55.802 -53.103  1.00  0.00     0.169 HD
HETATM   20  O   UNL     1     -42.511  56.520 -51.226  1.00  0.00    -0.273 OA
BRANCH  18  21
HETATM   21  C   UNL     1     -44.772  57.810 -52.664  1.00  0.00     0.035 A 
HETATM   22  C   UNL     1     -45.098  58.538 -51.514  1.00  0.00     0.042 A 
HETATM   23  C   UNL     1     -45.449  59.897 -51.589  1.00  0.00    -0.021 A 
HETATM   24  C   UNL     1     -45.476  60.520 -52.842  1.00  0.00     0.012 A 
HETATM   25  C   UNL     1     -45.156  59.802 -53.996  1.00  0.00     0.003 A 
HETATM   26  C   UNL     1     -44.802  58.456 -53.905  1.00  0.00     0.029 A 
BRANCH  23  27
HETATM   27  C   UNL     1     -45.756  60.660 -50.390  1.00  0.00     0.010 A 
HETATM   28  C   UNL     1     -45.627  60.327 -49.019  1.00  0.00     0.152 A 
HETATM   29  N   UNL     1     -46.015  61.313 -48.206  1.00  0.00    -0.187 NA
HETATM   30  N   UNL     1     -46.402  62.281 -49.052  1.00  0.00    -0.289 N 
HETATM   31  H   UNL     1     -46.750  63.150 -48.662  1.00  0.00     0.188 HD
HETATM   32  C   UNL     1     -46.261  61.943 -50.366  1.00  0.00     0.123 A 
ENDBRANCH  23  27
ENDBRANCH  18  21
ENDBRANCH   1  17
TORSDOF 6
ENDMDL
MODEL 6
REMARK VINA RESULT:      -7.7      2.472      8.108
REMARK  6 active torsions:
REMARK  status: ('A' for Active; 'I' for Inactive)
REMARK    1  A    between atoms: C_3  and  C_4 
REMARK    2  A    between atoms: C_4  and  N_5 
REMARK    3  A    between atoms: C_4  and  C_9 
REMARK       I    between atoms: N_5  and  C_6 
REMARK       I    between atoms: C_6  and  N_7 
REMARK    4  A    between atoms: C_9  and  C_10 
REMARK       I    between atoms: C_10  and  N_11 
REMARK    5  A    between atoms: N_11  and  C_12 
REMARK    6  A    between atoms: C_14  and  C_15 
ROOT
HETATM    1  C   UNL     1     -42.855  55.679 -56.478  1.00  0.00     0.133 C 
ENDROOT
BRANCH   1   2
HETATM    2  C   UNL     1     -42.731  57.141 -56.915  1.00  0.00     0.128 C 
BRANCH   2   3
HETATM    3  C   UNL     1     -43.636  57.568 -58.074  1.00  0.00    -0.029 A 
HETATM    4  C   UNL     1     -43.222  57.743 -59.414  1.00  0.00    -0.054 A 
HETATM    5  C   UNL     1     -41.802  57.588 -59.885  1.00  0.00     0.049 C 
HETATM    6  C   UNL     1     -44.174  58.114 -60.386  1.00  0.00     0.007 A 
HETATM    7  C   UNL     1     -45.519  58.281 -60.060  1.00  0.00     0.001 A 
HETATM    8  C   UNL     1     -45.936  58.095 -58.751  1.00  0.00     0.001 A 
HETATM    9  C   UNL     1     -45.007  57.746 -57.773  1.00  0.00     0.010 A 
ENDBRANCH   2   3
BRANCH   2  10
HETATM   10  N   UNL     1     -42.779  58.146 -55.851  1.00  0.00    -0.339 N 
HETATM   11  C   UNL     1     -42.198  59.373 -55.865  1.00  0.00     0.292 C 
HETATM   12  N   UNL     1     -42.416  60.054 -54.712  1.00  0.00    -0.254 NA
HETATM   13  O   UNL     1     -41.548  59.865 -56.774  1.00  0.00    -0.254 OA
HETATM   14  H   UNL     1     -43.324  59.944 -54.285  1.00  0.00     0.128 HD
HETATM   15  H   UNL     1     -42.087  61.010 -54.752  1.00  0.00     0.128 HD
HETATM   16  H   UNL     1     -43.012  57.795 -54.934  1.00  0.00     0.164 HD
ENDBRANCH   2  10
ENDBRANCH   1   2
BRANCH   1  17
HETATM   17  C   UNL     1     -41.769  55.315 -55.487  1.00  0.00     0.224 C 
HETATM   18  N   UNL     1     -41.818  53.994 -55.082  1.00  0.00    -0.327 N 
HETATM   19  H   UNL     1     -42.394  53.370 -55.634  1.00  0.00     0.169 HD
HETATM   20  O   UNL     1     -40.953  56.158 -55.122  1.00  0.00    -0.273 OA
BRANCH  18  21
HETATM   21  C   UNL     1     -41.113  53.402 -54.014  1.00  0.00     0.035 A 
HETATM   22  C   UNL     1     -41.215  53.829 -52.685  1.00  0.00     0.042 A 
HETATM   23  C   UNL     1     -40.532  53.163 -51.654  1.00  0.00    -0.021 A 
HETATM   24  C   UNL     1     -39.733  52.059 -51.974  1.00  0.00     0.012 A 
HETATM   25  C   UNL     1     -39.622  51.628 -53.296  1.00  0.00     0.003 A 
HETATM   26  C   UNL     1     -40.312  52.294 -54.309  1.00  0.00     0.029 A 
BRANCH  23  27
HETATM   27  C   UNL     1     -40.665  53.589 -50.269  1.00  0.00     0.010 A 
HETATM   28  C   UNL     1     -40.504  52.873 -49.058  1.00  0.00     0.152 A 
HETATM   29  N   UNL     1     -40.709  53.629 -47.976  1.00  0.00    -0.187 NA
HETATM   30  N   UNL     1     -41.009  54.833 -48.489  1.00  0.00    -0.289 N 
HETATM   31  H   UNL     1     -41.213  55.591 -47.848  1.00  0.00     0.188 HD
HETATM   32  C   UNL     1     -40.990  54.863 -49.852  1.00  0.00     0.123 A 
ENDBRANCH  23  27
ENDBRANCH  18  21
ENDBRANCH   1  17
TORSDOF 6
ENDMDL
MODEL 7
REMARK VINA RESULT:      -7.7      2.272      2.756
REMARK  6 active torsions:
REMARK  status: ('A' for Active; 'I' for Inactive)
REMARK    1  A    between atoms: C_3  and  C_4 
REMARK    2  A    between atoms: C_4  and  N_5 
REMARK    3  A    between atoms: C_4  and  C_9 
REMARK       I    between atoms: N_5  and  C_6 
REMARK       I    between atoms: C_6  and  N_7 
REMARK    4  A    between atoms: C_9  and  C_10 
REMARK       I    between atoms: C_10  and  N_11 
REMARK    5  A    between atoms: N_11  and  C_12 
REMARK    6  A    between atoms: C_14  and  C_15 
ROOT
HETATM    1  C   UNL     1     -43.371  54.540 -54.204  1.00  0.00     0.133 C 
ENDROOT
BRANCH   1   2
HETATM    2  C   UNL     1     -42.149  54.784 -53.315  1.00  0.00     0.128 C 
BRANCH   2   3
HETATM    3  C   UNL     1     -41.199  53.594 -53.147  1.00  0.00    -0.029 A 
HETATM    4  C   UNL     1     -40.524  53.248 -51.954  1.00  0.00    -0.054 A 
HETATM    5  C   UNL     1     -40.599  54.045 -50.681  1.00  0.00     0.049 C 
HETATM    6  C   UNL     1     -39.699  52.104 -51.937  1.00  0.00     0.007 A 
HETATM    7  C   UNL     1     -39.559  51.291 -53.061  1.00  0.00     0.001 A 
HETATM    8  C   UNL     1     -40.231  51.615 -54.229  1.00  0.00     0.001 A 
HETATM    9  C   UNL     1     -41.037  52.751 -54.271  1.00  0.00     0.010 A 
ENDBRANCH   2   3
BRANCH   2  10
HETATM   10  N   UNL     1     -41.378  55.999 -53.585  1.00  0.00    -0.339 N 
HETATM   11  C   UNL     1     -41.268  57.087 -52.780  1.00  0.00     0.292 C 
HETATM   12  N   UNL     1     -40.494  58.055 -53.334  1.00  0.00    -0.254 NA
HETATM   13  O   UNL     1     -41.776  57.239 -51.680  1.00  0.00    -0.254 OA
HETATM   14  H   UNL     1     -39.689  57.746 -53.857  1.00  0.00     0.128 HD
HETATM   15  H   UNL     1     -40.311  58.822 -52.699  1.00  0.00     0.128 HD
HETATM   16  H   UNL     1     -41.151  56.161 -54.554  1.00  0.00     0.164 HD
ENDBRANCH   2  10
ENDBRANCH   1   2
BRANCH   1  17
HETATM   17  C   UNL     1     -43.734  55.787 -54.982  1.00  0.00     0.224 C 
HETATM   18  N   UNL     1     -43.391  55.717 -56.320  1.00  0.00    -0.327 N 
HETATM   19  H   UNL     1     -43.158  54.801 -56.682  1.00  0.00     0.169 HD
HETATM   20  O   UNL     1     -44.282  56.732 -54.420  1.00  0.00    -0.273 OA
BRANCH  18  21
HETATM   21  C   UNL     1     -43.377  56.774 -57.253  1.00  0.00     0.035 A 
HETATM   22  C   UNL     1     -44.415  57.025 -58.157  1.00  0.00     0.042 A 
HETATM   23  C   UNL     1     -44.370  58.129 -59.026  1.00  0.00    -0.021 A 
HETATM   24  C   UNL     1     -43.261  58.982 -58.980  1.00  0.00     0.012 A 
HETATM   25  C   UNL     1     -42.219  58.738 -58.084  1.00  0.00     0.003 A 
HETATM   26  C   UNL     1     -42.280  57.642 -57.223  1.00  0.00     0.029 A 
BRANCH  23  27
HETATM   27  C   UNL     1     -45.465  58.407 -59.943  1.00  0.00     0.010 A 
HETATM   28  C   UNL     1     -46.643  57.675 -60.231  1.00  0.00     0.152 A 
HETATM   29  N   UNL     1     -47.416  58.272 -61.142  1.00  0.00    -0.187 NA
HETATM   30  N   UNL     1     -46.733  59.387 -61.447  1.00  0.00    -0.289 N 
HETATM   31  H   UNL     1     -47.126  60.018 -62.138  1.00  0.00     0.188 HD
HETATM   32  C   UNL     1     -45.565  59.517 -60.755  1.00  0.00     0.123 A 
ENDBRANCH  23  27
ENDBRANCH  18  21
ENDBRANCH   1  17
TORSDOF 6
ENDMDL
MODEL 8
REMARK VINA RESULT:      -7.6      2.786      8.161
REMARK  6 active torsions:
REMARK  status: ('A' for Active; 'I' for Inactive)
REMARK    1  A    between atoms: C_3  and  C_4 
REMARK    2  A    between atoms: C_4  and  N_5 
REMARK    3  A    between atoms: C_4  and  C_9 
REMARK       I    between atoms: N_5  and  C_6 
REMARK       I    between atoms: C_6  and  N_7 
REMARK    4  A    between atoms: C_9  and  C_10 
REMARK       I    between atoms: C_10  and  N_11 
REMARK    5  A    between atoms: N_11  and  C_12 
REMARK    6  A    between atoms: C_14  and  C_15 
ROOT
HETATM    1  C   UNL     1     -42.386  56.608 -57.256  1.00  0.00     0.133 C 
ENDROOT
BRANCH   1   2
HETATM    2  C   UNL     1     -43.817  56.944 -57.683  1.00  0.00     0.128 C 
BRANCH   2   3
HETATM    3  C   UNL     1     -44.369  58.277 -57.171  1.00  0.00    -0.029 A 
HETATM    4  C   UNL     1     -44.863  58.513 -55.867  1.00  0.00    -0.054 A 
HETATM    5  C   UNL     1     -44.970  57.456 -54.802  1.00  0.00     0.049 C 
HETATM    6  C   UNL     1     -45.315  59.804 -55.525  1.00  0.00     0.007 A 
HETATM    7  C   UNL     1     -45.258  60.860 -56.434  1.00  0.00     0.001 A 
HETATM    8  C   UNL     1     -44.760  60.640 -57.709  1.00  0.00     0.001 A 
HETATM    9  C   UNL     1     -44.325  59.367 -58.072  1.00  0.00     0.010 A 
ENDBRANCH   2   3
BRANCH   2  10
HETATM   10  N   UNL     1     -44.126  56.793 -59.106  1.00  0.00    -0.339 N 
HETATM   11  C   UNL     1     -44.319  55.628 -59.776  1.00  0.00     0.292 C 
HETATM   12  N   UNL     1     -44.568  55.834 -61.094  1.00  0.00    -0.254 NA
HETATM   13  O   UNL     1     -44.289  54.501 -59.309  1.00  0.00    -0.254 OA
HETATM   14  H   UNL     1     -45.133  56.636 -61.329  1.00  0.00     0.128 HD
HETATM   15  H   UNL     1     -44.826  54.985 -61.583  1.00  0.00     0.128 HD
HETATM   16  H   UNL     1     -43.894  57.585 -59.686  1.00  0.00     0.164 HD
ENDBRANCH   2  10
ENDBRANCH   1   2
BRANCH   1  17
HETATM   17  C   UNL     1     -42.373  55.507 -56.216  1.00  0.00     0.224 C 
HETATM   18  N   UNL     1     -41.371  55.654 -55.276  1.00  0.00    -0.327 N 
HETATM   19  H   UNL     1     -40.915  56.557 -55.235  1.00  0.00     0.169 HD
HETATM   20  O   UNL     1     -43.203  54.603 -56.260  1.00  0.00    -0.273 OA
BRANCH  18  21
HETATM   21  C   UNL     1     -40.943  54.701 -54.330  1.00  0.00     0.035 A 
HETATM   22  C   UNL     1     -41.012  54.896 -52.946  1.00  0.00     0.042 A 
HETATM   23  C   UNL     1     -40.623  53.885 -52.049  1.00  0.00    -0.021 A 
HETATM   24  C   UNL     1     -40.155  52.670 -52.562  1.00  0.00     0.012 A 
HETATM   25  C   UNL     1     -40.080  52.467 -53.941  1.00  0.00     0.003 A 
HETATM   26  C   UNL     1     -40.476  53.476 -54.818  1.00  0.00     0.029 A 
BRANCH  23  27
HETATM   27  C   UNL     1     -40.725  54.078 -50.611  1.00  0.00     0.010 A 
HETATM   28  C   UNL     1     -41.157  55.193 -49.852  1.00  0.00     0.152 A 
HETATM   29  N   UNL     1     -41.110  54.976 -48.535  1.00  0.00    -0.187 NA
HETATM   30  N   UNL     1     -40.641  53.721 -48.443  1.00  0.00    -0.289 N 
HETATM   31  H   UNL     1     -40.511  53.322 -47.520  1.00  0.00     0.188 HD
HETATM   32  C   UNL     1     -40.401  53.140 -49.654  1.00  0.00     0.123 A 
ENDBRANCH  23  27
ENDBRANCH  18  21
ENDBRANCH   1  17
TORSDOF 6
ENDMDL
MODEL 9
REMARK VINA RESULT:      -7.5      2.348      3.615
REMARK  6 active torsions:
REMARK  status: ('A' for Active; 'I' for Inactive)
REMARK    1  A    between atoms: C_3  and  C_4 
REMARK    2  A    between atoms: C_4  and  N_5 
REMARK    3  A    between atoms: C_4  and  C_9 
REMARK       I    between atoms: N_5  and  C_6 
REMARK       I    between atoms: C_6  and  N_7 
REMARK    4  A    between atoms: C_9  and  C_10 
REMARK       I    between atoms: C_10  and  N_11 
REMARK    5  A    between atoms: N_11  and  C_12 
REMARK    6  A    between atoms: C_14  and  C_15 
ROOT
HETATM    1  C   UNL     1     -41.175  55.801 -52.658  1.00  0.00     0.133 C 
ENDROOT
BRANCH   1   2
HETATM    2  C   UNL     1     -41.882  54.474 -52.943  1.00  0.00     0.128 C 
BRANCH   2   3
HETATM    3  C   UNL     1     -40.979  53.238 -53.003  1.00  0.00    -0.029 A 
HETATM    4  C   UNL     1     -40.149  52.780 -51.954  1.00  0.00    -0.054 A 
HETATM    5  C   UNL     1     -39.989  53.486 -50.635  1.00  0.00     0.049 C 
HETATM    6  C   UNL     1     -39.389  51.606 -52.140  1.00  0.00     0.007 A 
HETATM    7  C   UNL     1     -39.463  50.871 -53.322  1.00  0.00     0.001 A 
HETATM    8  C   UNL     1     -40.288  51.305 -54.349  1.00  0.00     0.001 A 
HETATM    9  C   UNL     1     -41.032  52.473 -54.191  1.00  0.00     0.010 A 
ENDBRANCH   2   3
BRANCH   2  10
HETATM   10  N   UNL     1     -43.070  54.181 -52.140  1.00  0.00    -0.339 N 
HETATM   11  C   UNL     1     -43.424  54.769 -50.968  1.00  0.00     0.292 C 
HETATM   12  N   UNL     1     -44.575  54.254 -50.467  1.00  0.00    -0.254 NA
HETATM   13  O   UNL     1     -42.826  55.660 -50.386  1.00  0.00    -0.254 OA
HETATM   14  H   UNL     1     -45.293  54.015 -51.134  1.00  0.00     0.128 HD
HETATM   15  H   UNL     1     -44.911  54.759 -49.656  1.00  0.00     0.128 HD
HETATM   16  H   UNL     1     -43.502  53.286 -52.315  1.00  0.00     0.164 HD
ENDBRANCH   2  10
ENDBRANCH   1   2
BRANCH   1  17
HETATM   17  C   UNL     1     -41.371  56.777 -53.799  1.00  0.00     0.224 C 
HETATM   18  N   UNL     1     -42.388  56.413 -54.662  1.00  0.00    -0.327 N 
HETATM   19  H   UNL     1     -43.025  55.695 -54.338  1.00  0.00     0.169 HD
HETATM   20  O   UNL     1     -40.664  57.777 -53.889  1.00  0.00    -0.273 OA
BRANCH  18  21
HETATM   21  C   UNL     1     -42.670  56.964 -55.929  1.00  0.00     0.035 A 
HETATM   22  C   UNL     1     -43.282  56.252 -56.966  1.00  0.00     0.042 A 
HETATM   23  C   UNL     1     -43.591  56.873 -58.189  1.00  0.00    -0.021 A 
HETATM   24  C   UNL     1     -43.271  58.224 -58.362  1.00  0.00     0.012 A 
HETATM   25  C   UNL     1     -42.657  58.942 -57.334  1.00  0.00     0.003 A 
HETATM   26  C   UNL     1     -42.363  58.316 -56.123  1.00  0.00     0.029 A 
BRANCH  23  27
HETATM   27  C   UNL     1     -44.256  56.140 -59.255  1.00  0.00     0.010 A 
HETATM   28  C   UNL     1     -45.348  56.494 -60.085  1.00  0.00     0.152 A 
HETATM   29  N   UNL     1     -45.666  55.539 -60.962  1.00  0.00    -0.187 NA
HETATM   30  N   UNL     1     -44.784  54.563 -60.694  1.00  0.00    -0.289 N 
HETATM   31  H   UNL     1     -44.829  53.710 -61.240  1.00  0.00     0.188 HD
HETATM   32  C   UNL     1     -43.917  54.875 -59.688  1.00  0.00     0.123 A 
ENDBRANCH  23  27
ENDBRANCH  18  21
ENDBRANCH   1  17
TORSDOF 6
ENDMDL
MODEL 10
REMARK VINA RESULT:      -7.4     15.883     19.074
REMARK  6 active torsions:
REMARK  status: ('A' for Active; 'I' for Inactive)
REMARK    1  A    between atoms: C_3  and  C_4 
REMARK    2  A    between atoms: C_4  and  N_5 
REMARK    3  A    between atoms: C_4  and  C_9 
REMARK       I    between atoms: N_5  and  C_6 
REMARK       I    between atoms: C_6  and  N_7 
REMARK    4  A    between atoms: C_9  and  C_10 
REMARK       I    between atoms: C_10  and  N_11 
REMARK    5  A    between atoms: N_11  and  C_12 
REMARK    6  A    between atoms: C_14  and  C_15 
ROOT
HETATM    1  C   UNL     1     -35.765  42.323 -55.134  1.00  0.00     0.133 C 
ENDROOT
BRANCH   1   2
HETATM    2  C   UNL     1     -35.368  41.098 -55.962  1.00  0.00     0.128 C 
BRANCH   2   3
HETATM    3  C   UNL     1     -36.266  40.788 -57.163  1.00  0.00    -0.029 A 
HETATM    4  C   UNL     1     -36.924  39.559 -57.398  1.00  0.00    -0.054 A 
HETATM    5  C   UNL     1     -36.784  38.347 -56.518  1.00  0.00     0.049 C 
HETATM    6  C   UNL     1     -37.745  39.424 -58.537  1.00  0.00     0.007 A 
HETATM    7  C   UNL     1     -37.948  40.485 -59.418  1.00  0.00     0.001 A 
HETATM    8  C   UNL     1     -37.319  41.698 -59.185  1.00  0.00     0.001 A 
HETATM    9  C   UNL     1     -36.489  41.846 -58.076  1.00  0.00     0.010 A 
ENDBRANCH   2   3
BRANCH   2  10
HETATM   10  N   UNL     1     -33.962  41.006 -56.357  1.00  0.00    -0.339 N 
HETATM   11  C   UNL     1     -33.011  40.213 -55.799  1.00  0.00     0.292 C 
HETATM   12  N   UNL     1     -31.799  40.381 -56.385  1.00  0.00    -0.254 NA
HETATM   13  O   UNL     1     -33.163  39.424 -54.881  1.00  0.00    -0.254 OA
HETATM   14  H   UNL     1     -31.795  40.525 -57.384  1.00  0.00     0.128 HD
HETATM   15  H   UNL     1     -31.108  39.717 -56.057  1.00  0.00     0.128 HD
HETATM   16  H   UNL     1     -33.608  41.790 -56.885  1.00  0.00     0.164 HD
ENDBRANCH   2  10
ENDBRANCH   1   2
BRANCH   1  17
HETATM   17  C   UNL     1     -35.548  42.073 -53.656  1.00  0.00     0.224 C 
HETATM   18  N   UNL     1     -35.377  40.736 -53.347  1.00  0.00    -0.327 N 
HETATM   19  H   UNL     1     -35.187  40.111 -54.121  1.00  0.00     0.169 HD
HETATM   20  O   UNL     1     -35.533  43.011 -52.863  1.00  0.00    -0.273 OA
BRANCH  18  21
HETATM   21  C   UNL     1     -35.386  40.149 -52.065  1.00  0.00     0.035 A 
HETATM   22  C   UNL     1     -34.236  39.953 -51.293  1.00  0.00     0.042 A 
HETATM   23  C   UNL     1     -34.314  39.414 -49.997  1.00  0.00    -0.021 A 
HETATM   24  C   UNL     1     -35.569  39.068 -49.483  1.00  0.00     0.012 A 
HETATM   25  C   UNL     1     -36.722  39.257 -50.247  1.00  0.00     0.003 A 
HETATM   26  C   UNL     1     -36.630  39.799 -51.529  1.00  0.00     0.029 A 
BRANCH  23  27
HETATM   27  C   UNL     1     -33.121  39.240 -49.184  1.00  0.00     0.010 A 
HETATM   28  C   UNL     1     -31.837  39.831 -49.279  1.00  0.00     0.152 A 
HETATM   29  N   UNL     1     -30.999  39.412 -48.328  1.00  0.00    -0.187 NA
HETATM   30  N   UNL     1     -31.740  38.544 -47.621  1.00  0.00    -0.289 N 
HETATM   31  H   UNL     1     -31.311  38.079 -46.828  1.00  0.00     0.188 HD
HETATM   32  C   UNL     1     -33.015  38.410 -48.087  1.00  0.00     0.123 A 
ENDBRANCH  23  27
ENDBRANCH  18  21
ENDBRANCH   1  17
TORSDOF 6
ENDMDL
