MODEL 1
REMARK VINA RESULT:      -7.9      0.000      0.000
REMARK  5 active torsions:
REMARK  status: ('A' for Active; 'I' for Inactive)
REMARK    1  A    between atoms: C_2  and  O_3 
REMARK    2  A    between atoms: O_3  and  C_4 
REMARK    3  A    between atoms: C_7  and  C_8 
REMARK       I    between atoms: C_8  and  N_9 
REMARK    4  A    between atoms: N_12  and  C_13 
REMARK    5  A    between atoms: C_17  and  C_18 
ROOT
HETATM    1  C   UNL     1     -42.715  54.556 -54.968  1.00  0.00     0.253 C 
HETATM    2  N   UNL     1     -42.613  55.907 -55.288  1.00  0.00    -0.345 N 
HETATM    3  C   UNL     1     -43.320  56.375 -56.484  1.00  0.00     0.146 C 
HETATM    4  C   UNL     1     -43.716  57.855 -56.363  1.00  0.00     0.144 C 
HETATM    5  N   UNL     1     -42.548  58.681 -56.000  1.00  0.00    -0.363 N 
HETATM    6  C   UNL     1     -41.835  58.231 -54.794  1.00  0.00     0.144 C 
HETATM    7  C   UNL     1     -41.459  56.741 -54.915  1.00  0.00     0.146 C 
HETATM    8  O   UNL     1     -43.284  53.736 -55.686  1.00  0.00    -0.267 OA
ENDROOT
BRANCH   5   9
HETATM    9  C   UNL     1     -42.186  59.764 -56.741  1.00  0.00     0.122 A 
HETATM   10  N   UNL     1     -42.366  61.061 -56.335  1.00  0.00    -0.262 N 
HETATM   11  H   UNL     1     -42.798  61.386 -55.481  1.00  0.00     0.191 HD
HETATM   12  N   UNL     1     -41.935  61.985 -57.207  1.00  0.00    -0.173 NA
HETATM   13  C   UNL     1     -41.452  61.273 -58.237  1.00  0.00     0.090 A 
HETATM   14  C   UNL     1     -41.611  59.880 -57.987  1.00  0.00     0.084 A 
BRANCH  13  15
HETATM   15  C   UNL     1     -40.863  61.919 -59.415  1.00  0.00    -0.005 A 
HETATM   16  C   UNL     1     -39.788  62.813 -59.271  1.00  0.00     0.015 A 
HETATM   17  C   UNL     1     -39.221  63.437 -60.387  1.00  0.00     0.024 A 
HETATM   18  C   UNL     1     -39.721  63.169 -61.658  1.00  0.00     0.034 A 
HETATM   19 CL   UNL     1     -39.025  63.932 -63.032  1.00  0.00    -0.084 Cl
HETATM   20  C   UNL     1     -40.783  62.282 -61.822  1.00  0.00     0.024 A 
HETATM   21  C   UNL     1     -41.351  61.661 -60.705  1.00  0.00     0.015 A 
ENDBRANCH  13  15
ENDBRANCH   5   9
BRANCH   1  22
HETATM   22  C   UNL     1     -42.181  54.085 -53.667  1.00  0.00     0.032 A 
HETATM   23  C   UNL     1     -40.979  53.374 -53.601  1.00  0.00     0.020 A 
HETATM   24  C   UNL     1     -40.467  52.993 -52.360  1.00  0.00     0.038 A 
HETATM   25  C   UNL     1     -41.122  53.358 -51.181  1.00  0.00     0.068 A 
HETATM   26  C   UNL     1     -42.317  54.078 -51.247  1.00  0.00     0.038 A 
HETATM   27  C   UNL     1     -42.842  54.450 -52.490  1.00  0.00     0.020 A 
BRANCH  25  28
HETATM   28  O   UNL     1     -40.508  52.946 -50.032  1.00  0.00    -0.352 OA
BRANCH  28  29
HETATM   29  C   UNL     1     -39.794  53.948 -49.308  1.00  0.00     0.171 C 
HETATM   30  C   UNL     1     -40.413  54.053 -47.925  1.00  0.00     0.034 C 
ENDBRANCH  28  29
ENDBRANCH  25  28
ENDBRANCH   1  22
TORSDOF 5
ENDMDL
MODEL 2
REMARK VINA RESULT:      -7.8      4.463      5.727
REMARK  5 active torsions:
REMARK  status: ('A' for Active; 'I' for Inactive)
REMARK    1  A    between atoms: C_2  and  O_3 
REMARK    2  A    between atoms: O_3  and  C_4 
REMARK    3  A    between atoms: C_7  and  C_8 
REMARK       I    between atoms: C_8  and  N_9 
REMARK    4  A    between atoms: N_12  and  C_13 
REMARK    5  A    between atoms: C_17  and  C_18 
ROOT
HETATM    1  C   UNL     1     -42.194  56.515 -53.276  1.00  0.00     0.253 C 
HETATM    2  N   UNL     1     -42.517  56.429 -54.627  1.00  0.00    -0.345 N 
HETATM    3  C   UNL     1     -42.773  57.683 -55.345  1.00  0.00     0.146 C 
HETATM    4  C   UNL     1     -42.434  57.558 -56.839  1.00  0.00     0.144 C 
HETATM    5  N   UNL     1     -43.106  56.386 -57.431  1.00  0.00    -0.363 N 
HETATM    6  C   UNL     1     -42.849  55.117 -56.730  1.00  0.00     0.144 C 
HETATM    7  C   UNL     1     -43.173  55.256 -55.229  1.00  0.00     0.146 C 
HETATM    8  O   UNL     1     -42.207  57.571 -52.648  1.00  0.00    -0.267 OA
ENDROOT
BRANCH   5   9
HETATM    9  C   UNL     1     -43.893  56.501 -58.536  1.00  0.00     0.122 A 
HETATM   10  N   UNL     1     -43.581  55.958 -59.755  1.00  0.00    -0.262 N 
HETATM   11  H   UNL     1     -42.748  55.442 -60.006  1.00  0.00     0.191 HD
HETATM   12  N   UNL     1     -44.492  56.178 -60.715  1.00  0.00    -0.173 NA
HETATM   13  C   UNL     1     -45.447  56.901 -60.110  1.00  0.00     0.090 A 
HETATM   14  C   UNL     1     -45.096  57.138 -58.751  1.00  0.00     0.084 A 
BRANCH  13  15
HETATM   15  C   UNL     1     -46.650  57.344 -60.824  1.00  0.00    -0.005 A 
HETATM   16  C   UNL     1     -47.439  56.418 -61.527  1.00  0.00     0.015 A 
HETATM   17  C   UNL     1     -48.586  56.830 -62.213  1.00  0.00     0.024 A 
HETATM   18  C   UNL     1     -48.956  58.172 -62.198  1.00  0.00     0.034 A 
HETATM   19 CL   UNL     1     -50.367  58.681 -63.039  1.00  0.00    -0.084 Cl
HETATM   20  C   UNL     1     -48.190  59.104 -61.503  1.00  0.00     0.024 A 
HETATM   21  C   UNL     1     -47.042  58.691 -60.819  1.00  0.00     0.015 A 
ENDBRANCH  13  15
ENDBRANCH   5   9
BRANCH   1  22
HETATM   22  C   UNL     1     -41.739  55.294 -52.569  1.00  0.00     0.032 A 
HETATM   23  C   UNL     1     -40.790  54.444 -53.143  1.00  0.00     0.020 A 
HETATM   24  C   UNL     1     -40.333  53.333 -52.432  1.00  0.00     0.038 A 
HETATM   25  C   UNL     1     -40.784  53.091 -51.132  1.00  0.00     0.068 A 
HETATM   26  C   UNL     1     -41.723  53.947 -50.554  1.00  0.00     0.038 A 
HETATM   27  C   UNL     1     -42.195  55.054 -51.268  1.00  0.00     0.020 A 
BRANCH  25  28
HETATM   28  O   UNL     1     -40.244  51.986 -50.535  1.00  0.00    -0.352 OA
BRANCH  28  29
HETATM   29  C   UNL     1     -39.571  51.071 -51.399  1.00  0.00     0.171 C 
HETATM   30  C   UNL     1     -39.779  49.672 -50.847  1.00  0.00     0.034 C 
ENDBRANCH  28  29
ENDBRANCH  25  28
ENDBRANCH   1  22
TORSDOF 5
ENDMDL
MODEL 3
REMARK VINA RESULT:      -7.8      6.534      9.711
REMARK  5 active torsions:
REMARK  status: ('A' for Active; 'I' for Inactive)
REMARK    1  A    between atoms: C_2  and  O_3 
REMARK    2  A    between atoms: O_3  and  C_4 
REMARK    3  A    between atoms: C_7  and  C_8 
REMARK       I    between atoms: C_8  and  N_9 
REMARK    4  A    between atoms: N_12  and  C_13 
REMARK    5  A    between atoms: C_17  and  C_18 
ROOT
HETATM    1  C   UNL     1     -44.430  61.914 -52.009  1.00  0.00     0.253 C 
HETATM    2  N   UNL     1     -43.635  60.783 -52.169  1.00  0.00    -0.345 N 
HETATM    3  C   UNL     1     -43.054  60.543 -53.494  1.00  0.00     0.146 C 
HETATM    4  C   UNL     1     -41.736  59.759 -53.401  1.00  0.00     0.144 C 
HETATM    5  N   UNL     1     -41.912  58.534 -52.598  1.00  0.00    -0.363 N 
HETATM    6  C   UNL     1     -42.482  58.759 -51.259  1.00  0.00     0.144 C 
HETATM    7  C   UNL     1     -43.794  59.562 -51.361  1.00  0.00     0.146 C 
HETATM    8  O   UNL     1     -44.738  62.656 -52.940  1.00  0.00    -0.267 OA
ENDROOT
BRANCH   5   9
HETATM    9  C   UNL     1     -41.566  57.310 -53.084  1.00  0.00     0.122 A 
HETATM   10  N   UNL     1     -41.412  57.035 -54.418  1.00  0.00    -0.262 N 
HETATM   11  H   UNL     1     -41.553  57.663 -55.199  1.00  0.00     0.191 HD
HETATM   12  N   UNL     1     -41.061  55.769 -54.691  1.00  0.00    -0.173 NA
HETATM   13  C   UNL     1     -40.983  55.178 -53.489  1.00  0.00     0.090 A 
HETATM   14  C   UNL     1     -41.311  56.108 -52.463  1.00  0.00     0.084 A 
BRANCH  13  15
HETATM   15  C   UNL     1     -40.606  53.767 -53.346  1.00  0.00    -0.005 A 
HETATM   16  C   UNL     1     -40.606  52.915 -54.463  1.00  0.00     0.015 A 
HETATM   17  C   UNL     1     -40.250  51.568 -54.337  1.00  0.00     0.024 A 
HETATM   18  C   UNL     1     -39.888  51.062 -53.092  1.00  0.00     0.034 A 
HETATM   19 CL   UNL     1     -39.448  49.407 -52.934  1.00  0.00    -0.084 Cl
HETATM   20  C   UNL     1     -39.876  51.891 -51.973  1.00  0.00     0.024 A 
HETATM   21  C   UNL     1     -40.234  53.238 -52.100  1.00  0.00     0.015 A 
ENDBRANCH  13  15
ENDBRANCH   5   9
BRANCH   1  22
HETATM   22  C   UNL     1     -44.870  62.294 -50.646  1.00  0.00     0.032 A 
HETATM   23  C   UNL     1     -46.098  61.857 -50.141  1.00  0.00     0.020 A 
HETATM   24  C   UNL     1     -46.464  62.178 -48.832  1.00  0.00     0.038 A 
HETATM   25  C   UNL     1     -45.591  62.894 -48.009  1.00  0.00     0.068 A 
HETATM   26  C   UNL     1     -44.360  63.321 -48.510  1.00  0.00     0.038 A 
HETATM   27  C   UNL     1     -43.995  63.014 -49.825  1.00  0.00     0.020 A 
BRANCH  25  28
HETATM   28  O   UNL     1     -46.055  63.125 -46.744  1.00  0.00    -0.352 OA
BRANCH  28  29
HETATM   29  C   UNL     1     -45.167  62.787 -45.679  1.00  0.00     0.171 C 
HETATM   30  C   UNL     1     -45.110  61.273 -45.584  1.00  0.00     0.034 C 
ENDBRANCH  28  29
ENDBRANCH  25  28
ENDBRANCH   1  22
TORSDOF 5
ENDMDL
MODEL 4
REMARK VINA RESULT:      -7.7      6.281     10.369
REMARK  5 active torsions:
REMARK  status: ('A' for Active; 'I' for Inactive)
REMARK    1  A    between atoms: C_2  and  O_3 
REMARK    2  A    between atoms: O_3  and  C_4 
REMARK    3  A    between atoms: C_7  and  C_8 
REMARK       I    between atoms: C_8  and  N_9 
REMARK    4  A    between atoms: N_12  and  C_13 
REMARK    5  A    between atoms: C_17  and  C_18 
ROOT
HETATM    1  C   UNL     1     -44.146  61.683 -53.233  1.00  0.00     0.253 C 
HETATM    2  N   UNL     1     -43.671  60.516 -52.641  1.00  0.00    -0.345 N 
HETATM    3  C   UNL     1     -42.226  60.268 -52.692  1.00  0.00     0.146 C 
HETATM    4  C   UNL     1     -41.756  59.419 -51.501  1.00  0.00     0.144 C 
HETATM    5  N   UNL     1     -42.566  58.191 -51.383  1.00  0.00    -0.363 N 
HETATM    6  C   UNL     1     -44.018  58.423 -51.317  1.00  0.00     0.144 C 
HETATM    7  C   UNL     1     -44.479  59.292 -52.505  1.00  0.00     0.146 C 
HETATM    8  O   UNL     1     -43.430  62.453 -53.869  1.00  0.00    -0.267 OA
ENDROOT
BRANCH   5   9
HETATM    9  C   UNL     1     -41.987  56.960 -51.340  1.00  0.00     0.122 A 
HETATM   10  N   UNL     1     -41.520  56.376 -50.191  1.00  0.00    -0.262 N 
HETATM   11  H   UNL     1     -41.511  56.768 -49.258  1.00  0.00     0.191 HD
HETATM   12  N   UNL     1     -40.990  55.155 -50.359  1.00  0.00    -0.173 NA
HETATM   13  C   UNL     1     -41.108  54.918 -51.676  1.00  0.00     0.090 A 
HETATM   14  C   UNL     1     -41.710  56.035 -52.322  1.00  0.00     0.084 A 
BRANCH  13  15
HETATM   15  C   UNL     1     -40.652  53.661 -52.278  1.00  0.00    -0.005 A 
HETATM   16  C   UNL     1     -40.854  53.415 -53.647  1.00  0.00     0.015 A 
HETATM   17  C   UNL     1     -40.425  52.219 -54.231  1.00  0.00     0.024 A 
HETATM   18  C   UNL     1     -39.786  51.259 -53.452  1.00  0.00     0.034 A 
HETATM   19 CL   UNL     1     -39.256  49.788 -54.167  1.00  0.00    -0.084 Cl
HETATM   20  C   UNL     1     -39.572  51.486 -52.094  1.00  0.00     0.024 A 
HETATM   21  C   UNL     1     -40.003  52.681 -51.511  1.00  0.00     0.015 A 
ENDBRANCH  13  15
ENDBRANCH   5   9
BRANCH   1  22
HETATM   22  C   UNL     1     -45.565  62.063 -53.032  1.00  0.00     0.032 A 
HETATM   23  C   UNL     1     -46.475  62.023 -54.092  1.00  0.00     0.020 A 
HETATM   24  C   UNL     1     -47.818  62.328 -53.865  1.00  0.00     0.038 A 
HETATM   25  C   UNL     1     -48.268  62.626 -52.577  1.00  0.00     0.068 A 
HETATM   26  C   UNL     1     -47.361  62.654 -51.515  1.00  0.00     0.038 A 
HETATM   27  C   UNL     1     -46.011  62.364 -51.741  1.00  0.00     0.020 A 
BRANCH  25  28
HETATM   28  O   UNL     1     -49.607  62.884 -52.482  1.00  0.00    -0.352 OA
BRANCH  28  29
HETATM   29  C   UNL     1     -50.470  61.985 -53.178  1.00  0.00     0.171 C 
HETATM   30  C   UNL     1     -51.884  62.216 -52.677  1.00  0.00     0.034 C 
ENDBRANCH  28  29
ENDBRANCH  25  28
ENDBRANCH   1  22
TORSDOF 5
ENDMDL
MODEL 5
REMARK VINA RESULT:      -7.6      4.646      5.817
REMARK  5 active torsions:
REMARK  status: ('A' for Active; 'I' for Inactive)
REMARK    1  A    between atoms: C_2  and  O_3 
REMARK    2  A    between atoms: O_3  and  C_4 
REMARK    3  A    between atoms: C_7  and  C_8 
REMARK       I    between atoms: C_8  and  N_9 
REMARK    4  A    between atoms: N_12  and  C_13 
REMARK    5  A    between atoms: C_17  and  C_18 
ROOT
HETATM    1  C   UNL     1     -41.372  56.269 -54.512  1.00  0.00     0.253 C 
HETATM    2  N   UNL     1     -42.135  56.293 -55.677  1.00  0.00    -0.345 N 
HETATM    3  C   UNL     1     -42.458  57.604 -56.248  1.00  0.00     0.146 C 
HETATM    4  C   UNL     1     -42.655  57.524 -57.771  1.00  0.00     0.144 C 
HETATM    5  N   UNL     1     -43.626  56.468 -58.117  1.00  0.00    -0.363 N 
HETATM    6  C   UNL     1     -43.308  55.142 -57.561  1.00  0.00     0.144 C 
HETATM    7  C   UNL     1     -43.093  55.235 -56.037  1.00  0.00     0.146 C 
HETATM    8  O   UNL     1     -41.045  57.284 -53.902  1.00  0.00    -0.267 OA
ENDROOT
BRANCH   5   9
HETATM    9  C   UNL     1     -44.715  56.730 -58.890  1.00  0.00     0.122 A 
HETATM   10  N   UNL     1     -45.453  55.762 -59.521  1.00  0.00    -0.262 N 
HETATM   11  H   UNL     1     -45.287  54.765 -59.528  1.00  0.00     0.191 HD
HETATM   12  N   UNL     1     -46.494  56.226 -60.230  1.00  0.00    -0.173 NA
HETATM   13  C   UNL     1     -46.443  57.558 -60.066  1.00  0.00     0.090 A 
HETATM   14  C   UNL     1     -45.332  57.908 -59.249  1.00  0.00     0.084 A 
BRANCH  13  15
HETATM   15  C   UNL     1     -47.433  58.450 -60.679  1.00  0.00    -0.005 A 
HETATM   16  C   UNL     1     -48.202  58.014 -61.770  1.00  0.00     0.015 A 
HETATM   17  C   UNL     1     -49.147  58.856 -62.364  1.00  0.00     0.024 A 
HETATM   18  C   UNL     1     -49.334  60.144 -61.868  1.00  0.00     0.034 A 
HETATM   19 CL   UNL     1     -50.496  61.183 -62.594  1.00  0.00    -0.084 Cl
HETATM   20  C   UNL     1     -48.584  60.594 -60.784  1.00  0.00     0.024 A 
HETATM   21  C   UNL     1     -47.638  59.750 -60.192  1.00  0.00     0.015 A 
ENDBRANCH  13  15
ENDBRANCH   5   9
BRANCH   1  22
HETATM   22  C   UNL     1     -40.862  54.968 -54.017  1.00  0.00     0.032 A 
HETATM   23  C   UNL     1     -40.998  54.610 -52.672  1.00  0.00     0.020 A 
HETATM   24  C   UNL     1     -40.564  53.355 -52.241  1.00  0.00     0.038 A 
HETATM   25  C   UNL     1     -40.037  52.438 -53.153  1.00  0.00     0.068 A 
HETATM   26  C   UNL     1     -39.912  52.790 -54.498  1.00  0.00     0.038 A 
HETATM   27  C   UNL     1     -40.332  54.053 -54.932  1.00  0.00     0.020 A 
BRANCH  25  28
HETATM   28  O   UNL     1     -39.670  51.237 -52.612  1.00  0.00    -0.352 OA
BRANCH  28  29
HETATM   29  C   UNL     1     -39.760  51.136 -51.191  1.00  0.00     0.171 C 
HETATM   30  C   UNL     1     -39.718  49.662 -50.826  1.00  0.00     0.034 C 
ENDBRANCH  28  29
ENDBRANCH  25  28
ENDBRANCH   1  22
TORSDOF 5
ENDMDL
MODEL 6
REMARK VINA RESULT:      -7.6      7.636      9.880
REMARK  5 active torsions:
REMARK  status: ('A' for Active; 'I' for Inactive)
REMARK    1  A    between atoms: C_2  and  O_3 
REMARK    2  A    between atoms: O_3  and  C_4 
REMARK    3  A    between atoms: C_7  and  C_8 
REMARK       I    between atoms: C_8  and  N_9 
REMARK    4  A    between atoms: N_12  and  C_13 
REMARK    5  A    between atoms: C_17  and  C_18 
ROOT
HETATM    1  C   UNL     1     -45.770  62.049 -49.274  1.00  0.00     0.253 C 
HETATM    2  N   UNL     1     -44.784  61.426 -50.034  1.00  0.00    -0.345 N 
HETATM    3  C   UNL     1     -45.148  60.976 -51.381  1.00  0.00     0.146 C 
HETATM    4  C   UNL     1     -43.932  60.965 -52.321  1.00  0.00     0.144 C 
HETATM    5  N   UNL     1     -42.816  60.207 -51.722  1.00  0.00    -0.363 N 
HETATM    6  C   UNL     1     -42.430  60.655 -50.374  1.00  0.00     0.144 C 
HETATM    7  C   UNL     1     -43.658  60.682 -49.443  1.00  0.00     0.146 C 
HETATM    8  O   UNL     1     -46.938  62.151 -49.643  1.00  0.00    -0.267 OA
ENDROOT
BRANCH   5   9
HETATM    9  C   UNL     1     -42.214  59.184 -52.388  1.00  0.00     0.122 A 
HETATM   10  N   UNL     1     -41.362  59.360 -53.448  1.00  0.00    -0.262 N 
HETATM   11  H   UNL     1     -41.093  60.231 -53.886  1.00  0.00     0.191 HD
HETATM   12  N   UNL     1     -40.867  58.224 -53.962  1.00  0.00    -0.173 NA
HETATM   13  C   UNL     1     -41.416  57.253 -53.216  1.00  0.00     0.090 A 
HETATM   14  C   UNL     1     -42.278  57.817 -52.234  1.00  0.00     0.084 A 
BRANCH  13  15
HETATM   15  C   UNL     1     -41.115  55.836 -53.449  1.00  0.00    -0.005 A 
HETATM   16  C   UNL     1     -41.384  54.880 -52.455  1.00  0.00     0.015 A 
HETATM   17  C   UNL     1     -41.099  53.527 -52.666  1.00  0.00     0.024 A 
HETATM   18  C   UNL     1     -40.545  53.118 -53.876  1.00  0.00     0.034 A 
HETATM   19 CL   UNL     1     -40.194  51.455 -54.140  1.00  0.00    -0.084 Cl
HETATM   20  C   UNL     1     -40.275  54.049 -54.876  1.00  0.00     0.024 A 
HETATM   21  C   UNL     1     -40.559  55.402 -54.663  1.00  0.00     0.015 A 
ENDBRANCH  13  15
ENDBRANCH   5   9
BRANCH   1  22
HETATM   22  C   UNL     1     -45.391  62.689 -47.992  1.00  0.00     0.032 A 
HETATM   23  C   UNL     1     -44.859  63.982 -47.965  1.00  0.00     0.020 A 
HETATM   24  C   UNL     1     -44.565  64.586 -46.742  1.00  0.00     0.038 A 
HETATM   25  C   UNL     1     -44.843  63.925 -45.542  1.00  0.00     0.068 A 
HETATM   26  C   UNL     1     -45.385  62.639 -45.568  1.00  0.00     0.038 A 
HETATM   27  C   UNL     1     -45.667  62.024 -46.793  1.00  0.00     0.020 A 
BRANCH  25  28
HETATM   28  O   UNL     1     -44.532  64.631 -44.413  1.00  0.00    -0.352 OA
BRANCH  28  29
HETATM   29  C   UNL     1     -44.599  63.909 -43.184  1.00  0.00     0.171 C 
HETATM   30  C   UNL     1     -43.186  63.777 -42.645  1.00  0.00     0.034 C 
ENDBRANCH  28  29
ENDBRANCH  25  28
ENDBRANCH   1  22
TORSDOF 5
ENDMDL
MODEL 7
REMARK VINA RESULT:      -7.5      6.831      9.214
REMARK  5 active torsions:
REMARK  status: ('A' for Active; 'I' for Inactive)
REMARK    1  A    between atoms: C_2  and  O_3 
REMARK    2  A    between atoms: O_3  and  C_4 
REMARK    3  A    between atoms: C_7  and  C_8 
REMARK       I    between atoms: C_8  and  N_9 
REMARK    4  A    between atoms: N_12  and  C_13 
REMARK    5  A    between atoms: C_17  and  C_18 
ROOT
HETATM    1  C   UNL     1     -42.492  57.657 -54.760  1.00  0.00     0.253 C 
HETATM    2  N   UNL     1     -43.281  58.194 -53.748  1.00  0.00    -0.345 N 
HETATM    3  C   UNL     1     -43.726  59.584 -53.900  1.00  0.00     0.146 C 
HETATM    4  C   UNL     1     -45.058  59.833 -53.174  1.00  0.00     0.144 C 
HETATM    5  N   UNL     1     -44.981  59.383 -51.771  1.00  0.00    -0.363 N 
HETATM    6  C   UNL     1     -44.548  57.986 -51.602  1.00  0.00     0.144 C 
HETATM    7  C   UNL     1     -43.221  57.740 -52.348  1.00  0.00     0.146 C 
HETATM    8  O   UNL     1     -42.080  58.316 -55.713  1.00  0.00    -0.267 OA
ENDROOT
BRANCH   5   9
HETATM    9  C   UNL     1     -45.291  60.216 -50.740  1.00  0.00     0.122 A 
HETATM   10  N   UNL     1     -46.328  61.113 -50.770  1.00  0.00    -0.262 N 
HETATM   11  H   UNL     1     -46.963  61.297 -51.534  1.00  0.00     0.191 HD
HETATM   12  N   UNL     1     -46.473  61.837 -49.649  1.00  0.00    -0.173 NA
HETATM   13  C   UNL     1     -45.489  61.406 -48.843  1.00  0.00     0.090 A 
HETATM   14  C   UNL     1     -44.720  60.406 -49.501  1.00  0.00     0.084 A 
BRANCH  13  15
HETATM   15  C   UNL     1     -45.306  61.947 -47.492  1.00  0.00    -0.005 A 
HETATM   16  C   UNL     1     -44.930  61.102 -46.434  1.00  0.00     0.015 A 
HETATM   17  C   UNL     1     -44.754  61.605 -45.142  1.00  0.00     0.024 A 
HETATM   18  C   UNL     1     -44.950  62.962 -44.896  1.00  0.00     0.034 A 
HETATM   19 CL   UNL     1     -44.733  63.586 -43.308  1.00  0.00    -0.084 Cl
HETATM   20  C   UNL     1     -45.318  63.817 -45.932  1.00  0.00     0.024 A 
HETATM   21  C   UNL     1     -45.495  63.311 -47.224  1.00  0.00     0.015 A 
ENDBRANCH  13  15
ENDBRANCH   5   9
BRANCH   1  22
HETATM   22  C   UNL     1     -42.188  56.206 -54.739  1.00  0.00     0.032 A 
HETATM   23  C   UNL     1     -40.932  55.742 -54.335  1.00  0.00     0.020 A 
HETATM   24  C   UNL     1     -40.689  54.370 -54.266  1.00  0.00     0.038 A 
HETATM   25  C   UNL     1     -41.706  53.456 -54.552  1.00  0.00     0.068 A 
HETATM   26  C   UNL     1     -42.964  53.919 -54.944  1.00  0.00     0.038 A 
HETATM   27  C   UNL     1     -43.208  55.294 -55.029  1.00  0.00     0.020 A 
BRANCH  25  28
HETATM   28  O   UNL     1     -41.349  52.142 -54.425  1.00  0.00    -0.352 OA
BRANCH  28  29
HETATM   29  C   UNL     1     -40.039  51.894 -53.916  1.00  0.00     0.171 C 
HETATM   30  C   UNL     1     -39.694  50.444 -54.208  1.00  0.00     0.034 C 
ENDBRANCH  28  29
ENDBRANCH  25  28
ENDBRANCH   1  22
TORSDOF 5
ENDMDL
MODEL 8
REMARK VINA RESULT:      -7.4      4.852      5.821
REMARK  5 active torsions:
REMARK  status: ('A' for Active; 'I' for Inactive)
REMARK    1  A    between atoms: C_2  and  O_3 
REMARK    2  A    between atoms: O_3  and  C_4 
REMARK    3  A    between atoms: C_7  and  C_8 
REMARK       I    between atoms: C_8  and  N_9 
REMARK    4  A    between atoms: N_12  and  C_13 
REMARK    5  A    between atoms: C_17  and  C_18 
ROOT
HETATM    1  C   UNL     1     -44.269  57.608 -51.990  1.00  0.00     0.253 C 
HETATM    2  N   UNL     1     -44.268  57.564 -53.381  1.00  0.00    -0.345 N 
HETATM    3  C   UNL     1     -45.121  58.524 -54.090  1.00  0.00     0.146 C 
HETATM    4  C   UNL     1     -44.559  58.860 -55.480  1.00  0.00     0.144 C 
HETATM    5  N   UNL     1     -44.286  57.628 -56.246  1.00  0.00    -0.363 N 
HETATM    6  C   UNL     1     -43.420  56.660 -55.553  1.00  0.00     0.144 C 
HETATM    7  C   UNL     1     -43.981  56.343 -54.152  1.00  0.00     0.146 C 
HETATM    8  O   UNL     1     -45.013  58.339 -51.341  1.00  0.00    -0.267 OA
ENDROOT
BRANCH   5   9
HETATM    9  C   UNL     1     -44.806  57.433 -57.488  1.00  0.00     0.122 A 
HETATM   10  N   UNL     1     -44.283  56.560 -58.406  1.00  0.00    -0.262 N 
HETATM   11  H   UNL     1     -43.458  55.982 -58.309  1.00  0.00     0.191 HD
HETATM   12  N   UNL     1     -44.947  56.508 -59.571  1.00  0.00    -0.173 NA
HETATM   13  C   UNL     1     -45.951  57.387 -59.422  1.00  0.00     0.090 A 
HETATM   14  C   UNL     1     -45.882  57.997 -58.138  1.00  0.00     0.084 A 
BRANCH  13  15
HETATM   15  C   UNL     1     -46.934  57.623 -60.485  1.00  0.00    -0.005 A 
HETATM   16  C   UNL     1     -47.318  58.932 -60.819  1.00  0.00     0.015 A 
HETATM   17  C   UNL     1     -48.256  59.169 -61.829  1.00  0.00     0.024 A 
HETATM   18  C   UNL     1     -48.816  58.096 -62.517  1.00  0.00     0.034 A 
HETATM   19 CL   UNL     1     -49.969  58.383 -63.761  1.00  0.00    -0.084 Cl
HETATM   20  C   UNL     1     -48.446  56.790 -62.204  1.00  0.00     0.024 A 
HETATM   21  C   UNL     1     -47.509  56.555 -61.192  1.00  0.00     0.015 A 
ENDBRANCH  13  15
ENDBRANCH   5   9
BRANCH   1  22
HETATM   22  C   UNL     1     -43.279  56.792 -51.246  1.00  0.00     0.032 A 
HETATM   23  C   UNL     1     -43.610  55.520 -50.772  1.00  0.00     0.020 A 
HETATM   24  C   UNL     1     -42.642  54.747 -50.127  1.00  0.00     0.038 A 
HETATM   25  C   UNL     1     -41.334  55.218 -49.995  1.00  0.00     0.068 A 
HETATM   26  C   UNL     1     -41.000  56.484 -50.479  1.00  0.00     0.038 A 
HETATM   27  C   UNL     1     -41.970  57.268 -51.113  1.00  0.00     0.020 A 
BRANCH  25  28
HETATM   28  O   UNL     1     -40.476  54.359 -49.366  1.00  0.00    -0.352 OA
BRANCH  28  29
HETATM   29  C   UNL     1     -40.459  53.018 -49.857  1.00  0.00     0.171 C 
HETATM   30  C   UNL     1     -39.720  53.018 -51.183  1.00  0.00     0.034 C 
ENDBRANCH  28  29
ENDBRANCH  25  28
ENDBRANCH   1  22
TORSDOF 5
ENDMDL
MODEL 9
REMARK VINA RESULT:      -7.3      4.844     10.618
REMARK  5 active torsions:
REMARK  status: ('A' for Active; 'I' for Inactive)
REMARK    1  A    between atoms: C_2  and  O_3 
REMARK    2  A    between atoms: O_3  and  C_4 
REMARK    3  A    between atoms: C_7  and  C_8 
REMARK       I    between atoms: C_8  and  N_9 
REMARK    4  A    between atoms: N_12  and  C_13 
REMARK    5  A    between atoms: C_17  and  C_18 
ROOT
HETATM    1  C   UNL     1     -44.624  59.345 -59.978  1.00  0.00     0.253 C 
HETATM    2  N   UNL     1     -44.024  58.412 -59.137  1.00  0.00    -0.345 N 
HETATM    3  C   UNL     1     -44.765  57.178 -58.853  1.00  0.00     0.146 C 
HETATM    4  C   UNL     1     -43.817  56.009 -58.544  1.00  0.00     0.144 C 
HETATM    5  N   UNL     1     -42.855  56.381 -57.488  1.00  0.00    -0.363 N 
HETATM    6  C   UNL     1     -42.094  57.611 -57.764  1.00  0.00     0.144 C 
HETATM    7  C   UNL     1     -43.051  58.774 -58.092  1.00  0.00     0.146 C 
HETATM    8  O   UNL     1     -45.769  59.222 -60.409  1.00  0.00    -0.267 OA
ENDROOT
BRANCH   5   9
HETATM    9  C   UNL     1     -42.707  55.628 -56.364  1.00  0.00     0.122 A 
HETATM   10  N   UNL     1     -43.664  55.518 -55.388  1.00  0.00    -0.262 N 
HETATM   11  H   UNL     1     -44.562  55.980 -55.349  1.00  0.00     0.191 HD
HETATM   12  N   UNL     1     -43.328  54.720 -54.363  1.00  0.00    -0.173 NA
HETATM   13  C   UNL     1     -42.095  54.285 -54.668  1.00  0.00     0.090 A 
HETATM   14  C   UNL     1     -41.669  54.848 -55.904  1.00  0.00     0.084 A 
BRANCH  13  15
HETATM   15  C   UNL     1     -41.363  53.362 -53.794  1.00  0.00    -0.005 A 
HETATM   16  C   UNL     1     -41.264  53.618 -52.416  1.00  0.00     0.015 A 
HETATM   17  C   UNL     1     -40.568  52.746 -51.574  1.00  0.00     0.024 A 
HETATM   18  C   UNL     1     -39.966  51.607 -52.102  1.00  0.00     0.034 A 
HETATM   19 CL   UNL     1     -39.109  50.531 -51.070  1.00  0.00    -0.084 Cl
HETATM   20  C   UNL     1     -40.056  51.333 -53.465  1.00  0.00     0.024 A 
HETATM   21  C   UNL     1     -40.752  52.207 -54.307  1.00  0.00     0.015 A 
ENDBRANCH  13  15
ENDBRANCH   5   9
BRANCH   1  22
HETATM   22  C   UNL     1     -43.830  60.507 -60.442  1.00  0.00     0.032 A 
HETATM   23  C   UNL     1     -43.961  61.756 -59.828  1.00  0.00     0.020 A 
HETATM   24  C   UNL     1     -43.159  62.821 -60.243  1.00  0.00     0.038 A 
HETATM   25  C   UNL     1     -42.195  62.634 -61.236  1.00  0.00     0.068 A 
HETATM   26  C   UNL     1     -42.056  61.384 -61.842  1.00  0.00     0.038 A 
HETATM   27  C   UNL     1     -42.867  60.318 -61.439  1.00  0.00     0.020 A 
BRANCH  25  28
HETATM   28  O   UNL     1     -41.458  63.746 -61.537  1.00  0.00    -0.352 OA
BRANCH  28  29
HETATM   29  C   UNL     1     -40.054  63.545 -61.696  1.00  0.00     0.171 C 
HETATM   30  C   UNL     1     -39.448  63.393 -60.312  1.00  0.00     0.034 C 
ENDBRANCH  28  29
ENDBRANCH  25  28
ENDBRANCH   1  22
TORSDOF 5
ENDMDL
MODEL 10
REMARK VINA RESULT:      -7.1      6.266      8.020
REMARK  5 active torsions:
REMARK  status: ('A' for Active; 'I' for Inactive)
REMARK    1  A    between atoms: C_2  and  O_3 
REMARK    2  A    between atoms: O_3  and  C_4 
REMARK    3  A    between atoms: C_7  and  C_8 
REMARK       I    between atoms: C_8  and  N_9 
REMARK    4  A    between atoms: N_12  and  C_13 
REMARK    5  A    between atoms: C_17  and  C_18 
ROOT
HETATM    1  C   UNL     1     -41.562  57.323 -51.549  1.00  0.00     0.253 C 
HETATM    2  N   UNL     1     -42.504  58.249 -51.988  1.00  0.00    -0.345 N 
HETATM    3  C   UNL     1     -42.444  59.600 -51.419  1.00  0.00     0.146 C 
HETATM    4  C   UNL     1     -42.994  60.650 -52.397  1.00  0.00     0.144 C 
HETATM    5  N   UNL     1     -44.336  60.265 -52.876  1.00  0.00    -0.363 N 
HETATM    6  C   UNL     1     -44.411  58.916 -53.461  1.00  0.00     0.144 C 
HETATM    7  C   UNL     1     -43.839  57.872 -52.482  1.00  0.00     0.146 C 
HETATM    8  O   UNL     1     -40.756  57.558 -50.651  1.00  0.00    -0.267 OA
ENDROOT
BRANCH   5   9
HETATM    9  C   UNL     1     -45.398  61.111 -52.770  1.00  0.00     0.122 A 
HETATM   10  N   UNL     1     -45.292  62.477 -52.820  1.00  0.00    -0.262 N 
HETATM   11  H   UNL     1     -44.450  63.028 -52.911  1.00  0.00     0.191 HD
HETATM   12  N   UNL     1     -46.458  63.132 -52.705  1.00  0.00    -0.173 NA
HETATM   13  C   UNL     1     -47.375  62.161 -52.567  1.00  0.00     0.090 A 
HETATM   14  C   UNL     1     -46.744  60.885 -52.585  1.00  0.00     0.084 A 
BRANCH  13  15
HETATM   15  C   UNL     1     -48.803  62.463 -52.424  1.00  0.00    -0.005 A 
HETATM   16  C   UNL     1     -49.244  63.359 -51.435  1.00  0.00     0.015 A 
HETATM   17  C   UNL     1     -50.603  63.652 -51.288  1.00  0.00     0.024 A 
HETATM   18  C   UNL     1     -51.534  63.054 -52.133  1.00  0.00     0.034 A 
HETATM   19 CL   UNL     1     -53.207  63.414 -51.956  1.00  0.00    -0.084 Cl
HETATM   20  C   UNL     1     -51.118  62.167 -53.122  1.00  0.00     0.024 A 
HETATM   21  C   UNL     1     -49.758  61.873 -53.267  1.00  0.00     0.015 A 
ENDBRANCH  13  15
ENDBRANCH   5   9
BRANCH   1  22
HETATM   22  C   UNL     1     -41.467  56.015 -52.240  1.00  0.00     0.032 A 
HETATM   23  C   UNL     1     -40.929  55.920 -53.526  1.00  0.00     0.020 A 
HETATM   24  C   UNL     1     -40.795  54.670 -54.132  1.00  0.00     0.038 A 
HETATM   25  C   UNL     1     -41.151  53.508 -53.443  1.00  0.00     0.068 A 
HETATM   26  C   UNL     1     -41.678  53.601 -52.153  1.00  0.00     0.038 A 
HETATM   27  C   UNL     1     -41.828  54.854 -51.548  1.00  0.00     0.020 A 
BRANCH  25  28
HETATM   28  O   UNL     1     -40.951  52.346 -54.135  1.00  0.00    -0.352 OA
BRANCH  28  29
HETATM   29  C   UNL     1     -39.788  51.598 -53.781  1.00  0.00     0.171 C 
HETATM   30  C   UNL     1     -39.903  50.228 -54.426  1.00  0.00     0.034 C 
ENDBRANCH  28  29
ENDBRANCH  25  28
ENDBRANCH   1  22
TORSDOF 5
ENDMDL
