MODEL 1
REMARK VINA RESULT:      -8.5      0.000      0.000
REMARK  6 active torsions:
REMARK  status: ('A' for Active; 'I' for Inactive)
REMARK    1  A    between atoms: C_5  and  N_6 
REMARK    2  A    between atoms: N_6  and  C_7 
REMARK    3  A    between atoms: C_7  and  C_8 
REMARK    4  A    between atoms: N_10  and  C_12 
REMARK    5  A    between atoms: C_12  and  C_13 
REMARK    6  A    between atoms: C_14  and  C_15 
ROOT
HETATM    1  C   UNL     1     -41.933  54.725 -50.859  1.00  0.00     0.031 C 
HETATM    2  C   UNL     1     -41.465  56.147 -50.538  1.00  0.00     0.241 C 
HETATM    3  N   UNL     1     -42.705  57.008 -50.681  1.00  0.00    -0.067 N 
HETATM    4  H   UNL     1     -42.882  57.462 -49.775  1.00  0.00     0.280 HD
HETATM    5  C   UNL     1     -43.873  56.096 -50.961  1.00  0.00     0.235 C 
HETATM    6  C   UNL     1     -43.400  54.748 -50.445  1.00  0.00     0.035 C 
ENDROOT
BRANCH   3   7
HETATM    7  C   UNL     1     -42.591  58.150 -51.667  1.00  0.00     0.277 C 
BRANCH   7   8
HETATM    8  C   UNL     1     -43.546  58.069 -52.803  1.00  0.00     0.016 A 
HETATM    9  C   UNL     1     -43.487  57.154 -53.907  1.00  0.00     0.102 A 
HETATM   10  N   UNL     1     -44.500  57.376 -54.751  1.00  0.00    -0.174 NA
HETATM   11  N   UNL     1     -45.230  58.343 -54.194  1.00  0.00    -0.288 N 
HETATM   12  H   UNL     1     -46.083  58.632 -54.669  1.00  0.00     0.188 HD
HETATM   13  C   UNL     1     -44.694  58.809 -53.029  1.00  0.00     0.120 A 
BRANCH   9  14
HETATM   14  C   UNL     1     -42.537  56.078 -54.171  1.00  0.00     0.072 A 
HETATM   15  C   UNL     1     -42.970  54.758 -54.322  1.00  0.00     0.132 A 
HETATM   16  F   UNL     1     -44.264  54.446 -54.148  1.00  0.00    -0.205 F 
HETATM   17  C   UNL     1     -42.080  53.728 -54.632  1.00  0.00     0.043 A 
HETATM   18  C   UNL     1     -40.725  54.010 -54.794  1.00  0.00     0.006 A 
HETATM   19  C   UNL     1     -40.269  55.318 -54.631  1.00  0.00     0.043 A 
HETATM   20  C   UNL     1     -41.171  56.338 -54.322  1.00  0.00     0.132 A 
HETATM   21  F   UNL     1     -40.683  57.571 -54.125  1.00  0.00    -0.205 F 
ENDBRANCH   9  14
ENDBRANCH   7   8
ENDBRANCH   3   7
BRANCH   1  22
HETATM   22  C   UNL     1     -41.085  53.662 -50.149  1.00  0.00     0.127 C 
BRANCH  22  23
HETATM   23  N   UNL     1     -40.003  53.180 -51.005  1.00  0.00    -0.376 N 
HETATM   24  H   UNL     1     -39.266  53.832 -51.243  1.00  0.00     0.161 HD
BRANCH  23  25
HETATM   25  C   UNL     1     -39.896  51.853 -51.374  1.00  0.00     0.101 A 
HETATM   26  N   UNL     1     -39.776  51.567 -52.684  1.00  0.00    -0.347 N 
HETATM   27  C   UNL     1     -39.667  50.320 -53.182  1.00  0.00     0.007 A 
HETATM   28  H   UNL     1     -39.771  52.345 -53.335  1.00  0.00     0.167 HD
HETATM   29  C   UNL     1     -39.545  50.136 -54.661  1.00  0.00     0.068 C 
HETATM   30  C   UNL     1     -39.674  49.236 -52.308  1.00  0.00     0.025 A 
HETATM   31  C   UNL     1     -39.798  49.467 -50.947  1.00  0.00     0.006 A 
HETATM   32  C   UNL     1     -39.914  50.776 -50.480  1.00  0.00     0.048 A 
ENDBRANCH  23  25
ENDBRANCH  22  23
ENDBRANCH   1  22
TORSDOF 6
ENDMDL
MODEL 2
REMARK VINA RESULT:      -8.4      3.420      6.703
REMARK  6 active torsions:
REMARK  status: ('A' for Active; 'I' for Inactive)
REMARK    1  A    between atoms: C_5  and  N_6 
REMARK    2  A    between atoms: N_6  and  C_7 
REMARK    3  A    between atoms: C_7  and  C_8 
REMARK    4  A    between atoms: N_10  and  C_12 
REMARK    5  A    between atoms: C_12  and  C_13 
REMARK    6  A    between atoms: C_14  and  C_15 
ROOT
HETATM    1  C   UNL     1     -42.279  58.616 -55.460  1.00  0.00     0.031 C 
HETATM    2  C   UNL     1     -42.953  57.718 -54.418  1.00  0.00     0.241 C 
HETATM    3  N   UNL     1     -42.205  57.989 -53.126  1.00  0.00    -0.067 N 
HETATM    4  H   UNL     1     -42.881  58.345 -52.437  1.00  0.00     0.280 HD
HETATM    5  C   UNL     1     -41.210  59.092 -53.389  1.00  0.00     0.235 C 
HETATM    6  C   UNL     1     -41.766  59.782 -54.623  1.00  0.00     0.035 C 
ENDROOT
BRANCH   3   7
HETATM    7  C   UNL     1     -41.589  56.774 -52.467  1.00  0.00     0.277 C 
BRANCH   7   8
HETATM    8  C   UNL     1     -42.577  55.857 -51.842  1.00  0.00     0.016 A 
HETATM    9  C   UNL     1     -42.537  54.422 -51.848  1.00  0.00     0.102 A 
HETATM   10  N   UNL     1     -43.597  53.923 -51.204  1.00  0.00    -0.174 NA
HETATM   11  N   UNL     1     -44.266  54.977 -50.736  1.00  0.00    -0.288 N 
HETATM   12  H   UNL     1     -45.096  54.805 -50.172  1.00  0.00     0.188 HD
HETATM   13  C   UNL     1     -43.707  56.167 -51.105  1.00  0.00     0.120 A 
BRANCH   9  14
HETATM   14  C   UNL     1     -41.531  53.525 -52.408  1.00  0.00     0.072 A 
HETATM   15  C   UNL     1     -40.552  52.945 -51.596  1.00  0.00     0.132 A 
HETATM   16  F   UNL     1     -40.475  53.268 -50.295  1.00  0.00    -0.205 F 
HETATM   17  C   UNL     1     -39.621  52.040 -52.107  1.00  0.00     0.043 A 
HETATM   18  C   UNL     1     -39.655  51.701 -53.458  1.00  0.00     0.006 A 
HETATM   19  C   UNL     1     -40.612  52.280 -54.289  1.00  0.00     0.043 A 
HETATM   20  C   UNL     1     -41.539  53.184 -53.764  1.00  0.00     0.132 A 
HETATM   21  F   UNL     1     -42.410  53.755 -54.609  1.00  0.00    -0.205 F 
ENDBRANCH   9  14
ENDBRANCH   7   8
ENDBRANCH   3   7
BRANCH   1  22
HETATM   22  C   UNL     1     -43.237  59.012 -56.589  1.00  0.00     0.127 C 
BRANCH  22  23
HETATM   23  N   UNL     1     -44.223  57.965 -56.849  1.00  0.00    -0.376 N 
HETATM   24  H   UNL     1     -45.015  57.900 -56.222  1.00  0.00     0.161 HD
BRANCH  23  25
HETATM   25  C   UNL     1     -44.170  57.172 -57.978  1.00  0.00     0.101 A 
HETATM   26  N   UNL     1     -45.305  56.986 -58.677  1.00  0.00    -0.347 N 
HETATM   27  C   UNL     1     -45.397  56.235 -59.792  1.00  0.00     0.007 A 
HETATM   28  H   UNL     1     -46.146  57.440 -58.335  1.00  0.00     0.167 HD
HETATM   29  C   UNL     1     -46.721  56.104 -60.473  1.00  0.00     0.068 C 
HETATM   30  C   UNL     1     -44.258  55.599 -60.278  1.00  0.00     0.025 A 
HETATM   31  C   UNL     1     -43.058  55.750 -59.600  1.00  0.00     0.006 A 
HETATM   32  C   UNL     1     -43.015  56.533 -58.447  1.00  0.00     0.048 A 
ENDBRANCH  23  25
ENDBRANCH  22  23
ENDBRANCH   1  22
TORSDOF 6
ENDMDL
MODEL 3
REMARK VINA RESULT:      -8.4      2.969      6.619
REMARK  6 active torsions:
REMARK  status: ('A' for Active; 'I' for Inactive)
REMARK    1  A    between atoms: C_5  and  N_6 
REMARK    2  A    between atoms: N_6  and  C_7 
REMARK    3  A    between atoms: C_7  and  C_8 
REMARK    4  A    between atoms: N_10  and  C_12 
REMARK    5  A    between atoms: C_12  and  C_13 
REMARK    6  A    between atoms: C_14  and  C_15 
ROOT
HETATM    1  C   UNL     1     -42.450  56.691 -53.399  1.00  0.00     0.031 C 
HETATM    2  C   UNL     1     -42.804  55.205 -53.505  1.00  0.00     0.241 C 
HETATM    3  N   UNL     1     -43.572  54.894 -52.235  1.00  0.00    -0.067 N 
HETATM    4  H   UNL     1     -44.508  54.562 -52.504  1.00  0.00     0.280 HD
HETATM    5  C   UNL     1     -43.756  56.185 -51.477  1.00  0.00     0.235 C 
HETATM    6  C   UNL     1     -43.583  57.250 -52.546  1.00  0.00     0.035 C 
ENDROOT
BRANCH   3   7
HETATM    7  C   UNL     1     -42.999  53.780 -51.387  1.00  0.00     0.277 C 
BRANCH   7   8
HETATM    8  C   UNL     1     -41.686  54.103 -50.769  1.00  0.00     0.016 A 
HETATM    9  C   UNL     1     -40.464  53.366 -50.920  1.00  0.00     0.102 A 
HETATM   10  N   UNL     1     -39.485  53.935 -50.208  1.00  0.00    -0.174 NA
HETATM   11  N   UNL     1     -40.019  55.033 -49.671  1.00  0.00    -0.288 N 
HETATM   12  H   UNL     1     -39.415  55.637 -49.118  1.00  0.00     0.188 HD
HETATM   13  C   UNL     1     -41.345  55.175 -49.961  1.00  0.00     0.120 A 
BRANCH   9  14
HETATM   14  C   UNL     1     -40.190  52.179 -51.724  1.00  0.00     0.072 A 
HETATM   15  C   UNL     1     -40.027  52.271 -53.109  1.00  0.00     0.132 A 
HETATM   16  F   UNL     1     -40.198  53.447 -53.734  1.00  0.00    -0.205 F 
HETATM   17  C   UNL     1     -39.707  51.154 -53.883  1.00  0.00     0.043 A 
HETATM   18  C   UNL     1     -39.547  49.912 -53.271  1.00  0.00     0.006 A 
HETATM   19  C   UNL     1     -39.721  49.795 -51.893  1.00  0.00     0.043 A 
HETATM   20  C   UNL     1     -40.041  50.922 -51.131  1.00  0.00     0.132 A 
HETATM   21  F   UNL     1     -40.249  50.755 -49.818  1.00  0.00    -0.205 F 
ENDBRANCH   9  14
ENDBRANCH   7   8
ENDBRANCH   3   7
BRANCH   1  22
HETATM   22  C   UNL     1     -42.299  57.351 -54.775  1.00  0.00     0.127 C 
BRANCH  22  23
HETATM   23  N   UNL     1     -43.359  56.931 -55.689  1.00  0.00    -0.376 N 
HETATM   24  H   UNL     1     -44.286  56.800 -55.306  1.00  0.00     0.161 HD
BRANCH  23  25
HETATM   25  C   UNL     1     -43.158  56.842 -57.053  1.00  0.00     0.101 A 
HETATM   26  N   UNL     1     -43.767  55.845 -57.721  1.00  0.00    -0.347 N 
HETATM   27  C   UNL     1     -43.655  55.640 -59.048  1.00  0.00     0.007 A 
HETATM   28  H   UNL     1     -44.345  55.206 -57.184  1.00  0.00     0.167 HD
HETATM   29  C   UNL     1     -44.381  54.489 -59.669  1.00  0.00     0.068 C 
HETATM   30  C   UNL     1     -42.866  56.501 -59.804  1.00  0.00     0.025 A 
HETATM   31  C   UNL     1     -42.210  57.546 -59.172  1.00  0.00     0.006 A 
HETATM   32  C   UNL     1     -42.352  57.714 -57.796  1.00  0.00     0.048 A 
ENDBRANCH  23  25
ENDBRANCH  22  23
ENDBRANCH   1  22
TORSDOF 6
ENDMDL
MODEL 4
REMARK VINA RESULT:      -8.3      3.467      7.409
REMARK  6 active torsions:
REMARK  status: ('A' for Active; 'I' for Inactive)
REMARK    1  A    between atoms: C_5  and  N_6 
REMARK    2  A    between atoms: N_6  and  C_7 
REMARK    3  A    between atoms: C_7  and  C_8 
REMARK    4  A    between atoms: N_10  and  C_12 
REMARK    5  A    between atoms: C_12  and  C_13 
REMARK    6  A    between atoms: C_14  and  C_15 
ROOT
HETATM    1  C   UNL     1     -42.318  54.974 -55.365  1.00  0.00     0.031 C 
HETATM    2  C   UNL     1     -43.378  54.499 -54.367  1.00  0.00     0.241 C 
HETATM    3  N   UNL     1     -42.895  54.995 -53.018  1.00  0.00    -0.067 N 
HETATM    4  H   UNL     1     -43.617  55.619 -52.632  1.00  0.00     0.280 HD
HETATM    5  C   UNL     1     -41.659  55.829 -53.246  1.00  0.00     0.235 C 
HETATM    6  C   UNL     1     -41.771  56.235 -54.706  1.00  0.00     0.035 C 
ENDROOT
BRANCH   3   7
HETATM    7  C   UNL     1     -42.707  53.927 -51.963  1.00  0.00     0.277 C 
BRANCH   7   8
HETATM    8  C   UNL     1     -41.487  54.103 -51.132  1.00  0.00     0.016 A 
HETATM    9  C   UNL     1     -40.330  53.254 -51.120  1.00  0.00     0.102 A 
HETATM   10  N   UNL     1     -39.431  53.705 -50.239  1.00  0.00    -0.174 NA
HETATM   11  N   UNL     1     -39.940  54.834 -49.746  1.00  0.00    -0.288 N 
HETATM   12  H   UNL     1     -39.380  55.361 -49.079  1.00  0.00     0.188 HD
HETATM   13  C   UNL     1     -41.184  55.113 -50.235  1.00  0.00     0.120 A 
BRANCH   9  14
HETATM   14  C   UNL     1     -40.041  52.069 -51.921  1.00  0.00     0.072 A 
HETATM   15  C   UNL     1     -39.922  50.810 -51.325  1.00  0.00     0.132 A 
HETATM   16  F   UNL     1     -39.995  50.684 -49.990  1.00  0.00    -0.205 F 
HETATM   17  C   UNL     1     -39.704  49.660 -52.085  1.00  0.00     0.043 A 
HETATM   18  C   UNL     1     -39.597  49.756 -53.471  1.00  0.00     0.006 A 
HETATM   19  C   UNL     1     -39.696  51.004 -54.084  1.00  0.00     0.043 A 
HETATM   20  C   UNL     1     -39.915  52.147 -53.311  1.00  0.00     0.132 A 
HETATM   21  F   UNL     1     -39.953  53.332 -53.937  1.00  0.00    -0.205 F 
ENDBRANCH   9  14
ENDBRANCH   7   8
ENDBRANCH   3   7
BRANCH   1  22
HETATM   22  C   UNL     1     -42.898  55.186 -56.769  1.00  0.00     0.127 C 
BRANCH  22  23
HETATM   23  N   UNL     1     -42.412  56.427 -57.367  1.00  0.00    -0.376 N 
HETATM   24  H   UNL     1     -41.476  56.729 -57.130  1.00  0.00     0.161 HD
BRANCH  23  25
HETATM   25  C   UNL     1     -43.132  57.108 -58.330  1.00  0.00     0.101 A 
HETATM   26  N   UNL     1     -44.444  56.833 -58.454  1.00  0.00    -0.347 N 
HETATM   27  C   UNL     1     -45.261  57.419 -59.351  1.00  0.00     0.007 A 
HETATM   28  H   UNL     1     -44.838  56.136 -57.831  1.00  0.00     0.167 HD
HETATM   29  C   UNL     1     -46.702  57.019 -59.391  1.00  0.00     0.068 C 
HETATM   30  C   UNL     1     -44.744  58.376 -60.218  1.00  0.00     0.025 A 
HETATM   31  C   UNL     1     -43.398  58.700 -60.141  1.00  0.00     0.006 A 
HETATM   32  C   UNL     1     -42.591  58.063 -59.199  1.00  0.00     0.048 A 
ENDBRANCH  23  25
ENDBRANCH  22  23
ENDBRANCH   1  22
TORSDOF 6
ENDMDL
MODEL 5
REMARK VINA RESULT:      -8.2      2.105      3.836
REMARK  6 active torsions:
REMARK  status: ('A' for Active; 'I' for Inactive)
REMARK    1  A    between atoms: C_5  and  N_6 
REMARK    2  A    between atoms: N_6  and  C_7 
REMARK    3  A    between atoms: C_7  and  C_8 
REMARK    4  A    between atoms: N_10  and  C_12 
REMARK    5  A    between atoms: C_12  and  C_13 
REMARK    6  A    between atoms: C_14  and  C_15 
ROOT
HETATM    1  C   UNL     1     -42.317  55.433 -53.018  1.00  0.00     0.031 C 
HETATM    2  C   UNL     1     -43.425  56.230 -52.323  1.00  0.00     0.241 C 
HETATM    3  N   UNL     1     -44.373  56.635 -53.435  1.00  0.00    -0.067 N 
HETATM    4  H   UNL     1     -45.298  56.236 -53.225  1.00  0.00     0.280 HD
HETATM    5  C   UNL     1     -43.890  55.993 -54.712  1.00  0.00     0.235 C 
HETATM    6  C   UNL     1     -43.033  54.837 -54.225  1.00  0.00     0.035 C 
ENDROOT
BRANCH   3   7
HETATM    7  C   UNL     1     -44.617  58.121 -53.570  1.00  0.00     0.277 C 
BRANCH   7   8
HETATM    8  C   UNL     1     -43.644  58.819 -54.450  1.00  0.00     0.016 A 
HETATM    9  C   UNL     1     -42.408  59.428 -54.047  1.00  0.00     0.102 A 
HETATM   10  N   UNL     1     -41.794  59.978 -55.100  1.00  0.00    -0.174 NA
HETATM   11  N   UNL     1     -42.553  59.684 -56.156  1.00  0.00    -0.288 N 
HETATM   12  H   UNL     1     -42.231  59.983 -57.074  1.00  0.00     0.188 HD
HETATM   13  C   UNL     1     -43.688  59.003 -55.821  1.00  0.00     0.120 A 
BRANCH   9  14
HETATM   14  C   UNL     1     -41.787  59.480 -52.727  1.00  0.00     0.072 A 
HETATM   15  C   UNL     1     -42.303  60.304 -51.722  1.00  0.00     0.132 A 
HETATM   16  F   UNL     1     -43.336  61.122 -51.981  1.00  0.00    -0.205 F 
HETATM   17  C   UNL     1     -41.756  60.320 -50.438  1.00  0.00     0.043 A 
HETATM   18  C   UNL     1     -40.667  59.503 -50.140  1.00  0.00     0.006 A 
HETATM   19  C   UNL     1     -40.127  58.686 -51.132  1.00  0.00     0.043 A 
HETATM   20  C   UNL     1     -40.685  58.680 -52.413  1.00  0.00     0.132 A 
HETATM   21  F   UNL     1     -40.103  57.918 -53.349  1.00  0.00    -0.205 F 
ENDBRANCH   9  14
ENDBRANCH   7   8
ENDBRANCH   3   7
BRANCH   1  22
HETATM   22  C   UNL     1     -41.671  54.403 -52.084  1.00  0.00     0.127 C 
BRANCH  22  23
HETATM   23  N   UNL     1     -40.402  53.915 -52.620  1.00  0.00    -0.376 N 
HETATM   24  H   UNL     1     -39.636  54.573 -52.686  1.00  0.00     0.161 HD
BRANCH  23  25
HETATM   25  C   UNL     1     -40.190  52.579 -52.903  1.00  0.00     0.101 A 
HETATM   26  N   UNL     1     -39.890  51.754 -51.882  1.00  0.00    -0.347 N 
HETATM   27  C   UNL     1     -39.656  50.435 -52.017  1.00  0.00     0.007 A 
HETATM   28  H   UNL     1     -39.833  52.159 -50.954  1.00  0.00     0.167 HD
HETATM   29  C   UNL     1     -39.325  49.628 -50.802  1.00  0.00     0.068 C 
HETATM   30  C   UNL     1     -39.724  49.858 -53.282  1.00  0.00     0.025 A 
HETATM   31  C   UNL     1     -40.026  50.657 -54.373  1.00  0.00     0.006 A 
HETATM   32  C   UNL     1     -40.255  52.019 -54.185  1.00  0.00     0.048 A 
ENDBRANCH  23  25
ENDBRANCH  22  23
ENDBRANCH   1  22
TORSDOF 6
ENDMDL
MODEL 6
REMARK VINA RESULT:      -8.1      3.428      6.881
REMARK  6 active torsions:
REMARK  status: ('A' for Active; 'I' for Inactive)
REMARK    1  A    between atoms: C_5  and  N_6 
REMARK    2  A    between atoms: N_6  and  C_7 
REMARK    3  A    between atoms: C_7  and  C_8 
REMARK    4  A    between atoms: N_10  and  C_12 
REMARK    5  A    between atoms: C_12  and  C_13 
REMARK    6  A    between atoms: C_14  and  C_15 
ROOT
HETATM    1  C   UNL     1     -43.478  57.123 -54.863  1.00  0.00     0.031 C 
HETATM    2  C   UNL     1     -43.043  57.836 -53.579  1.00  0.00     0.241 C 
HETATM    3  N   UNL     1     -41.629  57.351 -53.323  1.00  0.00    -0.067 N 
HETATM    4  H   UNL     1     -41.007  58.170 -53.324  1.00  0.00     0.280 HD
HETATM    5  C   UNL     1     -41.221  56.478 -54.484  1.00  0.00     0.235 C 
HETATM    6  C   UNL     1     -42.160  56.910 -55.598  1.00  0.00     0.035 C 
ENDROOT
BRANCH   3   7
HETATM    7  C   UNL     1     -41.402  56.698 -51.978  1.00  0.00     0.277 C 
BRANCH   7   8
HETATM    8  C   UNL     1     -42.487  55.770 -51.562  1.00  0.00     0.016 A 
HETATM    9  C   UNL     1     -42.520  54.349 -51.758  1.00  0.00     0.102 A 
HETATM   10  N   UNL     1     -43.656  53.838 -51.273  1.00  0.00    -0.174 NA
HETATM   11  N   UNL     1     -44.308  54.862 -50.722  1.00  0.00    -0.288 N 
HETATM   12  H   UNL     1     -45.192  54.671 -50.254  1.00  0.00     0.188 HD
HETATM   13  C   UNL     1     -43.659  56.053 -50.881  1.00  0.00     0.120 A 
BRANCH   9  14
HETATM   14  C   UNL     1     -41.517  53.471 -52.352  1.00  0.00     0.072 A 
HETATM   15  C   UNL     1     -40.470  52.952 -51.584  1.00  0.00     0.132 A 
HETATM   16  F   UNL     1     -40.326  53.319 -50.301  1.00  0.00    -0.205 F 
HETATM   17  C   UNL     1     -39.537  52.066 -52.125  1.00  0.00     0.043 A 
HETATM   18  C   UNL     1     -39.641  51.682 -53.460  1.00  0.00     0.006 A 
HETATM   19  C   UNL     1     -40.668  52.200 -54.248  1.00  0.00     0.043 A 
HETATM   20  C   UNL     1     -41.594  53.087 -53.694  1.00  0.00     0.132 A 
HETATM   21  F   UNL     1     -42.535  53.599 -54.500  1.00  0.00    -0.205 F 
ENDBRANCH   9  14
ENDBRANCH   7   8
ENDBRANCH   3   7
BRANCH   1  22
HETATM   22  C   UNL     1     -44.523  57.928 -55.646  1.00  0.00     0.127 C 
BRANCH  22  23
HETATM   23  N   UNL     1     -44.177  58.021 -57.062  1.00  0.00    -0.376 N 
HETATM   24  H   UNL     1     -43.259  58.374 -57.300  1.00  0.00     0.161 HD
BRANCH  23  25
HETATM   25  C   UNL     1     -45.002  57.525 -58.053  1.00  0.00     0.101 A 
HETATM   26  N   UNL     1     -44.574  56.464 -58.763  1.00  0.00    -0.347 N 
HETATM   27  C   UNL     1     -45.273  55.883 -59.757  1.00  0.00     0.007 A 
HETATM   28  H   UNL     1     -43.663  56.082 -58.532  1.00  0.00     0.167 HD
HETATM   29  C   UNL     1     -44.682  54.712 -60.473  1.00  0.00     0.068 C 
HETATM   30  C   UNL     1     -46.525  56.391 -60.094  1.00  0.00     0.025 A 
HETATM   31  C   UNL     1     -47.019  57.486 -59.401  1.00  0.00     0.006 A 
HETATM   32  C   UNL     1     -46.255  58.055 -58.383  1.00  0.00     0.048 A 
ENDBRANCH  23  25
ENDBRANCH  22  23
ENDBRANCH   1  22
TORSDOF 6
ENDMDL
MODEL 7
REMARK VINA RESULT:      -8.1      3.988      4.956
REMARK  6 active torsions:
REMARK  status: ('A' for Active; 'I' for Inactive)
REMARK    1  A    between atoms: C_5  and  N_6 
REMARK    2  A    between atoms: N_6  and  C_7 
REMARK    3  A    between atoms: C_7  and  C_8 
REMARK    4  A    between atoms: N_10  and  C_12 
REMARK    5  A    between atoms: C_12  and  C_13 
REMARK    6  A    between atoms: C_14  and  C_15 
ROOT
HETATM    1  C   UNL     1     -42.125  55.201 -54.131  1.00  0.00     0.031 C 
HETATM    2  C   UNL     1     -43.559  55.725 -54.250  1.00  0.00     0.241 C 
HETATM    3  N   UNL     1     -43.724  56.084 -55.715  1.00  0.00    -0.067 N 
HETATM    4  H   UNL     1     -44.494  55.518 -56.096  1.00  0.00     0.280 HD
HETATM    5  C   UNL     1     -42.466  55.670 -56.437  1.00  0.00     0.235 C 
HETATM    6  C   UNL     1     -41.857  54.626 -55.517  1.00  0.00     0.035 C 
ENDROOT
BRANCH   3   7
HETATM    7  C   UNL     1     -44.126  57.516 -55.991  1.00  0.00     0.277 C 
BRANCH   7   8
HETATM    8  C   UNL     1     -43.309  58.185 -57.037  1.00  0.00     0.016 A 
HETATM    9  C   UNL     1     -43.416  57.998 -58.456  1.00  0.00     0.102 A 
HETATM   10  N   UNL     1     -42.512  58.749 -59.094  1.00  0.00    -0.174 NA
HETATM   11  N   UNL     1     -41.888  59.449 -58.146  1.00  0.00    -0.288 N 
HETATM   12  H   UNL     1     -41.181  60.121 -58.435  1.00  0.00     0.188 HD
HETATM   13  C   UNL     1     -42.315  59.137 -56.888  1.00  0.00     0.120 A 
BRANCH   9  14
HETATM   14  C   UNL     1     -44.347  57.170 -59.215  1.00  0.00     0.072 A 
HETATM   15  C   UNL     1     -45.700  57.509 -59.308  1.00  0.00     0.132 A 
HETATM   16  F   UNL     1     -46.181  58.564 -58.632  1.00  0.00    -0.205 F 
HETATM   17  C   UNL     1     -46.590  56.759 -60.078  1.00  0.00     0.043 A 
HETATM   18  C   UNL     1     -46.132  55.642 -60.773  1.00  0.00     0.006 A 
HETATM   19  C   UNL     1     -44.790  55.276 -60.682  1.00  0.00     0.043 A 
HETATM   20  C   UNL     1     -43.910  56.036 -59.907  1.00  0.00     0.132 A 
HETATM   21  F   UNL     1     -42.639  55.621 -59.807  1.00  0.00    -0.205 F 
ENDBRANCH   9  14
ENDBRANCH   7   8
ENDBRANCH   3   7
BRANCH   1  22
HETATM   22  C   UNL     1     -41.970  54.198 -52.981  1.00  0.00     0.127 C 
BRANCH  22  23
HETATM   23  N   UNL     1     -40.598  53.705 -52.882  1.00  0.00    -0.376 N 
HETATM   24  H   UNL     1     -39.885  54.357 -52.578  1.00  0.00     0.161 HD
BRANCH  23  25
HETATM   25  C   UNL     1     -40.283  52.372 -53.056  1.00  0.00     0.101 A 
HETATM   26  N   UNL     1     -39.963  51.647 -51.968  1.00  0.00    -0.347 N 
HETATM   27  C   UNL     1     -39.632  50.341 -51.995  1.00  0.00     0.007 A 
HETATM   28  H   UNL     1     -39.969  52.121 -51.071  1.00  0.00     0.167 HD
HETATM   29  C   UNL     1     -39.291  49.651 -50.713  1.00  0.00     0.068 C 
HETATM   30  C   UNL     1     -39.614  49.670 -53.215  1.00  0.00     0.025 A 
HETATM   31  C   UNL     1     -39.931  50.364 -54.372  1.00  0.00     0.006 A 
HETATM   32  C   UNL     1     -40.261  51.716 -54.294  1.00  0.00     0.048 A 
ENDBRANCH  23  25
ENDBRANCH  22  23
ENDBRANCH   1  22
TORSDOF 6
ENDMDL
MODEL 8
REMARK VINA RESULT:      -7.8      4.332      5.187
REMARK  6 active torsions:
REMARK  status: ('A' for Active; 'I' for Inactive)
REMARK    1  A    between atoms: C_5  and  N_6 
REMARK    2  A    between atoms: N_6  and  C_7 
REMARK    3  A    between atoms: C_7  and  C_8 
REMARK    4  A    between atoms: N_10  and  C_12 
REMARK    5  A    between atoms: C_12  and  C_13 
REMARK    6  A    between atoms: C_14  and  C_15 
ROOT
HETATM    1  C   UNL     1     -43.189  56.126 -54.252  1.00  0.00     0.031 C 
HETATM    2  C   UNL     1     -43.251  56.327 -55.769  1.00  0.00     0.241 C 
HETATM    3  N   UNL     1     -42.553  57.651 -56.017  1.00  0.00    -0.067 N 
HETATM    4  H   UNL     1     -41.750  57.476 -56.636  1.00  0.00     0.280 HD
HETATM    5  C   UNL     1     -42.005  58.140 -54.700  1.00  0.00     0.235 C 
HETATM    6  C   UNL     1     -41.920  56.876 -53.861  1.00  0.00     0.035 C 
ENDROOT
BRANCH   3   7
HETATM    7  C   UNL     1     -43.377  58.691 -56.743  1.00  0.00     0.277 C 
BRANCH   7   8
HETATM    8  C   UNL     1     -42.840  59.069 -58.077  1.00  0.00     0.016 A 
HETATM    9  C   UNL     1     -43.115  58.419 -59.326  1.00  0.00     0.102 A 
HETATM   10  N   UNL     1     -42.448  59.016 -60.319  1.00  0.00    -0.174 NA
HETATM   11  N   UNL     1     -41.819  60.051 -59.762  1.00  0.00    -0.288 N 
HETATM   12  H   UNL     1     -41.281  60.666 -60.369  1.00  0.00     0.188 HD
HETATM   13  C   UNL     1     -42.005  60.121 -58.412  1.00  0.00     0.120 A 
BRANCH   9  14
HETATM   14  C   UNL     1     -43.996  57.290 -59.610  1.00  0.00     0.072 A 
HETATM   15  C   UNL     1     -45.382  57.459 -59.679  1.00  0.00     0.132 A 
HETATM   16  F   UNL     1     -45.932  58.653 -59.406  1.00  0.00    -0.205 F 
HETATM   17  C   UNL     1     -46.232  56.402 -60.007  1.00  0.00     0.043 A 
HETATM   18  C   UNL     1     -45.698  55.142 -60.272  1.00  0.00     0.006 A 
HETATM   19  C   UNL     1     -44.320  54.948 -60.192  1.00  0.00     0.043 A 
HETATM   20  C   UNL     1     -43.481  56.015 -59.863  1.00  0.00     0.132 A 
HETATM   21  F   UNL     1     -42.168  55.772 -59.749  1.00  0.00    -0.205 F 
ENDBRANCH   9  14
ENDBRANCH   7   8
ENDBRANCH   3   7
BRANCH   1  22
HETATM   22  C   UNL     1     -43.200  54.643 -53.863  1.00  0.00     0.127 C 
BRANCH  22  23
HETATM   23  N   UNL     1     -42.088  53.919 -54.475  1.00  0.00    -0.376 N 
HETATM   24  H   UNL     1     -41.904  54.084 -55.457  1.00  0.00     0.161 HD
BRANCH  23  25
HETATM   25  C   UNL     1     -41.222  53.140 -53.733  1.00  0.00     0.101 A 
HETATM   26  N   UNL     1     -40.770  51.997 -54.280  1.00  0.00    -0.347 N 
HETATM   27  C   UNL     1     -39.927  51.143 -53.666  1.00  0.00     0.007 A 
HETATM   28  H   UNL     1     -41.090  51.765 -55.214  1.00  0.00     0.167 HD
HETATM   29  C   UNL     1     -39.503  49.901 -54.382  1.00  0.00     0.068 C 
HETATM   30  C   UNL     1     -39.476  51.438 -52.383  1.00  0.00     0.025 A 
HETATM   31  C   UNL     1     -39.910  52.601 -51.765  1.00  0.00     0.006 A 
HETATM   32  C   UNL     1     -40.787  53.450 -52.438  1.00  0.00     0.048 A 
ENDBRANCH  23  25
ENDBRANCH  22  23
ENDBRANCH   1  22
TORSDOF 6
ENDMDL
MODEL 9
REMARK VINA RESULT:      -7.7      3.742      7.801
REMARK  6 active torsions:
REMARK  status: ('A' for Active; 'I' for Inactive)
REMARK    1  A    between atoms: C_5  and  N_6 
REMARK    2  A    between atoms: N_6  and  C_7 
REMARK    3  A    between atoms: C_7  and  C_8 
REMARK    4  A    between atoms: N_10  and  C_12 
REMARK    5  A    between atoms: C_12  and  C_13 
REMARK    6  A    between atoms: C_14  and  C_15 
ROOT
HETATM    1  C   UNL     1     -42.331  60.112 -51.200  1.00  0.00     0.031 C 
HETATM    2  C   UNL     1     -42.949  58.819 -51.739  1.00  0.00     0.241 C 
HETATM    3  N   UNL     1     -41.844  57.785 -51.638  1.00  0.00    -0.067 N 
HETATM    4  H   UNL     1     -42.173  57.027 -51.025  1.00  0.00     0.280 HD
HETATM    5  C   UNL     1     -40.665  58.433 -50.955  1.00  0.00     0.235 C 
HETATM    6  C   UNL     1     -41.286  59.605 -50.214  1.00  0.00     0.035 C 
ENDROOT
BRANCH   3   7
HETATM    7  C   UNL     1     -41.478  57.098 -52.935  1.00  0.00     0.277 C 
BRANCH   7   8
HETATM    8  C   UNL     1     -42.536  56.198 -53.464  1.00  0.00     0.016 A 
HETATM    9  C   UNL     1     -42.545  54.763 -53.411  1.00  0.00     0.102 A 
HETATM   10  N   UNL     1     -43.645  54.282 -53.998  1.00  0.00    -0.174 NA
HETATM   11  N   UNL     1     -44.361  55.348 -54.357  1.00  0.00    -0.288 N 
HETATM   12  H   UNL     1     -45.269  55.192 -54.790  1.00  0.00     0.188 HD
HETATM   13  C   UNL     1     -43.733  56.528 -54.076  1.00  0.00     0.120 A 
BRANCH   9  14
HETATM   14  C   UNL     1     -41.577  53.851 -52.809  1.00  0.00     0.072 A 
HETATM   15  C   UNL     1     -41.489  53.710 -51.422  1.00  0.00     0.132 A 
HETATM   16  F   UNL     1     -42.244  54.473 -50.615  1.00  0.00    -0.205 F 
HETATM   17  C   UNL     1     -40.609  52.799 -50.834  1.00  0.00     0.043 A 
HETATM   18  C   UNL     1     -39.793  52.009 -51.640  1.00  0.00     0.006 A 
HETATM   19  C   UNL     1     -39.852  52.146 -53.026  1.00  0.00     0.043 A 
HETATM   20  C   UNL     1     -40.738  53.061 -53.600  1.00  0.00     0.132 A 
HETATM   21  F   UNL     1     -40.727  53.196 -54.934  1.00  0.00    -0.205 F 
ENDBRANCH   9  14
ENDBRANCH   7   8
ENDBRANCH   3   7
BRANCH   1  22
HETATM   22  C   UNL     1     -43.383  61.048 -50.593  1.00  0.00     0.127 C 
BRANCH  22  23
HETATM   23  N   UNL     1     -44.213  60.355 -49.610  1.00  0.00    -0.376 N 
HETATM   24  H   UNL     1     -44.203  59.342 -49.616  1.00  0.00     0.161 HD
BRANCH  23  25
HETATM   25  C   UNL     1     -44.887  61.031 -48.611  1.00  0.00     0.101 A 
HETATM   26  N   UNL     1     -44.530  60.797 -47.334  1.00  0.00    -0.347 N 
HETATM   27  C   UNL     1     -45.105  61.384 -46.266  1.00  0.00     0.007 A 
HETATM   28  H   UNL     1     -43.781  60.133 -47.171  1.00  0.00     0.167 HD
HETATM   29  C   UNL     1     -44.619  61.033 -44.896  1.00  0.00     0.068 C 
HETATM   30  C   UNL     1     -46.137  62.296 -46.465  1.00  0.00     0.025 A 
HETATM   31  C   UNL     1     -46.551  62.576 -47.759  1.00  0.00     0.006 A 
HETATM   32  C   UNL     1     -45.929  61.940 -48.832  1.00  0.00     0.048 A 
ENDBRANCH  23  25
ENDBRANCH  22  23
ENDBRANCH   1  22
TORSDOF 6
ENDMDL
MODEL 10
REMARK VINA RESULT:      -7.6      3.427      6.965
REMARK  6 active torsions:
REMARK  status: ('A' for Active; 'I' for Inactive)
REMARK    1  A    between atoms: C_5  and  N_6 
REMARK    2  A    between atoms: N_6  and  C_7 
REMARK    3  A    between atoms: C_7  and  C_8 
REMARK    4  A    between atoms: N_10  and  C_12 
REMARK    5  A    between atoms: C_12  and  C_13 
REMARK    6  A    between atoms: C_14  and  C_15 
ROOT
HETATM    1  C   UNL     1     -42.709  55.980 -55.384  1.00  0.00     0.031 C 
HETATM    2  C   UNL     1     -41.411  56.121 -54.583  1.00  0.00     0.241 C 
HETATM    3  N   UNL     1     -41.320  54.851 -53.759  1.00  0.00    -0.067 N 
HETATM    4  H   UNL     1     -40.450  54.367 -54.017  1.00  0.00     0.280 HD
HETATM    5  C   UNL     1     -42.467  53.956 -54.159  1.00  0.00     0.235 C 
HETATM    6  C   UNL     1     -42.853  54.470 -55.535  1.00  0.00     0.035 C 
ENDROOT
BRANCH   3   7
HETATM    7  C   UNL     1     -41.217  55.055 -52.263  1.00  0.00     0.277 C 
BRANCH   7   8
HETATM    8  C   UNL     1     -42.529  55.167 -51.574  1.00  0.00     0.016 A 
HETATM    9  C   UNL     1     -43.269  56.373 -51.332  1.00  0.00     0.102 A 
HETATM   10  N   UNL     1     -44.399  56.102 -50.672  1.00  0.00    -0.174 NA
HETATM   11  N   UNL     1     -44.436  54.775 -50.547  1.00  0.00    -0.288 N 
HETATM   12  H   UNL     1     -45.252  54.358 -50.102  1.00  0.00     0.188 HD
HETATM   13  C   UNL     1     -43.328  54.162 -51.057  1.00  0.00     0.120 A 
BRANCH   9  14
HETATM   14  C   UNL     1     -42.960  57.745 -51.723  1.00  0.00     0.072 A 
HETATM   15  C   UNL     1     -43.702  58.394 -52.714  1.00  0.00     0.132 A 
HETATM   16  F   UNL     1     -44.664  57.735 -53.380  1.00  0.00    -0.205 F 
HETATM   17  C   UNL     1     -43.456  59.724 -53.057  1.00  0.00     0.043 A 
HETATM   18  C   UNL     1     -42.448  60.432 -52.405  1.00  0.00     0.006 A 
HETATM   19  C   UNL     1     -41.685  59.798 -51.425  1.00  0.00     0.043 A 
HETATM   20  C   UNL     1     -41.943  58.466 -51.092  1.00  0.00     0.132 A 
HETATM   21  F   UNL     1     -41.153  57.882 -50.180  1.00  0.00    -0.205 F 
ENDBRANCH   9  14
ENDBRANCH   7   8
ENDBRANCH   3   7
BRANCH   1  22
HETATM   22  C   UNL     1     -42.660  56.753 -56.707  1.00  0.00     0.127 C 
BRANCH  22  23
HETATM   23  N   UNL     1     -42.714  55.853 -57.857  1.00  0.00    -0.376 N 
HETATM   24  H   UNL     1     -41.997  55.142 -57.931  1.00  0.00     0.161 HD
BRANCH  23  25
HETATM   25  C   UNL     1     -43.769  55.864 -58.748  1.00  0.00     0.101 A 
HETATM   26  N   UNL     1     -44.754  56.761 -58.555  1.00  0.00    -0.347 N 
HETATM   27  C   UNL     1     -45.840  56.878 -59.343  1.00  0.00     0.007 A 
HETATM   28  H   UNL     1     -44.669  57.386 -57.760  1.00  0.00     0.167 HD
HETATM   29  C   UNL     1     -46.867  57.914 -59.016  1.00  0.00     0.068 C 
HETATM   30  C   UNL     1     -45.979  56.030 -60.438  1.00  0.00     0.025 A 
HETATM   31  C   UNL     1     -44.998  55.082 -60.688  1.00  0.00     0.006 A 
HETATM   32  C   UNL     1     -43.895  54.996 -59.840  1.00  0.00     0.048 A 
ENDBRANCH  23  25
ENDBRANCH  22  23
ENDBRANCH   1  22
TORSDOF 6
ENDMDL
