MODEL 1
REMARK VINA RESULT:      -7.8      0.000      0.000
REMARK  7 active torsions:
REMARK  status: ('A' for Active; 'I' for Inactive)
REMARK       I    between atoms: C_2  and  N_3 
REMARK    1  A    between atoms: N_3  and  C_4 
REMARK    2  A    between atoms: C_7  and  C_8 
REMARK    3  A    between atoms: C_13  and  C_14 
REMARK    4  A    between atoms: C_14  and  C_15 
REMARK    5  A    between atoms: C_15  and  C_16 
REMARK    6  A    between atoms: C_16  and  O_17 
REMARK    7  A    between atoms: C_19  and  C_20 
ROOT
HETATM    1  C   UNL     1     -41.706  55.652 -55.250  1.00  0.00     0.058 A 
HETATM    2  N   UNL     1     -42.310  55.294 -56.434  1.00  0.00    -0.188 N 
HETATM    3  C   UNL     1     -42.819  56.197 -57.293  1.00  0.00     0.726 A 
HETATM    4  N   UNL     1     -42.758  57.530 -56.980  1.00  0.00    -0.084 N 
HETATM    5  N   UNL     1     -43.289  58.290 -57.963  1.00  0.00    -0.140 NA
HETATM    6  C   UNL     1     -43.699  57.341 -58.818  1.00  0.00     0.166 A 
HETATM    7  N   UNL     1     -43.413  56.048 -58.449  1.00  0.00    -0.046 NA
HETATM    8  C   UNL     1     -42.160  58.056 -55.745  1.00  0.00     0.187 A 
HETATM    9  C   UNL     1     -41.589  56.940 -54.878  1.00  0.00     0.036 A 
HETATM   10  H   UNL     1     -42.375  54.303 -56.648  1.00  0.00     0.184 HD
ENDROOT
BRANCH   1  11
HETATM   11  C   UNL     1     -41.223  54.575 -54.382  1.00  0.00    -0.009 A 
HETATM   12  C   UNL     1     -40.429  53.557 -54.918  1.00  0.00     0.016 A 
HETATM   13  C   UNL     1     -39.942  52.530 -54.101  1.00  0.00     0.030 A 
HETATM   14  C   UNL     1     -40.241  52.508 -52.739  1.00  0.00     0.034 A 
HETATM   15  C   UNL     1     -41.044  53.527 -52.206  1.00  0.00     0.030 A 
HETATM   16  C   UNL     1     -41.532  54.554 -53.021  1.00  0.00     0.016 A 
BRANCH  14  17
HETATM   17  N   UNL     1     -39.780  51.517 -51.848  1.00  0.00    -0.328 N 
HETATM   18  C   UNL     1     -39.648  50.162 -52.093  1.00  0.00     0.218 C 
HETATM   19  C   UNL     1     -39.096  49.413 -50.905  1.00  0.00     0.117 C 
HETATM   20  O   UNL     1     -39.899  49.573 -53.138  1.00  0.00    -0.274 OA
HETATM   21  H   UNL     1     -39.498  51.843 -50.932  1.00  0.00     0.169 HD
ENDBRANCH  14  17
ENDBRANCH   1  11
BRANCH   8  22
HETATM   22  C   UNL     1     -43.144  58.901 -54.944  1.00  0.00    -0.028 A 
HETATM   23  C   UNL     1     -42.855  60.255 -54.695  1.00  0.00     0.028 A 
HETATM   24  C   UNL     1     -43.720  61.029 -53.921  1.00  0.00     0.011 A 
HETATM   25 BR   UNL     1     -43.307  62.844 -53.591  1.00  0.00    -0.051 Br
HETATM   26  C   UNL     1     -44.878  60.476 -53.381  1.00  0.00     0.019 A 
HETATM   27  C   UNL     1     -45.173  59.133 -53.614  1.00  0.00     0.002 A 
HETATM   28  C   UNL     1     -44.310  58.349 -54.381  1.00  0.00     0.010 A 
ENDBRANCH   8  22
BRANCH   6  29
HETATM   29  C   UNL     1     -44.455  57.653 -60.057  1.00  0.00     0.085 C 
BRANCH  29  30
HETATM   30  C   UNL     1     -45.962  57.451 -59.906  1.00  0.00     0.034 C 
BRANCH  30  31
HETATM   31  C   UNL     1     -46.453  56.148 -60.528  1.00  0.00     0.164 C 
BRANCH  31  32
HETATM   32  O   UNL     1     -45.909  55.040 -59.817  1.00  0.00    -0.401 OA
HETATM   33  H   UNL     1     -46.445  54.259 -60.034  1.00  0.00     0.209 HD
ENDBRANCH  31  32
ENDBRANCH  30  31
ENDBRANCH  29  30
ENDBRANCH   6  29
TORSDOF 7
ENDMDL
MODEL 2
REMARK VINA RESULT:      -7.8      4.081      7.195
REMARK  7 active torsions:
REMARK  status: ('A' for Active; 'I' for Inactive)
REMARK       I    between atoms: C_2  and  N_3 
REMARK    1  A    between atoms: N_3  and  C_4 
REMARK    2  A    between atoms: C_7  and  C_8 
REMARK    3  A    between atoms: C_13  and  C_14 
REMARK    4  A    between atoms: C_14  and  C_15 
REMARK    5  A    between atoms: C_15  and  C_16 
REMARK    6  A    between atoms: C_16  and  O_17 
REMARK    7  A    between atoms: C_19  and  C_20 
ROOT
HETATM    1  C   UNL     1     -43.816  57.553 -53.511  1.00  0.00     0.058 A 
HETATM    2  N   UNL     1     -43.629  57.960 -54.813  1.00  0.00    -0.188 N 
HETATM    3  C   UNL     1     -43.436  57.093 -55.825  1.00  0.00     0.726 A 
HETATM    4  N   UNL     1     -43.403  55.749 -55.561  1.00  0.00    -0.084 N 
HETATM    5  N   UNL     1     -43.228  55.030 -56.691  1.00  0.00    -0.140 NA
HETATM    6  C   UNL     1     -43.112  56.013 -57.596  1.00  0.00     0.166 A 
HETATM    7  N   UNL     1     -43.251  57.290 -57.105  1.00  0.00    -0.046 NA
HETATM    8  C   UNL     1     -43.569  55.172 -54.219  1.00  0.00     0.187 A 
HETATM    9  C   UNL     1     -43.816  56.251 -53.171  1.00  0.00     0.036 A 
HETATM   10  H   UNL     1     -43.629  58.958 -54.999  1.00  0.00     0.184 HD
ENDROOT
BRANCH   1  11
HETATM   11  C   UNL     1     -43.980  58.593 -52.493  1.00  0.00    -0.009 A 
HETATM   12  C   UNL     1     -45.213  59.238 -52.352  1.00  0.00     0.016 A 
HETATM   13  C   UNL     1     -45.395  60.220 -51.373  1.00  0.00     0.030 A 
HETATM   14  C   UNL     1     -44.348  60.571 -50.520  1.00  0.00     0.034 A 
HETATM   15  C   UNL     1     -43.110  59.929 -50.669  1.00  0.00     0.030 A 
HETATM   16  C   UNL     1     -42.926  58.947 -51.648  1.00  0.00     0.016 A 
BRANCH  14  17
HETATM   17  N   UNL     1     -44.454  61.541 -49.502  1.00  0.00    -0.328 N 
HETATM   18  C   UNL     1     -45.164  61.445 -48.319  1.00  0.00     0.218 C 
HETATM   19  C   UNL     1     -45.023  62.677 -47.460  1.00  0.00     0.117 C 
HETATM   20  O   UNL     1     -45.827  60.489 -47.932  1.00  0.00    -0.274 OA
HETATM   21  H   UNL     1     -43.935  62.397 -49.652  1.00  0.00     0.169 HD
ENDBRANCH  14  17
ENDBRANCH   1  11
BRANCH   8  22
HETATM   22  C   UNL     1     -42.384  54.302 -53.816  1.00  0.00    -0.028 A 
HETATM   23  C   UNL     1     -41.875  54.385 -52.507  1.00  0.00     0.028 A 
HETATM   24  C   UNL     1     -40.759  53.633 -52.136  1.00  0.00     0.011 A 
HETATM   25 BR   UNL     1     -40.086  53.768 -50.374  1.00  0.00    -0.051 Br
HETATM   26  C   UNL     1     -40.132  52.794 -53.052  1.00  0.00     0.019 A 
HETATM   27  C   UNL     1     -40.621  52.707 -54.354  1.00  0.00     0.002 A 
HETATM   28  C   UNL     1     -41.733  53.461 -54.737  1.00  0.00     0.010 A 
ENDBRANCH   8  22
BRANCH   6  29
HETATM   29  C   UNL     1     -42.806  55.753 -59.025  1.00  0.00     0.085 C 
BRANCH  29  30
HETATM   30  C   UNL     1     -43.905  54.966 -59.739  1.00  0.00     0.034 C 
BRANCH  30  31
HETATM   31  C   UNL     1     -44.671  55.805 -60.757  1.00  0.00     0.164 C 
BRANCH  31  32
HETATM   32  O   UNL     1     -44.997  55.007 -61.891  1.00  0.00    -0.401 OA
HETATM   33  H   UNL     1     -45.442  54.205 -61.569  1.00  0.00     0.209 HD
ENDBRANCH  31  32
ENDBRANCH  30  31
ENDBRANCH  29  30
ENDBRANCH   6  29
TORSDOF 7
ENDMDL
MODEL 3
REMARK VINA RESULT:      -7.6      1.564      1.722
REMARK  7 active torsions:
REMARK  status: ('A' for Active; 'I' for Inactive)
REMARK       I    between atoms: C_2  and  N_3 
REMARK    1  A    between atoms: N_3  and  C_4 
REMARK    2  A    between atoms: C_7  and  C_8 
REMARK    3  A    between atoms: C_13  and  C_14 
REMARK    4  A    between atoms: C_14  and  C_15 
REMARK    5  A    between atoms: C_15  and  C_16 
REMARK    6  A    between atoms: C_16  and  O_17 
REMARK    7  A    between atoms: C_19  and  C_20 
ROOT
HETATM    1  C   UNL     1     -41.487  55.892 -54.571  1.00  0.00     0.058 A 
HETATM    2  N   UNL     1     -42.027  55.703 -55.823  1.00  0.00    -0.188 N 
HETATM    3  C   UNL     1     -42.506  56.716 -56.568  1.00  0.00     0.726 A 
HETATM    4  N   UNL     1     -42.481  57.991 -56.066  1.00  0.00    -0.084 N 
HETATM    5  N   UNL     1     -42.975  58.880 -56.955  1.00  0.00    -0.140 NA
HETATM    6  C   UNL     1     -43.329  58.061 -57.957  1.00  0.00     0.166 A 
HETATM    7  N   UNL     1     -43.041  56.730 -57.762  1.00  0.00    -0.046 NA
HETATM    8  C   UNL     1     -41.952  58.339 -54.739  1.00  0.00     0.187 A 
HETATM    9  C   UNL     1     -41.408  57.114 -54.013  1.00  0.00     0.036 A 
HETATM   10  H   UNL     1     -42.067  54.753 -56.180  1.00  0.00     0.184 HD
ENDROOT
BRANCH   1  11
HETATM   11  C   UNL     1     -41.031  54.706 -53.843  1.00  0.00    -0.009 A 
HETATM   12  C   UNL     1     -40.421  53.657 -54.538  1.00  0.00     0.016 A 
HETATM   13  C   UNL     1     -39.961  52.525 -53.858  1.00  0.00     0.030 A 
HETATM   14  C   UNL     1     -40.104  52.424 -52.474  1.00  0.00     0.034 A 
HETATM   15  C   UNL     1     -40.723  53.474 -51.780  1.00  0.00     0.030 A 
HETATM   16  C   UNL     1     -41.184  54.607 -52.459  1.00  0.00     0.016 A 
BRANCH  14  17
HETATM   17  N   UNL     1     -39.657  51.323 -51.714  1.00  0.00    -0.328 N 
HETATM   18  C   UNL     1     -39.624  49.995 -52.098  1.00  0.00     0.218 C 
HETATM   19  C   UNL     1     -39.055  49.099 -51.026  1.00  0.00     0.117 C 
HETATM   20  O   UNL     1     -39.968  49.530 -53.179  1.00  0.00    -0.274 OA
HETATM   21  H   UNL     1     -39.306  51.538 -50.789  1.00  0.00     0.169 HD
ENDBRANCH  14  17
ENDBRANCH   1  11
BRANCH   8  22
HETATM   22  C   UNL     1     -42.987  59.051 -53.876  1.00  0.00    -0.028 A 
HETATM   23  C   UNL     1     -42.561  59.946 -52.877  1.00  0.00     0.028 A 
HETATM   24  C   UNL     1     -43.492  60.568 -52.044  1.00  0.00     0.011 A 
HETATM   25 BR   UNL     1     -42.896  61.759 -50.702  1.00  0.00    -0.051 Br
HETATM   26  C   UNL     1     -44.853  60.313 -52.187  1.00  0.00     0.019 A 
HETATM   27  C   UNL     1     -45.289  59.424 -53.167  1.00  0.00     0.002 A 
HETATM   28  C   UNL     1     -44.364  58.791 -54.000  1.00  0.00     0.010 A 
ENDBRANCH   8  22
BRANCH   6  29
HETATM   29  C   UNL     1     -44.027  58.541 -59.175  1.00  0.00     0.085 C 
BRANCH  29  30
HETATM   30  C   UNL     1     -43.375  58.055 -60.469  1.00  0.00     0.034 C 
BRANCH  30  31
HETATM   31  C   UNL     1     -41.851  58.070 -60.410  1.00  0.00     0.164 C 
BRANCH  31  32
HETATM   32  O   UNL     1     -41.354  56.736 -60.439  1.00  0.00    -0.401 OA
HETATM   33  H   UNL     1     -40.400  56.773 -60.257  1.00  0.00     0.209 HD
ENDBRANCH  31  32
ENDBRANCH  30  31
ENDBRANCH  29  30
ENDBRANCH   6  29
TORSDOF 7
ENDMDL
MODEL 4
REMARK VINA RESULT:      -7.6      4.149      7.471
REMARK  7 active torsions:
REMARK  status: ('A' for Active; 'I' for Inactive)
REMARK       I    between atoms: C_2  and  N_3 
REMARK    1  A    between atoms: N_3  and  C_4 
REMARK    2  A    between atoms: C_7  and  C_8 
REMARK    3  A    between atoms: C_13  and  C_14 
REMARK    4  A    between atoms: C_14  and  C_15 
REMARK    5  A    between atoms: C_15  and  C_16 
REMARK    6  A    between atoms: C_16  and  O_17 
REMARK    7  A    between atoms: C_19  and  C_20 
ROOT
HETATM    1  C   UNL     1     -43.654  57.506 -53.219  1.00  0.00     0.058 A 
HETATM    2  N   UNL     1     -43.491  57.920 -54.521  1.00  0.00    -0.188 N 
HETATM    3  C   UNL     1     -43.359  57.058 -55.547  1.00  0.00     0.726 A 
HETATM    4  N   UNL     1     -43.364  55.711 -55.297  1.00  0.00    -0.084 N 
HETATM    5  N   UNL     1     -43.248  54.998 -56.439  1.00  0.00    -0.140 NA
HETATM    6  C   UNL     1     -43.124  55.986 -57.338  1.00  0.00     0.166 A 
HETATM    7  N   UNL     1     -43.205  57.262 -56.830  1.00  0.00    -0.046 NA
HETATM    8  C   UNL     1     -43.510  55.126 -53.956  1.00  0.00     0.187 A 
HETATM    9  C   UNL     1     -43.689  56.201 -52.891  1.00  0.00     0.036 A 
HETATM   10  H   UNL     1     -43.463  58.920 -54.697  1.00  0.00     0.184 HD
ENDROOT
BRANCH   1  11
HETATM   11  C   UNL     1     -43.752  58.540 -52.186  1.00  0.00    -0.009 A 
HETATM   12  C   UNL     1     -42.637  59.328 -51.885  1.00  0.00     0.016 A 
HETATM   13  C   UNL     1     -42.718  60.334 -50.915  1.00  0.00     0.030 A 
HETATM   14  C   UNL     1     -43.913  60.565 -50.234  1.00  0.00     0.034 A 
HETATM   15  C   UNL     1     -45.027  59.768 -50.532  1.00  0.00     0.030 A 
HETATM   16  C   UNL     1     -44.948  58.762 -51.501  1.00  0.00     0.016 A 
BRANCH  14  17
HETATM   17  N   UNL     1     -44.078  61.565 -49.253  1.00  0.00    -0.328 N 
HETATM   18  C   UNL     1     -44.591  62.837 -49.427  1.00  0.00     0.218 C 
HETATM   19  C   UNL     1     -44.638  63.621 -48.138  1.00  0.00     0.117 C 
HETATM   20  O   UNL     1     -45.009  63.329 -50.469  1.00  0.00    -0.274 OA
HETATM   21  H   UNL     1     -43.803  61.310 -48.312  1.00  0.00     0.169 HD
ENDBRANCH  14  17
ENDBRANCH   1  11
BRANCH   8  22
HETATM   22  C   UNL     1     -42.344  54.211 -53.598  1.00  0.00    -0.028 A 
HETATM   23  C   UNL     1     -41.766  54.294 -52.318  1.00  0.00     0.028 A 
HETATM   24  C   UNL     1     -40.665  53.500 -51.990  1.00  0.00     0.011 A 
HETATM   25 BR   UNL     1     -39.897  53.635 -50.268  1.00  0.00    -0.051 Br
HETATM   26  C   UNL     1     -40.123  52.618 -52.921  1.00  0.00     0.019 A 
HETATM   27  C   UNL     1     -40.682  52.532 -54.194  1.00  0.00     0.002 A 
HETATM   28  C   UNL     1     -41.778  53.327 -54.534  1.00  0.00     0.010 A 
ENDBRANCH   8  22
BRANCH   6  29
HETATM   29  C   UNL     1     -42.870  55.731 -58.778  1.00  0.00     0.085 C 
BRANCH  29  30
HETATM   30  C   UNL     1     -43.278  56.901 -59.674  1.00  0.00     0.034 C 
BRANCH  30  31
HETATM   31  C   UNL     1     -42.088  57.580 -60.344  1.00  0.00     0.164 C 
BRANCH  31  32
HETATM   32  O   UNL     1     -40.982  56.684 -60.384  1.00  0.00    -0.401 OA
HETATM   33  H   UNL     1     -41.162  56.024 -61.075  1.00  0.00     0.209 HD
ENDBRANCH  31  32
ENDBRANCH  30  31
ENDBRANCH  29  30
ENDBRANCH   6  29
TORSDOF 7
ENDMDL
MODEL 5
REMARK VINA RESULT:      -7.5      4.197      8.146
REMARK  7 active torsions:
REMARK  status: ('A' for Active; 'I' for Inactive)
REMARK       I    between atoms: C_2  and  N_3 
REMARK    1  A    between atoms: N_3  and  C_4 
REMARK    2  A    between atoms: C_7  and  C_8 
REMARK    3  A    between atoms: C_13  and  C_14 
REMARK    4  A    between atoms: C_14  and  C_15 
REMARK    5  A    between atoms: C_15  and  C_16 
REMARK    6  A    between atoms: C_16  and  O_17 
REMARK    7  A    between atoms: C_19  and  C_20 
ROOT
HETATM    1  C   UNL     1     -42.623  57.623 -52.150  1.00  0.00     0.058 A 
HETATM    2  N   UNL     1     -42.407  56.422 -51.513  1.00  0.00    -0.188 N 
HETATM    3  C   UNL     1     -41.697  55.422 -52.068  1.00  0.00     0.726 A 
HETATM    4  N   UNL     1     -41.180  55.584 -53.327  1.00  0.00    -0.084 N 
HETATM    5  N   UNL     1     -40.478  54.496 -53.714  1.00  0.00    -0.140 NA
HETATM    6  C   UNL     1     -40.659  53.693 -52.654  1.00  0.00     0.166 A 
HETATM    7  N   UNL     1     -41.387  54.233 -51.620  1.00  0.00    -0.046 NA
HETATM    8  C   UNL     1     -41.346  56.803 -54.131  1.00  0.00     0.187 A 
HETATM    9  C   UNL     1     -42.133  57.870 -53.379  1.00  0.00     0.036 A 
HETATM   10  H   UNL     1     -42.815  56.299 -50.591  1.00  0.00     0.184 HD
ENDROOT
BRANCH   1  11
HETATM   11  C   UNL     1     -43.441  58.622 -51.456  1.00  0.00    -0.009 A 
HETATM   12  C   UNL     1     -44.804  58.384 -51.257  1.00  0.00     0.016 A 
HETATM   13  C   UNL     1     -45.597  59.317 -50.580  1.00  0.00     0.030 A 
HETATM   14  C   UNL     1     -45.039  60.498 -50.092  1.00  0.00     0.034 A 
HETATM   15  C   UNL     1     -43.673  60.738 -50.300  1.00  0.00     0.030 A 
HETATM   16  C   UNL     1     -42.879  59.807 -50.978  1.00  0.00     0.016 A 
BRANCH  14  17
HETATM   17  N   UNL     1     -45.767  61.481 -49.391  1.00  0.00    -0.328 N 
HETATM   18  C   UNL     1     -46.212  61.425 -48.083  1.00  0.00     0.218 C 
HETATM   19  C   UNL     1     -46.939  62.680 -47.666  1.00  0.00     0.117 C 
HETATM   20  O   UNL     1     -46.045  60.509 -47.285  1.00  0.00    -0.274 OA
HETATM   21  H   UNL     1     -45.970  62.331 -49.903  1.00  0.00     0.169 HD
ENDBRANCH  14  17
ENDBRANCH   1  11
BRANCH   8  22
HETATM   22  C   UNL     1     -41.995  56.517 -55.481  1.00  0.00    -0.028 A 
HETATM   23  C   UNL     1     -42.110  57.551 -56.428  1.00  0.00     0.028 A 
HETATM   24  C   UNL     1     -42.747  57.320 -57.648  1.00  0.00     0.011 A 
HETATM   25 BR   UNL     1     -42.899  58.726 -58.903  1.00  0.00    -0.051 Br
HETATM   26  C   UNL     1     -43.279  56.069 -57.946  1.00  0.00     0.019 A 
HETATM   27  C   UNL     1     -43.178  55.038 -57.014  1.00  0.00     0.002 A 
HETATM   28  C   UNL     1     -42.549  55.261 -55.787  1.00  0.00     0.010 A 
ENDBRANCH   8  22
BRANCH   6  29
HETATM   29  C   UNL     1     -40.154  52.298 -52.612  1.00  0.00     0.085 C 
BRANCH  29  30
HETATM   30  C   UNL     1     -39.923  51.703 -54.001  1.00  0.00     0.034 C 
BRANCH  30  31
HETATM   31  C   UNL     1     -39.390  50.274 -53.955  1.00  0.00     0.164 C 
BRANCH  31  32
HETATM   32  O   UNL     1     -40.161  49.445 -54.818  1.00  0.00    -0.401 OA
HETATM   33  H   UNL     1     -39.553  49.044 -55.462  1.00  0.00     0.209 HD
ENDBRANCH  31  32
ENDBRANCH  30  31
ENDBRANCH  29  30
ENDBRANCH   6  29
TORSDOF 7
ENDMDL
MODEL 6
REMARK VINA RESULT:      -7.4      2.978      4.133
REMARK  7 active torsions:
REMARK  status: ('A' for Active; 'I' for Inactive)
REMARK       I    between atoms: C_2  and  N_3 
REMARK    1  A    between atoms: N_3  and  C_4 
REMARK    2  A    between atoms: C_7  and  C_8 
REMARK    3  A    between atoms: C_13  and  C_14 
REMARK    4  A    between atoms: C_14  and  C_15 
REMARK    5  A    between atoms: C_15  and  C_16 
REMARK    6  A    between atoms: C_16  and  O_17 
REMARK    7  A    between atoms: C_19  and  C_20 
ROOT
HETATM    1  C   UNL     1     -43.176  56.751 -57.342  1.00  0.00     0.058 A 
HETATM    2  N   UNL     1     -44.542  56.876 -57.455  1.00  0.00    -0.188 N 
HETATM    3  C   UNL     1     -45.130  57.559 -58.454  1.00  0.00     0.726 A 
HETATM    4  N   UNL     1     -44.349  58.178 -59.395  1.00  0.00    -0.084 N 
HETATM    5  N   UNL     1     -45.104  58.791 -60.333  1.00  0.00    -0.140 NA
HETATM    6  C   UNL     1     -46.336  58.543 -59.865  1.00  0.00     0.166 A 
HETATM    7  N   UNL     1     -46.392  57.776 -58.724  1.00  0.00    -0.046 NA
HETATM    8  C   UNL     1     -42.880  58.145 -59.391  1.00  0.00     0.187 A 
HETATM    9  C   UNL     1     -42.340  57.312 -58.235  1.00  0.00     0.036 A 
HETATM   10  H   UNL     1     -45.115  56.436 -56.740  1.00  0.00     0.184 HD
ENDROOT
BRANCH   1  11
HETATM   11  C   UNL     1     -42.655  56.011 -56.190  1.00  0.00    -0.009 A 
HETATM   12  C   UNL     1     -42.991  54.665 -56.020  1.00  0.00     0.016 A 
HETATM   13  C   UNL     1     -42.488  53.937 -54.936  1.00  0.00     0.030 A 
HETATM   14  C   UNL     1     -41.641  54.544 -54.009  1.00  0.00     0.034 A 
HETATM   15  C   UNL     1     -41.312  55.897 -54.177  1.00  0.00     0.030 A 
HETATM   16  C   UNL     1     -41.814  56.626 -55.260  1.00  0.00     0.016 A 
BRANCH  14  17
HETATM   17  N   UNL     1     -41.083  53.878 -52.898  1.00  0.00    -0.328 N 
HETATM   18  C   UNL     1     -40.270  52.759 -52.910  1.00  0.00     0.218 C 
HETATM   19  C   UNL     1     -39.844  52.342 -51.524  1.00  0.00     0.117 C 
HETATM   20  O   UNL     1     -39.874  52.145 -53.894  1.00  0.00    -0.274 OA
HETATM   21  H   UNL     1     -41.292  54.278 -51.992  1.00  0.00     0.169 HD
ENDBRANCH  14  17
ENDBRANCH   1  11
BRANCH   8  22
HETATM   22  C   UNL     1     -42.274  59.544 -59.366  1.00  0.00    -0.028 A 
HETATM   23  C   UNL     1     -42.027  60.215 -60.578  1.00  0.00     0.028 A 
HETATM   24  C   UNL     1     -41.426  61.474 -60.576  1.00  0.00     0.011 A 
HETATM   25 BR   UNL     1     -41.095  62.354 -62.217  1.00  0.00    -0.051 Br
HETATM   26  C   UNL     1     -41.060  62.085 -59.380  1.00  0.00     0.019 A 
HETATM   27  C   UNL     1     -41.292  61.428 -58.172  1.00  0.00     0.002 A 
HETATM   28  C   UNL     1     -41.886  60.165 -58.165  1.00  0.00     0.010 A 
ENDBRANCH   8  22
BRANCH   6  29
HETATM   29  C   UNL     1     -47.559  59.094 -60.499  1.00  0.00     0.085 C 
BRANCH  29  30
HETATM   30  C   UNL     1     -47.896  58.425 -61.831  1.00  0.00     0.034 C 
BRANCH  30  31
HETATM   31  C   UNL     1     -48.195  56.936 -61.690  1.00  0.00     0.164 C 
BRANCH  31  32
HETATM   32  O   UNL     1     -47.159  56.176 -62.306  1.00  0.00    -0.401 OA
HETATM   33  H   UNL     1     -47.572  55.600 -62.971  1.00  0.00     0.209 HD
ENDBRANCH  31  32
ENDBRANCH  30  31
ENDBRANCH  29  30
ENDBRANCH   6  29
TORSDOF 7
ENDMDL
MODEL 7
REMARK VINA RESULT:      -7.4      3.604      8.673
REMARK  7 active torsions:
REMARK  status: ('A' for Active; 'I' for Inactive)
REMARK       I    between atoms: C_2  and  N_3 
REMARK    1  A    between atoms: N_3  and  C_4 
REMARK    2  A    between atoms: C_7  and  C_8 
REMARK    3  A    between atoms: C_13  and  C_14 
REMARK    4  A    between atoms: C_14  and  C_15 
REMARK    5  A    between atoms: C_15  and  C_16 
REMARK    6  A    between atoms: C_16  and  O_17 
REMARK    7  A    between atoms: C_19  and  C_20 
ROOT
HETATM    1  C   UNL     1     -43.547  58.074 -56.282  1.00  0.00     0.058 A 
HETATM    2  N   UNL     1     -43.745  58.982 -55.266  1.00  0.00    -0.188 N 
HETATM    3  C   UNL     1     -42.929  59.070 -54.199  1.00  0.00     0.726 A 
HETATM    4  N   UNL     1     -41.865  58.213 -54.096  1.00  0.00    -0.084 N 
HETATM    5  N   UNL     1     -41.143  58.459 -52.981  1.00  0.00    -0.140 NA
HETATM    6  C   UNL     1     -41.862  59.449 -52.431  1.00  0.00     0.166 A 
HETATM    7  N   UNL     1     -42.955  59.861 -53.157  1.00  0.00    -0.046 NA
HETATM    8  C   UNL     1     -41.542  57.183 -55.093  1.00  0.00     0.187 A 
HETATM    9  C   UNL     1     -42.515  57.211 -56.265  1.00  0.00     0.036 A 
HETATM   10  H   UNL     1     -44.551  59.598 -55.336  1.00  0.00     0.184 HD
ENDROOT
BRANCH   1  11
HETATM   11  C   UNL     1     -44.524  58.053 -57.373  1.00  0.00    -0.009 A 
HETATM   12  C   UNL     1     -44.091  57.857 -58.688  1.00  0.00     0.016 A 
HETATM   13  C   UNL     1     -45.011  57.814 -59.741  1.00  0.00     0.030 A 
HETATM   14  C   UNL     1     -46.376  57.966 -59.495  1.00  0.00     0.034 A 
HETATM   15  C   UNL     1     -46.806  58.170 -58.176  1.00  0.00     0.030 A 
HETATM   16  C   UNL     1     -45.888  58.213 -57.122  1.00  0.00     0.016 A 
BRANCH  14  17
HETATM   17  N   UNL     1     -47.366  57.923 -60.498  1.00  0.00    -0.328 N 
HETATM   18  C   UNL     1     -47.585  56.917 -61.421  1.00  0.00     0.218 C 
HETATM   19  C   UNL     1     -48.756  57.210 -62.326  1.00  0.00     0.117 C 
HETATM   20  O   UNL     1     -46.962  55.867 -61.530  1.00  0.00    -0.274 OA
HETATM   21  H   UNL     1     -47.996  58.715 -60.530  1.00  0.00     0.169 HD
ENDBRANCH  14  17
ENDBRANCH   1  11
BRANCH   8  22
HETATM   22  C   UNL     1     -41.488  55.787 -54.481  1.00  0.00    -0.028 A 
HETATM   23  C   UNL     1     -42.250  55.503 -53.333  1.00  0.00     0.028 A 
HETATM   24  C   UNL     1     -42.174  54.246 -52.730  1.00  0.00     0.011 A 
HETATM   25 BR   UNL     1     -43.200  53.889 -51.183  1.00  0.00    -0.051 Br
HETATM   26  C   UNL     1     -41.344  53.258 -53.251  1.00  0.00     0.019 A 
HETATM   27  C   UNL     1     -40.578  53.529 -54.384  1.00  0.00     0.002 A 
HETATM   28  C   UNL     1     -40.642  54.785 -54.989  1.00  0.00     0.010 A 
ENDBRANCH   8  22
BRANCH   6  29
HETATM   29  C   UNL     1     -41.538  60.033 -51.105  1.00  0.00     0.085 C 
BRANCH  29  30
HETATM   30  C   UNL     1     -40.481  59.235 -50.342  1.00  0.00     0.034 C 
BRANCH  30  31
HETATM   31  C   UNL     1     -39.087  59.848 -50.441  1.00  0.00     0.164 C 
BRANCH  31  32
HETATM   32  O   UNL     1     -38.513  59.538 -51.706  1.00  0.00    -0.401 OA
HETATM   33  H   UNL     1     -38.761  60.246 -52.324  1.00  0.00     0.209 HD
ENDBRANCH  31  32
ENDBRANCH  30  31
ENDBRANCH  29  30
ENDBRANCH   6  29
TORSDOF 7
ENDMDL
MODEL 8
REMARK VINA RESULT:      -7.2      2.683      8.081
REMARK  7 active torsions:
REMARK  status: ('A' for Active; 'I' for Inactive)
REMARK       I    between atoms: C_2  and  N_3 
REMARK    1  A    between atoms: N_3  and  C_4 
REMARK    2  A    between atoms: C_7  and  C_8 
REMARK    3  A    between atoms: C_13  and  C_14 
REMARK    4  A    between atoms: C_14  and  C_15 
REMARK    5  A    between atoms: C_15  and  C_16 
REMARK    6  A    between atoms: C_16  and  O_17 
REMARK    7  A    between atoms: C_19  and  C_20 
ROOT
HETATM    1  C   UNL     1     -42.951  56.925 -56.471  1.00  0.00     0.058 A 
HETATM    2  N   UNL     1     -42.250  55.742 -56.513  1.00  0.00    -0.188 N 
HETATM    3  C   UNL     1     -41.930  55.047 -55.405  1.00  0.00     0.726 A 
HETATM    4  N   UNL     1     -42.293  55.536 -54.177  1.00  0.00    -0.084 N 
HETATM    5  N   UNL     1     -41.915  54.701 -53.184  1.00  0.00    -0.140 NA
HETATM    6  C   UNL     1     -41.281  53.750 -53.886  1.00  0.00     0.166 A 
HETATM    7  N   UNL     1     -41.284  53.920 -55.251  1.00  0.00    -0.046 NA
HETATM    8  C   UNL     1     -43.027  56.793 -53.980  1.00  0.00     0.187 A 
HETATM    9  C   UNL     1     -43.362  57.463 -55.308  1.00  0.00     0.036 A 
HETATM   10  H   UNL     1     -41.961  55.397 -57.424  1.00  0.00     0.184 HD
ENDROOT
BRANCH   1  11
HETATM   11  C   UNL     1     -43.209  57.605 -57.743  1.00  0.00    -0.009 A 
HETATM   12  C   UNL     1     -42.137  57.988 -58.555  1.00  0.00     0.016 A 
HETATM   13  C   UNL     1     -42.364  58.621 -59.781  1.00  0.00     0.030 A 
HETATM   14  C   UNL     1     -43.665  58.881 -60.214  1.00  0.00     0.034 A 
HETATM   15  C   UNL     1     -44.738  58.503 -59.394  1.00  0.00     0.030 A 
HETATM   16  C   UNL     1     -44.513  57.870 -58.167  1.00  0.00     0.016 A 
BRANCH  14  17
HETATM   17  N   UNL     1     -43.977  59.503 -61.440  1.00  0.00    -0.328 N 
HETATM   18  C   UNL     1     -44.053  60.860 -61.699  1.00  0.00     0.218 C 
HETATM   19  C   UNL     1     -44.389  61.153 -63.140  1.00  0.00     0.117 C 
HETATM   20  O   UNL     1     -43.850  61.775 -60.909  1.00  0.00    -0.274 OA
HETATM   21  H   UNL     1     -44.148  58.881 -62.220  1.00  0.00     0.169 HD
ENDBRANCH  14  17
ENDBRANCH   1  11
BRANCH   8  22
HETATM   22  C   UNL     1     -42.278  57.761 -53.072  1.00  0.00    -0.028 A 
HETATM   23  C   UNL     1     -43.001  58.620 -52.224  1.00  0.00     0.028 A 
HETATM   24  C   UNL     1     -42.333  59.547 -51.424  1.00  0.00     0.011 A 
HETATM   25 BR   UNL     1     -43.326  60.698 -50.300  1.00  0.00    -0.051 Br
HETATM   26  C   UNL     1     -40.944  59.639 -51.451  1.00  0.00     0.019 A 
HETATM   27  C   UNL     1     -40.215  58.799 -52.291  1.00  0.00     0.002 A 
HETATM   28  C   UNL     1     -40.876  57.873 -53.101  1.00  0.00     0.010 A 
ENDBRANCH   8  22
BRANCH   6  29
HETATM   29  C   UNL     1     -40.578  52.613 -53.240  1.00  0.00     0.085 C 
BRANCH  29  30
HETATM   30  C   UNL     1     -39.807  51.744 -54.233  1.00  0.00     0.034 C 
BRANCH  30  31
HETATM   31  C   UNL     1     -39.648  50.301 -53.763  1.00  0.00     0.164 C 
BRANCH  31  32
HETATM   32  O   UNL     1     -40.032  49.411 -54.806  1.00  0.00    -0.401 OA
HETATM   33  H   UNL     1     -39.700  49.777 -55.643  1.00  0.00     0.209 HD
ENDBRANCH  31  32
ENDBRANCH  30  31
ENDBRANCH  29  30
ENDBRANCH   6  29
TORSDOF 7
ENDMDL
MODEL 9
REMARK VINA RESULT:      -7.2      3.613      5.352
REMARK  7 active torsions:
REMARK  status: ('A' for Active; 'I' for Inactive)
REMARK       I    between atoms: C_2  and  N_3 
REMARK    1  A    between atoms: N_3  and  C_4 
REMARK    2  A    between atoms: C_7  and  C_8 
REMARK    3  A    between atoms: C_13  and  C_14 
REMARK    4  A    between atoms: C_14  and  C_15 
REMARK    5  A    between atoms: C_15  and  C_16 
REMARK    6  A    between atoms: C_16  and  O_17 
REMARK    7  A    between atoms: C_19  and  C_20 
ROOT
HETATM    1  C   UNL     1     -42.856  57.392 -55.603  1.00  0.00     0.058 A 
HETATM    2  N   UNL     1     -41.938  58.339 -55.997  1.00  0.00    -0.188 N 
HETATM    3  C   UNL     1     -42.137  59.150 -57.052  1.00  0.00     0.726 A 
HETATM    4  N   UNL     1     -43.286  59.026 -57.788  1.00  0.00    -0.084 N 
HETATM    5  N   UNL     1     -43.329  59.933 -58.789  1.00  0.00    -0.140 NA
HETATM    6  C   UNL     1     -42.144  60.539 -58.627  1.00  0.00     0.166 A 
HETATM    7  N   UNL     1     -41.393  60.097 -57.563  1.00  0.00    -0.046 NA
HETATM    8  C   UNL     1     -44.344  58.049 -57.497  1.00  0.00     0.187 A 
HETATM    9  C   UNL     1     -44.019  57.219 -56.260  1.00  0.00     0.036 A 
HETATM   10  H   UNL     1     -41.076  58.409 -55.463  1.00  0.00     0.184 HD
ENDROOT
BRANCH   1  11
HETATM   11  C   UNL     1     -42.510  56.546 -54.459  1.00  0.00    -0.009 A 
HETATM   12  C   UNL     1     -42.896  55.202 -54.448  1.00  0.00     0.016 A 
HETATM   13  C   UNL     1     -42.558  54.373 -53.373  1.00  0.00     0.030 A 
HETATM   14  C   UNL     1     -41.830  54.876 -52.294  1.00  0.00     0.034 A 
HETATM   15  C   UNL     1     -41.452  56.226 -52.304  1.00  0.00     0.030 A 
HETATM   16  C   UNL     1     -41.789  57.056 -53.378  1.00  0.00     0.016 A 
BRANCH  14  17
HETATM   17  N   UNL     1     -41.441  54.104 -51.180  1.00  0.00    -0.328 N 
HETATM   18  C   UNL     1     -40.569  53.031 -51.163  1.00  0.00     0.218 C 
HETATM   19  C   UNL     1     -40.374  52.468 -49.777  1.00  0.00     0.117 C 
HETATM   20  O   UNL     1     -39.962  52.558 -52.117  1.00  0.00    -0.274 OA
HETATM   21  H   UNL     1     -41.835  54.383 -50.290  1.00  0.00     0.169 HD
ENDBRANCH  14  17
ENDBRANCH   1  11
BRANCH   8  22
HETATM   22  C   UNL     1     -44.630  57.139 -58.686  1.00  0.00    -0.028 A 
HETATM   23  C   UNL     1     -45.826  57.298 -59.411  1.00  0.00     0.028 A 
HETATM   24  C   UNL     1     -46.127  56.441 -60.470  1.00  0.00     0.011 A 
HETATM   25 BR   UNL     1     -47.743  56.668 -61.424  1.00  0.00    -0.051 Br
HETATM   26  C   UNL     1     -45.254  55.417 -60.825  1.00  0.00     0.019 A 
HETATM   27  C   UNL     1     -44.069  55.243 -60.111  1.00  0.00     0.002 A 
HETATM   28  C   UNL     1     -43.763  56.091 -59.045  1.00  0.00     0.010 A 
ENDBRANCH   8  22
BRANCH   6  29
HETATM   29  C   UNL     1     -41.646  61.583 -59.557  1.00  0.00     0.085 C 
BRANCH  29  30
HETATM   30  C   UNL     1     -40.414  62.317 -59.029  1.00  0.00     0.034 C 
BRANCH  30  31
HETATM   31  C   UNL     1     -40.718  63.743 -58.578  1.00  0.00     0.164 C 
BRANCH  31  32
HETATM   32  O   UNL     1     -41.390  63.718 -57.323  1.00  0.00    -0.401 OA
HETATM   33  H   UNL     1     -42.211  64.229 -57.418  1.00  0.00     0.209 HD
ENDBRANCH  31  32
ENDBRANCH  30  31
ENDBRANCH  29  30
ENDBRANCH   6  29
TORSDOF 7
ENDMDL
MODEL 10
REMARK VINA RESULT:      -7.1      4.425      7.906
REMARK  7 active torsions:
REMARK  status: ('A' for Active; 'I' for Inactive)
REMARK       I    between atoms: C_2  and  N_3 
REMARK    1  A    between atoms: N_3  and  C_4 
REMARK    2  A    between atoms: C_7  and  C_8 
REMARK    3  A    between atoms: C_13  and  C_14 
REMARK    4  A    between atoms: C_14  and  C_15 
REMARK    5  A    between atoms: C_15  and  C_16 
REMARK    6  A    between atoms: C_16  and  O_17 
REMARK    7  A    between atoms: C_19  and  C_20 
ROOT
HETATM    1  C   UNL     1     -43.200  58.023 -52.431  1.00  0.00     0.058 A 
HETATM    2  N   UNL     1     -43.096  56.692 -52.097  1.00  0.00    -0.188 N 
HETATM    3  C   UNL     1     -42.577  55.772 -52.930  1.00  0.00     0.726 A 
HETATM    4  N   UNL     1     -42.148  56.156 -54.173  1.00  0.00    -0.084 N 
HETATM    5  N   UNL     1     -41.634  55.113 -54.861  1.00  0.00    -0.140 NA
HETATM    6  C   UNL     1     -41.834  54.115 -53.986  1.00  0.00     0.166 A 
HETATM    7  N   UNL     1     -42.394  54.484 -52.786  1.00  0.00    -0.046 NA
HETATM    8  C   UNL     1     -42.214  57.537 -54.672  1.00  0.00     0.187 A 
HETATM    9  C   UNL     1     -42.785  58.486 -53.625  1.00  0.00     0.036 A 
HETATM   10  H   UNL     1     -43.440  56.408 -51.184  1.00  0.00     0.184 HD
ENDROOT
BRANCH   1  11
HETATM   11  C   UNL     1     -43.816  58.923 -51.452  1.00  0.00    -0.009 A 
HETATM   12  C   UNL     1     -43.095  60.017 -50.966  1.00  0.00     0.016 A 
HETATM   13  C   UNL     1     -43.673  60.898 -50.045  1.00  0.00     0.030 A 
HETATM   14  C   UNL     1     -44.979  60.698 -49.599  1.00  0.00     0.034 A 
HETATM   15  C   UNL     1     -45.697  59.595 -50.082  1.00  0.00     0.030 A 
HETATM   16  C   UNL     1     -45.121  58.712 -51.002  1.00  0.00     0.016 A 
BRANCH  14  17
HETATM   17  N   UNL     1     -45.636  61.545 -48.683  1.00  0.00    -0.328 N 
HETATM   18  C   UNL     1     -45.434  61.625 -47.317  1.00  0.00     0.218 C 
HETATM   19  C   UNL     1     -46.306  62.670 -46.666  1.00  0.00     0.117 C 
HETATM   20  O   UNL     1     -44.634  60.979 -46.651  1.00  0.00    -0.274 OA
HETATM   21  H   UNL     1     -46.322  62.176 -49.079  1.00  0.00     0.169 HD
ENDBRANCH  14  17
ENDBRANCH   1  11
BRANCH   8  22
HETATM   22  C   UNL     1     -43.005  57.642 -55.971  1.00  0.00    -0.028 A 
HETATM   23  C   UNL     1     -42.338  57.507 -57.202  1.00  0.00     0.028 A 
HETATM   24  C   UNL     1     -43.038  57.651 -58.401  1.00  0.00     0.011 A 
HETATM   25 BR   UNL     1     -42.120  57.475 -60.045  1.00  0.00    -0.051 Br
HETATM   26  C   UNL     1     -44.401  57.931 -58.399  1.00  0.00     0.019 A 
HETATM   27  C   UNL     1     -45.072  58.075 -57.186  1.00  0.00     0.002 A 
HETATM   28  C   UNL     1     -44.380  57.940 -55.981  1.00  0.00     0.010 A 
ENDBRANCH   8  22
BRANCH   6  29
HETATM   29  C   UNL     1     -41.520  52.699 -54.302  1.00  0.00     0.085 C 
BRANCH  29  30
HETATM   30  C   UNL     1     -40.027  52.383 -54.213  1.00  0.00     0.034 C 
BRANCH  30  31
HETATM   31  C   UNL     1     -39.743  51.021 -53.588  1.00  0.00     0.164 C 
BRANCH  31  32
HETATM   32  O   UNL     1     -39.841  50.006 -54.582  1.00  0.00    -0.401 OA
HETATM   33  H   UNL     1     -40.696  49.559 -54.465  1.00  0.00     0.209 HD
ENDBRANCH  31  32
ENDBRANCH  30  31
ENDBRANCH  29  30
ENDBRANCH   6  29
TORSDOF 7
ENDMDL
