MODEL 1
REMARK VINA RESULT:      -8.7      0.000      0.000
REMARK  5 active torsions:
REMARK  status: ('A' for Active; 'I' for Inactive)
REMARK    1  A    between atoms: O_2  and  C_3 
REMARK    2  A    between atoms: C_4  and  C_5 
REMARK    3  A    between atoms: C_9  and  S_10 
REMARK    4  A    between atoms: S_10  and  C_11 
REMARK    5  A    between atoms: C_11  and  C_12 
REMARK       I    between atoms: C_12  and  N_13 
ROOT
HETATM    1  C   UNL     1     -43.386  57.070 -58.002  1.00  0.00     0.185 A 
HETATM    2  N   UNL     1     -43.276  55.741 -58.165  1.00  0.00    -0.152 NA
HETATM    3  N   UNL     1     -43.080  55.324 -56.906  1.00  0.00    -0.253 N 
HETATM    4  H   UNL     1     -43.003  54.331 -56.728  1.00  0.00     0.191 HD
HETATM    5  C   UNL     1     -43.061  56.365 -56.033  1.00  0.00     0.185 A 
HETATM    6  N   UNL     1     -43.276  57.480 -56.687  1.00  0.00    -0.201 NA
ENDROOT
BRANCH   5   7
HETATM    7  S   UNL     1     -42.900  56.208 -54.323  1.00  0.00    -0.081 SA
BRANCH   7   8
HETATM    8  C   UNL     1     -41.122  55.983 -54.080  1.00  0.00     0.185 C 
BRANCH   8   9
HETATM    9  C   UNL     1     -40.740  54.515 -54.228  1.00  0.00     0.234 C 
HETATM   10  N   UNL     1     -40.723  53.698 -53.086  1.00  0.00    -0.317 N 
HETATM   11  C   UNL     1     -40.315  52.308 -53.128  1.00  0.00     0.043 A 
HETATM   12  C   UNL     1     -41.131  54.172 -51.753  1.00  0.00     0.132 C 
HETATM   13  C   UNL     1     -39.947  51.645 -51.934  1.00  0.00    -0.031 A 
HETATM   14  C   UNL     1     -40.270  51.565 -54.319  1.00  0.00     0.030 A 
HETATM   15  C   UNL     1     -39.547  50.294 -51.962  1.00  0.00     0.009 A 
HETATM   16  C   UNL     1     -39.979  52.325 -50.589  1.00  0.00     0.042 C 
HETATM   17  C   UNL     1     -39.499  49.591 -53.160  1.00  0.00     0.001 A 
HETATM   18  C   UNL     1     -39.865  50.226 -54.337  1.00  0.00     0.002 A 
HETATM   19  C   UNL     1     -40.081  53.833 -50.713  1.00  0.00     0.025 C 
HETATM   20  O   UNL     1     -40.399  54.153 -55.360  1.00  0.00    -0.272 OA
ENDBRANCH   8   9
ENDBRANCH   7   8
ENDBRANCH   5   7
BRANCH   1  21
HETATM   21  C   UNL     1     -43.740  57.998 -59.070  1.00  0.00     0.048 A 
HETATM   22  C   UNL     1     -45.070  58.256 -59.446  1.00  0.00     0.082 A 
HETATM   23  C   UNL     1     -45.347  59.188 -60.456  1.00  0.00     0.039 A 
HETATM   24  C   UNL     1     -44.309  59.887 -61.073  1.00  0.00     0.026 A 
HETATM   25  C   UNL     1     -42.991  59.634 -60.701  1.00  0.00     0.035 A 
HETATM   26  C   UNL     1     -42.703  58.693 -59.715  1.00  0.00     0.042 A 
HETATM   27 CL   UNL     1     -41.712  60.494 -61.466  1.00  0.00    -0.084 Cl
BRANCH  22  28
HETATM   28  O   UNL     1     -46.082  57.511 -58.893  1.00  0.00    -0.355 OA
HETATM   29  C   UNL     1     -46.604  56.527 -59.784  1.00  0.00     0.210 C 
ENDBRANCH  22  28
ENDBRANCH   1  21
TORSDOF 5
ENDMDL
MODEL 2
REMARK VINA RESULT:      -8.5      4.065      8.095
REMARK  5 active torsions:
REMARK  status: ('A' for Active; 'I' for Inactive)
REMARK    1  A    between atoms: O_2  and  C_3 
REMARK    2  A    between atoms: C_4  and  C_5 
REMARK    3  A    between atoms: C_9  and  S_10 
REMARK    4  A    between atoms: S_10  and  C_11 
REMARK    5  A    between atoms: C_11  and  C_12 
REMARK       I    between atoms: C_12  and  N_13 
ROOT
HETATM    1  C   UNL     1     -42.211  54.323 -54.152  1.00  0.00     0.185 A 
HETATM    2  N   UNL     1     -43.519  54.359 -53.846  1.00  0.00    -0.152 NA
HETATM    3  N   UNL     1     -43.985  55.251 -54.733  1.00  0.00    -0.253 N 
HETATM    4  H   UNL     1     -44.977  55.444 -54.754  1.00  0.00     0.191 HD
HETATM    5  C   UNL     1     -42.990  55.734 -55.523  1.00  0.00     0.185 A 
HETATM    6  N   UNL     1     -41.862  55.152 -55.200  1.00  0.00    -0.201 NA
ENDROOT
BRANCH   5   7
HETATM    7  S   UNL     1     -43.223  56.846 -56.821  1.00  0.00    -0.081 SA
BRANCH   7   8
HETATM    8  C   UNL     1     -43.578  58.410 -55.985  1.00  0.00     0.185 C 
BRANCH   8   9
HETATM    9  C   UNL     1     -42.563  58.671 -54.878  1.00  0.00     0.234 C 
HETATM   10  N   UNL     1     -43.013  58.771 -53.552  1.00  0.00    -0.317 N 
HETATM   11  C   UNL     1     -42.123  59.076 -52.448  1.00  0.00     0.043 A 
HETATM   12  C   UNL     1     -44.416  58.560 -53.161  1.00  0.00     0.132 C 
HETATM   13  C   UNL     1     -42.656  59.540 -51.222  1.00  0.00    -0.031 A 
HETATM   14  C   UNL     1     -40.730  58.926 -52.532  1.00  0.00     0.030 A 
HETATM   15  C   UNL     1     -41.802  59.841 -50.142  1.00  0.00     0.009 A 
HETATM   16  C   UNL     1     -44.136  59.717 -50.999  1.00  0.00     0.042 C 
HETATM   17  C   UNL     1     -40.425  59.696 -50.262  1.00  0.00     0.001 A 
HETATM   18  C   UNL     1     -39.891  59.235 -51.456  1.00  0.00     0.002 A 
HETATM   19  C   UNL     1     -44.917  59.703 -52.299  1.00  0.00     0.025 C 
HETATM   20  O   UNL     1     -41.394  58.848 -55.243  1.00  0.00    -0.272 OA
ENDBRANCH   8   9
ENDBRANCH   7   8
ENDBRANCH   5   7
BRANCH   1  21
HETATM   21  C   UNL     1     -41.257  53.396 -53.553  1.00  0.00     0.048 A 
HETATM   22  C   UNL     1     -40.729  53.574 -52.262  1.00  0.00     0.082 A 
HETATM   23  C   UNL     1     -39.844  52.628 -51.728  1.00  0.00     0.039 A 
HETATM   24  C   UNL     1     -39.505  51.489 -52.461  1.00  0.00     0.026 A 
HETATM   25  C   UNL     1     -40.029  51.310 -53.739  1.00  0.00     0.035 A 
HETATM   26  C   UNL     1     -40.890  52.256 -54.288  1.00  0.00     0.042 A 
HETATM   27 CL   UNL     1     -39.606  49.907 -54.642  1.00  0.00    -0.084 Cl
BRANCH  22  28
HETATM   28  O   UNL     1     -41.002  54.732 -51.578  1.00  0.00    -0.355 OA
HETATM   29  C   UNL     1     -41.719  54.509 -50.365  1.00  0.00     0.210 C 
ENDBRANCH  22  28
ENDBRANCH   1  21
TORSDOF 5
ENDMDL
MODEL 3
REMARK VINA RESULT:      -8.5      1.715      2.170
REMARK  5 active torsions:
REMARK  status: ('A' for Active; 'I' for Inactive)
REMARK    1  A    between atoms: O_2  and  C_3 
REMARK    2  A    between atoms: C_4  and  C_5 
REMARK    3  A    between atoms: C_9  and  S_10 
REMARK    4  A    between atoms: S_10  and  C_11 
REMARK    5  A    between atoms: C_11  and  C_12 
REMARK       I    between atoms: C_12  and  N_13 
ROOT
HETATM    1  C   UNL     1     -43.785  57.085 -57.776  1.00  0.00     0.185 A 
HETATM    2  N   UNL     1     -42.856  56.177 -58.117  1.00  0.00    -0.152 NA
HETATM    3  N   UNL     1     -42.380  55.806 -56.920  1.00  0.00    -0.253 N 
HETATM    4  H   UNL     1     -41.675  55.081 -56.879  1.00  0.00     0.191 HD
HETATM    5  C   UNL     1     -42.993  56.477 -55.910  1.00  0.00     0.185 A 
HETATM    6  N   UNL     1     -43.903  57.275 -56.412  1.00  0.00    -0.201 NA
ENDROOT
BRANCH   5   7
HETATM    7  S   UNL     1     -42.690  56.214 -54.233  1.00  0.00    -0.081 SA
BRANCH   7   8
HETATM    8  C   UNL     1     -40.902  55.953 -54.158  1.00  0.00     0.185 C 
BRANCH   8   9
HETATM    9  C   UNL     1     -40.568  54.470 -54.271  1.00  0.00     0.234 C 
HETATM   10  N   UNL     1     -40.605  53.675 -53.115  1.00  0.00    -0.317 N 
HETATM   11  C   UNL     1     -40.245  52.270 -53.124  1.00  0.00     0.043 A 
HETATM   12  C   UNL     1     -41.026  54.186 -51.800  1.00  0.00     0.132 C 
HETATM   13  C   UNL     1     -39.928  51.617 -51.910  1.00  0.00    -0.031 A 
HETATM   14  C   UNL     1     -40.200  51.505 -54.301  1.00  0.00     0.030 A 
HETATM   15  C   UNL     1     -39.575  50.252 -51.906  1.00  0.00     0.009 A 
HETATM   16  C   UNL     1     -39.966  52.322 -50.578  1.00  0.00     0.042 C 
HETATM   17  C   UNL     1     -39.525  49.527 -53.090  1.00  0.00     0.001 A 
HETATM   18  C   UNL     1     -39.841  50.153 -54.286  1.00  0.00     0.002 A 
HETATM   19  C   UNL     1     -40.012  53.830 -50.730  1.00  0.00     0.025 C 
HETATM   20  O   UNL     1     -40.215  54.077 -55.388  1.00  0.00    -0.272 OA
ENDBRANCH   8   9
ENDBRANCH   7   8
ENDBRANCH   5   7
BRANCH   1  21
HETATM   21  C   UNL     1     -44.701  57.713 -58.721  1.00  0.00     0.048 A 
HETATM   22  C   UNL     1     -44.638  59.078 -59.052  1.00  0.00     0.082 A 
HETATM   23  C   UNL     1     -45.524  59.614 -59.997  1.00  0.00     0.039 A 
HETATM   24  C   UNL     1     -46.453  58.792 -60.637  1.00  0.00     0.026 A 
HETATM   25  C   UNL     1     -46.515  57.440 -60.313  1.00  0.00     0.035 A 
HETATM   26  C   UNL     1     -45.656  56.901 -59.358  1.00  0.00     0.042 A 
HETATM   27 CL   UNL     1     -47.664  56.429 -61.100  1.00  0.00    -0.084 Cl
BRANCH  22  28
HETATM   28  O   UNL     1     -43.778  59.897 -58.364  1.00  0.00    -0.355 OA
HETATM   29  C   UNL     1     -44.450  60.839 -57.529  1.00  0.00     0.210 C 
ENDBRANCH  22  28
ENDBRANCH   1  21
TORSDOF 5
ENDMDL
MODEL 4
REMARK VINA RESULT:      -8.4      2.492      3.577
REMARK  5 active torsions:
REMARK  status: ('A' for Active; 'I' for Inactive)
REMARK    1  A    between atoms: O_2  and  C_3 
REMARK    2  A    between atoms: C_4  and  C_5 
REMARK    3  A    between atoms: C_9  and  S_10 
REMARK    4  A    between atoms: S_10  and  C_11 
REMARK    5  A    between atoms: C_11  and  C_12 
REMARK       I    between atoms: C_12  and  N_13 
ROOT
HETATM    1  C   UNL     1     -44.391  57.789 -56.492  1.00  0.00     0.185 A 
HETATM    2  N   UNL     1     -45.390  58.654 -56.251  1.00  0.00    -0.152 NA
HETATM    3  N   UNL     1     -45.489  58.597 -54.915  1.00  0.00    -0.253 N 
HETATM    4  H   UNL     1     -46.156  59.198 -54.450  1.00  0.00     0.191 HD
HETATM    5  C   UNL     1     -44.592  57.723 -54.387  1.00  0.00     0.185 A 
HETATM    6  N   UNL     1     -43.867  57.213 -55.350  1.00  0.00    -0.201 NA
ENDROOT
BRANCH   5   7
HETATM    7  S   UNL     1     -44.380  57.439 -52.698  1.00  0.00    -0.081 SA
BRANCH   7   8
HETATM    8  C   UNL     1     -42.586  57.500 -52.478  1.00  0.00     0.185 C 
BRANCH   8   9
HETATM    9  C   UNL     1     -42.060  56.162 -51.969  1.00  0.00     0.234 C 
HETATM   10  N   UNL     1     -41.254  55.383 -52.814  1.00  0.00    -0.317 N 
HETATM   11  C   UNL     1     -40.761  54.074 -52.431  1.00  0.00     0.043 A 
HETATM   12  C   UNL     1     -40.823  55.828 -54.150  1.00  0.00     0.132 C 
HETATM   13  C   UNL     1     -40.293  53.180 -53.422  1.00  0.00    -0.031 A 
HETATM   14  C   UNL     1     -40.717  53.640 -51.096  1.00  0.00     0.030 A 
HETATM   15  C   UNL     1     -39.813  51.904 -53.064  1.00  0.00     0.009 A 
HETATM   16  C   UNL     1     -40.264  53.540 -54.886  1.00  0.00     0.042 C 
HETATM   17  C   UNL     1     -39.797  51.498 -51.735  1.00  0.00     0.001 A 
HETATM   18  C   UNL     1     -40.246  52.368 -50.752  1.00  0.00     0.002 A 
HETATM   19  C   UNL     1     -41.106  54.763 -55.192  1.00  0.00     0.025 C 
HETATM   20  O   UNL     1     -42.445  55.819 -50.846  1.00  0.00    -0.272 OA
ENDBRANCH   8   9
ENDBRANCH   7   8
ENDBRANCH   5   7
BRANCH   1  21
HETATM   21  C   UNL     1     -43.795  57.574 -57.805  1.00  0.00     0.048 A 
HETATM   22  C   UNL     1     -42.593  58.183 -58.206  1.00  0.00     0.082 A 
HETATM   23  C   UNL     1     -42.052  57.906 -59.469  1.00  0.00     0.039 A 
HETATM   24  C   UNL     1     -42.685  57.002 -60.324  1.00  0.00     0.026 A 
HETATM   25  C   UNL     1     -43.874  56.396 -59.928  1.00  0.00     0.035 A 
HETATM   26  C   UNL     1     -44.434  56.682 -58.685  1.00  0.00     0.042 A 
HETATM   27 CL   UNL     1     -44.655  55.285 -60.985  1.00  0.00    -0.084 Cl
BRANCH  22  28
HETATM   28  O   UNL     1     -42.016  59.129 -57.397  1.00  0.00    -0.355 OA
HETATM   29  C   UNL     1     -41.632  60.309 -58.101  1.00  0.00     0.210 C 
ENDBRANCH  22  28
ENDBRANCH   1  21
TORSDOF 5
ENDMDL
MODEL 5
REMARK VINA RESULT:      -8.4      3.200      8.725
REMARK  5 active torsions:
REMARK  status: ('A' for Active; 'I' for Inactive)
REMARK    1  A    between atoms: O_2  and  C_3 
REMARK    2  A    between atoms: C_4  and  C_5 
REMARK    3  A    between atoms: C_9  and  S_10 
REMARK    4  A    between atoms: S_10  and  C_11 
REMARK    5  A    between atoms: C_11  and  C_12 
REMARK       I    between atoms: C_12  and  N_13 
ROOT
HETATM    1  C   UNL     1     -42.734  54.934 -53.366  1.00  0.00     0.185 A 
HETATM    2  N   UNL     1     -43.853  54.530 -53.989  1.00  0.00    -0.152 NA
HETATM    3  N   UNL     1     -44.408  55.698 -54.344  1.00  0.00    -0.253 N 
HETATM    4  H   UNL     1     -45.266  55.686 -54.879  1.00  0.00     0.191 HD
HETATM    5  C   UNL     1     -43.655  56.752 -53.936  1.00  0.00     0.185 A 
HETATM    6  N   UNL     1     -42.578  56.307 -53.337  1.00  0.00    -0.201 NA
ENDROOT
BRANCH   5   7
HETATM    7  S   UNL     1     -44.018  58.404 -54.273  1.00  0.00    -0.081 SA
BRANCH   7   8
HETATM    8  C   UNL     1     -43.002  58.778 -55.722  1.00  0.00     0.185 C 
BRANCH   8   9
HETATM    9  C   UNL     1     -43.212  57.732 -56.811  1.00  0.00     0.234 C 
HETATM   10  N   UNL     1     -44.278  57.891 -57.710  1.00  0.00    -0.317 N 
HETATM   11  C   UNL     1     -44.583  56.914 -58.737  1.00  0.00     0.043 A 
HETATM   12  C   UNL     1     -45.167  59.064 -57.703  1.00  0.00     0.132 C 
HETATM   13  C   UNL     1     -45.857  56.914 -59.352  1.00  0.00    -0.031 A 
HETATM   14  C   UNL     1     -43.657  55.950 -59.168  1.00  0.00     0.030 A 
HETATM   15  C   UNL     1     -46.167  55.968 -60.350  1.00  0.00     0.009 A 
HETATM   16  C   UNL     1     -46.927  57.914 -58.996  1.00  0.00     0.042 C 
HETATM   17  C   UNL     1     -45.233  55.017 -60.744  1.00  0.00     0.001 A 
HETATM   18  C   UNL     1     -43.978  55.012 -60.155  1.00  0.00     0.002 A 
HETATM   19  C   UNL     1     -46.623  58.640 -57.700  1.00  0.00     0.025 C 
HETATM   20  O   UNL     1     -42.449  56.759 -56.784  1.00  0.00    -0.272 OA
ENDBRANCH   8   9
ENDBRANCH   7   8
ENDBRANCH   5   7
BRANCH   1  21
HETATM   21  C   UNL     1     -41.690  54.032 -52.892  1.00  0.00     0.048 A 
HETATM   22  C   UNL     1     -41.147  54.109 -51.598  1.00  0.00     0.082 A 
HETATM   23  C   UNL     1     -40.172  53.188 -51.188  1.00  0.00     0.039 A 
HETATM   24  C   UNL     1     -39.757  52.172 -52.051  1.00  0.00     0.026 A 
HETATM   25  C   UNL     1     -40.296  52.093 -53.332  1.00  0.00     0.035 A 
HETATM   26  C   UNL     1     -41.248  53.017 -53.758  1.00  0.00     0.042 A 
HETATM   27 CL   UNL     1     -39.780  50.842 -54.396  1.00  0.00    -0.084 Cl
BRANCH  22  28
HETATM   28  O   UNL     1     -41.498  55.155 -50.781  1.00  0.00    -0.355 OA
HETATM   29  C   UNL     1     -41.354  54.856 -49.394  1.00  0.00     0.210 C 
ENDBRANCH  22  28
ENDBRANCH   1  21
TORSDOF 5
ENDMDL
MODEL 6
REMARK VINA RESULT:      -8.3      7.478      8.979
REMARK  5 active torsions:
REMARK  status: ('A' for Active; 'I' for Inactive)
REMARK    1  A    between atoms: O_2  and  C_3 
REMARK    2  A    between atoms: C_4  and  C_5 
REMARK    3  A    between atoms: C_9  and  S_10 
REMARK    4  A    between atoms: S_10  and  C_11 
REMARK    5  A    between atoms: C_11  and  C_12 
REMARK       I    between atoms: C_12  and  N_13 
ROOT
HETATM    1  C   UNL     1     -45.309  60.557 -49.156  1.00  0.00     0.185 A 
HETATM    2  N   UNL     1     -45.927  59.391 -49.404  1.00  0.00    -0.152 NA
HETATM    3  N   UNL     1     -45.275  58.959 -50.493  1.00  0.00    -0.253 N 
HETATM    4  H   UNL     1     -45.518  58.057 -50.881  1.00  0.00     0.191 HD
HETATM    5  C   UNL     1     -44.318  59.841 -50.883  1.00  0.00     0.185 A 
HETATM    6  N   UNL     1     -44.294  60.849 -50.047  1.00  0.00    -0.201 NA
ENDROOT
BRANCH   5   7
HETATM    7  S   UNL     1     -43.233  59.591 -52.201  1.00  0.00    -0.081 SA
BRANCH   7   8
HETATM    8  C   UNL     1     -41.862  58.675 -51.458  1.00  0.00     0.185 C 
BRANCH   8   9
HETATM    9  C   UNL     1     -41.363  57.590 -52.405  1.00  0.00     0.234 C 
HETATM   10  N   UNL     1     -41.613  56.244 -52.090  1.00  0.00    -0.317 N 
HETATM   11  C   UNL     1     -41.125  55.150 -52.905  1.00  0.00     0.043 A 
HETATM   12  C   UNL     1     -42.405  55.826 -50.921  1.00  0.00     0.132 C 
HETATM   13  C   UNL     1     -41.063  53.843 -52.365  1.00  0.00    -0.031 A 
HETATM   14  C   UNL     1     -40.705  55.320 -54.234  1.00  0.00     0.030 A 
HETATM   15  C   UNL     1     -40.588  52.771 -53.146  1.00  0.00     0.009 A 
HETATM   16  C   UNL     1     -41.510  53.527 -50.960  1.00  0.00     0.042 C 
HETATM   17  C   UNL     1     -40.165  52.975 -54.454  1.00  0.00     0.001 A 
HETATM   18  C   UNL     1     -40.228  54.249 -54.998  1.00  0.00     0.002 A 
HETATM   19  C   UNL     1     -41.666  54.776 -50.115  1.00  0.00     0.025 C 
HETATM   20  O   UNL     1     -40.699  57.976 -53.374  1.00  0.00    -0.272 OA
ENDBRANCH   8   9
ENDBRANCH   7   8
ENDBRANCH   5   7
BRANCH   1  21
HETATM   21  C   UNL     1     -45.560  61.381 -47.979  1.00  0.00     0.048 A 
HETATM   22  C   UNL     1     -46.528  62.400 -47.955  1.00  0.00     0.082 A 
HETATM   23  C   UNL     1     -46.748  63.134 -46.781  1.00  0.00     0.039 A 
HETATM   24  C   UNL     1     -46.030  62.838 -45.621  1.00  0.00     0.026 A 
HETATM   25  C   UNL     1     -45.072  61.828 -45.642  1.00  0.00     0.035 A 
HETATM   26  C   UNL     1     -44.828  61.109 -46.810  1.00  0.00     0.042 A 
HETATM   27 CL   UNL     1     -44.184  61.467 -44.213  1.00  0.00    -0.084 Cl
BRANCH  22  28
HETATM   28  O   UNL     1     -47.176  62.741 -49.116  1.00  0.00    -0.355 OA
HETATM   29  C   UNL     1     -48.056  63.852 -48.962  1.00  0.00     0.210 C 
ENDBRANCH  22  28
ENDBRANCH   1  21
TORSDOF 5
ENDMDL
MODEL 7
REMARK VINA RESULT:      -8.3      3.116      9.071
REMARK  5 active torsions:
REMARK  status: ('A' for Active; 'I' for Inactive)
REMARK    1  A    between atoms: O_2  and  C_3 
REMARK    2  A    between atoms: C_4  and  C_5 
REMARK    3  A    between atoms: C_9  and  S_10 
REMARK    4  A    between atoms: S_10  and  C_11 
REMARK    5  A    between atoms: C_11  and  C_12 
REMARK       I    between atoms: C_12  and  N_13 
ROOT
HETATM    1  C   UNL     1     -42.211  54.790 -53.345  1.00  0.00     0.185 A 
HETATM    2  N   UNL     1     -43.494  54.568 -53.674  1.00  0.00    -0.152 NA
HETATM    3  N   UNL     1     -43.886  55.781 -54.089  1.00  0.00    -0.253 N 
HETATM    4  H   UNL     1     -44.827  55.895 -54.443  1.00  0.00     0.191 HD
HETATM    5  C   UNL     1     -42.879  56.689 -53.997  1.00  0.00     0.185 A 
HETATM    6  N   UNL     1     -41.800  56.092 -53.554  1.00  0.00    -0.201 NA
ENDROOT
BRANCH   5   7
HETATM    7  S   UNL     1     -42.993  58.333 -54.504  1.00  0.00    -0.081 SA
BRANCH   7   8
HETATM    8  C   UNL     1     -42.497  58.279 -56.242  1.00  0.00     0.185 C 
BRANCH   8   9
HETATM    9  C   UNL     1     -43.719  58.311 -57.153  1.00  0.00     0.234 C 
HETATM   10  N   UNL     1     -44.018  57.181 -57.930  1.00  0.00    -0.317 N 
HETATM   11  C   UNL     1     -45.126  57.148 -58.864  1.00  0.00     0.043 A 
HETATM   12  C   UNL     1     -43.248  55.928 -57.856  1.00  0.00     0.132 C 
HETATM   13  C   UNL     1     -45.161  56.166 -59.882  1.00  0.00    -0.031 A 
HETATM   14  C   UNL     1     -46.195  58.057 -58.807  1.00  0.00     0.030 A 
HETATM   15  C   UNL     1     -46.232  56.125 -60.797  1.00  0.00     0.009 A 
HETATM   16  C   UNL     1     -44.087  55.118 -60.031  1.00  0.00     0.042 C 
HETATM   17  C   UNL     1     -47.267  57.049 -60.723  1.00  0.00     0.001 A 
HETATM   18  C   UNL     1     -47.249  58.012 -59.725  1.00  0.00     0.002 A 
HETATM   19  C   UNL     1     -42.840  55.460 -59.240  1.00  0.00     0.025 C 
HETATM   20  O   UNL     1     -44.339  59.380 -57.193  1.00  0.00    -0.272 OA
ENDBRANCH   8   9
ENDBRANCH   7   8
ENDBRANCH   5   7
BRANCH   1  21
HETATM   21  C   UNL     1     -41.276  53.743 -52.948  1.00  0.00     0.048 A 
HETATM   22  C   UNL     1     -40.705  53.678 -51.665  1.00  0.00     0.082 A 
HETATM   23  C   UNL     1     -39.842  52.625 -51.332  1.00  0.00     0.039 A 
HETATM   24  C   UNL     1     -39.567  51.619 -52.260  1.00  0.00     0.026 A 
HETATM   25  C   UNL     1     -40.133  51.681 -53.531  1.00  0.00     0.035 A 
HETATM   26  C   UNL     1     -40.974  52.735 -53.880  1.00  0.00     0.042 A 
HETATM   27 CL   UNL     1     -39.790  50.442 -54.675  1.00  0.00    -0.084 Cl
BRANCH  22  28
HETATM   28  O   UNL     1     -40.914  54.708 -50.782  1.00  0.00    -0.355 OA
HETATM   29  C   UNL     1     -40.008  54.695 -49.682  1.00  0.00     0.210 C 
ENDBRANCH  22  28
ENDBRANCH   1  21
TORSDOF 5
ENDMDL
MODEL 8
REMARK VINA RESULT:      -8.1      3.527      8.948
REMARK  5 active torsions:
REMARK  status: ('A' for Active; 'I' for Inactive)
REMARK    1  A    between atoms: O_2  and  C_3 
REMARK    2  A    between atoms: C_4  and  C_5 
REMARK    3  A    between atoms: C_9  and  S_10 
REMARK    4  A    between atoms: S_10  and  C_11 
REMARK    5  A    between atoms: C_11  and  C_12 
REMARK       I    between atoms: C_12  and  N_13 
ROOT
HETATM    1  C   UNL     1     -42.901  54.917 -52.892  1.00  0.00     0.185 A 
HETATM    2  N   UNL     1     -43.700  54.310 -53.785  1.00  0.00    -0.152 NA
HETATM    3  N   UNL     1     -44.346  55.352 -54.329  1.00  0.00    -0.253 N 
HETATM    4  H   UNL     1     -45.000  55.180 -55.081  1.00  0.00     0.191 HD
HETATM    5  C   UNL     1     -43.955  56.527 -53.771  1.00  0.00     0.185 A 
HETATM    6  N   UNL     1     -43.026  56.293 -52.878  1.00  0.00    -0.201 NA
ENDROOT
BRANCH   5   7
HETATM    7  S   UNL     1     -44.518  58.081 -54.265  1.00  0.00    -0.081 SA
BRANCH   7   8
HETATM    8  C   UNL     1     -43.395  58.536 -55.607  1.00  0.00     0.185 C 
BRANCH   8   9
HETATM    9  C   UNL     1     -43.510  57.549 -56.764  1.00  0.00     0.234 C 
HETATM   10  N   UNL     1     -44.498  57.757 -57.739  1.00  0.00    -0.317 N 
HETATM   11  C   UNL     1     -44.713  56.837 -58.839  1.00  0.00     0.043 A 
HETATM   12  C   UNL     1     -45.387  58.931 -57.745  1.00  0.00     0.132 C 
HETATM   13  C   UNL     1     -45.931  56.871 -59.557  1.00  0.00    -0.031 A 
HETATM   14  C   UNL     1     -43.752  55.895 -59.241  1.00  0.00     0.030 A 
HETATM   15  C   UNL     1     -46.154  55.981 -60.627  1.00  0.00     0.009 A 
HETATM   16  C   UNL     1     -47.030  57.854 -59.240  1.00  0.00     0.042 C 
HETATM   17  C   UNL     1     -45.188  55.050 -60.990  1.00  0.00     0.001 A 
HETATM   18  C   UNL     1     -43.987  55.011 -60.299  1.00  0.00     0.002 A 
HETATM   19  C   UNL     1     -46.837  58.510 -57.886  1.00  0.00     0.025 C 
HETATM   20  O   UNL     1     -42.750  56.574 -56.725  1.00  0.00    -0.272 OA
ENDBRANCH   8   9
ENDBRANCH   7   8
ENDBRANCH   5   7
BRANCH   1  21
HETATM   21  C   UNL     1     -41.881  54.229 -52.108  1.00  0.00     0.048 A 
HETATM   22  C   UNL     1     -40.938  53.357 -52.681  1.00  0.00     0.082 A 
HETATM   23  C   UNL     1     -39.959  52.755 -51.879  1.00  0.00     0.039 A 
HETATM   24  C   UNL     1     -39.893  53.041 -50.515  1.00  0.00     0.026 A 
HETATM   25  C   UNL     1     -40.824  53.906 -49.946  1.00  0.00     0.035 A 
HETATM   26  C   UNL     1     -41.817  54.491 -50.729  1.00  0.00     0.042 A 
HETATM   27 CL   UNL     1     -40.744  54.253 -48.262  1.00  0.00    -0.084 Cl
BRANCH  22  28
HETATM   28  O   UNL     1     -41.054  53.018 -54.006  1.00  0.00    -0.355 OA
HETATM   29  C   UNL     1     -40.531  51.725 -54.301  1.00  0.00     0.210 C 
ENDBRANCH  22  28
ENDBRANCH   1  21
TORSDOF 5
ENDMDL
MODEL 9
REMARK VINA RESULT:      -8.0      2.140      2.626
REMARK  5 active torsions:
REMARK  status: ('A' for Active; 'I' for Inactive)
REMARK    1  A    between atoms: O_2  and  C_3 
REMARK    2  A    between atoms: C_4  and  C_5 
REMARK    3  A    between atoms: C_9  and  S_10 
REMARK    4  A    between atoms: S_10  and  C_11 
REMARK    5  A    between atoms: C_11  and  C_12 
REMARK       I    between atoms: C_12  and  N_13 
ROOT
HETATM    1  C   UNL     1     -44.210  58.059 -58.189  1.00  0.00     0.185 A 
HETATM    2  N   UNL     1     -43.043  58.659 -58.476  1.00  0.00    -0.152 NA
HETATM    3  N   UNL     1     -42.416  58.625 -57.290  1.00  0.00    -0.253 N 
HETATM    4  H   UNL     1     -41.473  58.985 -57.228  1.00  0.00     0.191 HD
HETATM    5  C   UNL     1     -43.187  58.040 -56.337  1.00  0.00     0.185 A 
HETATM    6  N   UNL     1     -44.316  57.649 -56.873  1.00  0.00    -0.201 NA
ENDROOT
BRANCH   5   7
HETATM    7  S   UNL     1     -42.687  57.759 -54.710  1.00  0.00    -0.081 SA
BRANCH   7   8
HETATM    8  C   UNL     1     -43.583  56.259 -54.241  1.00  0.00     0.185 C 
BRANCH   8   9
HETATM    9  C   UNL     1     -42.683  55.034 -54.361  1.00  0.00     0.234 C 
HETATM   10  N   UNL     1     -42.147  54.467 -53.194  1.00  0.00    -0.317 N 
HETATM   11  C   UNL     1     -41.237  53.339 -53.223  1.00  0.00     0.043 A 
HETATM   12  C   UNL     1     -42.472  54.952 -51.842  1.00  0.00     0.132 C 
HETATM   13  C   UNL     1     -40.436  53.051 -52.093  1.00  0.00    -0.031 A 
HETATM   14  C   UNL     1     -41.109  52.494 -54.337  1.00  0.00     0.030 A 
HETATM   15  C   UNL     1     -39.546  51.959 -52.109  1.00  0.00     0.009 A 
HETATM   16  C   UNL     1     -40.501  53.868 -50.827  1.00  0.00     0.042 C 
HETATM   17  C   UNL     1     -39.432  51.150 -53.233  1.00  0.00     0.001 A 
HETATM   18  C   UNL     1     -40.217  51.417 -54.345  1.00  0.00     0.002 A 
HETATM   19  C   UNL     1     -41.210  55.192 -51.035  1.00  0.00     0.025 C 
HETATM   20  O   UNL     1     -42.428  54.657 -55.511  1.00  0.00    -0.272 OA
ENDBRANCH   8   9
ENDBRANCH   7   8
ENDBRANCH   5   7
BRANCH   1  21
HETATM   21  C   UNL     1     -45.223  57.723 -59.183  1.00  0.00     0.048 A 
HETATM   22  C   UNL     1     -45.290  56.466 -59.807  1.00  0.00     0.082 A 
HETATM   23  C   UNL     1     -46.311  56.191 -60.728  1.00  0.00     0.039 A 
HETATM   24  C   UNL     1     -47.283  57.153 -61.009  1.00  0.00     0.026 A 
HETATM   25  C   UNL     1     -47.219  58.399 -60.390  1.00  0.00     0.035 A 
HETATM   26  C   UNL     1     -46.196  58.690 -59.491  1.00  0.00     0.042 A 
HETATM   27 CL   UNL     1     -48.416  59.584 -60.740  1.00  0.00    -0.084 Cl
BRANCH  22  28
HETATM   28  O   UNL     1     -44.289  55.552 -59.589  1.00  0.00    -0.355 OA
HETATM   29  C   UNL     1     -44.721  54.201 -59.743  1.00  0.00     0.210 C 
ENDBRANCH  22  28
ENDBRANCH   1  21
TORSDOF 5
ENDMDL
MODEL 10
REMARK VINA RESULT:      -8.0      2.085      3.053
REMARK  5 active torsions:
REMARK  status: ('A' for Active; 'I' for Inactive)
REMARK    1  A    between atoms: O_2  and  C_3 
REMARK    2  A    between atoms: C_4  and  C_5 
REMARK    3  A    between atoms: C_9  and  S_10 
REMARK    4  A    between atoms: S_10  and  C_11 
REMARK    5  A    between atoms: C_11  and  C_12 
REMARK       I    between atoms: C_12  and  N_13 
ROOT
HETATM    1  C   UNL     1     -44.086  58.508 -56.484  1.00  0.00     0.185 A 
HETATM    2  N   UNL     1     -45.152  59.260 -56.165  1.00  0.00    -0.152 NA
HETATM    3  N   UNL     1     -45.358  58.918 -54.885  1.00  0.00    -0.253 N 
HETATM    4  H   UNL     1     -46.097  59.378 -54.370  1.00  0.00     0.191 HD
HETATM    5  C   UNL     1     -44.458  57.990 -54.467  1.00  0.00     0.185 A 
HETATM    6  N   UNL     1     -43.625  57.726 -55.443  1.00  0.00    -0.201 NA
ENDROOT
BRANCH   5   7
HETATM    7  S   UNL     1     -44.371  57.364 -52.862  1.00  0.00    -0.081 SA
BRANCH   7   8
HETATM    8  C   UNL     1     -42.616  57.503 -52.444  1.00  0.00     0.185 C 
BRANCH   8   9
HETATM    9  C   UNL     1     -42.061  56.156 -51.995  1.00  0.00     0.234 C 
HETATM   10  N   UNL     1     -41.279  55.410 -52.891  1.00  0.00    -0.317 N 
HETATM   11  C   UNL     1     -40.761  54.096 -52.565  1.00  0.00     0.043 A 
HETATM   12  C   UNL     1     -40.901  55.898 -54.228  1.00  0.00     0.132 C 
HETATM   13  C   UNL     1     -40.322  53.236 -53.599  1.00  0.00    -0.031 A 
HETATM   14  C   UNL     1     -40.665  53.622 -51.247  1.00  0.00     0.030 A 
HETATM   15  C   UNL     1     -39.818  51.955 -53.296  1.00  0.00     0.009 A 
HETATM   16  C   UNL     1     -40.349  53.639 -55.052  1.00  0.00     0.042 C 
HETATM   17  C   UNL     1     -39.751  51.510 -51.981  1.00  0.00     0.001 A 
HETATM   18  C   UNL     1     -40.171  52.346 -50.958  1.00  0.00     0.002 A 
HETATM   19  C   UNL     1     -41.212  54.862 -55.291  1.00  0.00     0.025 C 
HETATM   20  O   UNL     1     -42.402  55.776 -50.869  1.00  0.00    -0.272 OA
ENDBRANCH   8   9
ENDBRANCH   7   8
ENDBRANCH   5   7
BRANCH   1  21
HETATM   21  C   UNL     1     -43.371  58.600 -57.752  1.00  0.00     0.048 A 
HETATM   22  C   UNL     1     -43.323  57.545 -58.679  1.00  0.00     0.082 A 
HETATM   23  C   UNL     1     -42.649  57.708 -59.897  1.00  0.00     0.039 A 
HETATM   24  C   UNL     1     -42.048  58.928 -60.211  1.00  0.00     0.026 A 
HETATM   25  C   UNL     1     -42.096  59.976 -59.295  1.00  0.00     0.035 A 
HETATM   26  C   UNL     1     -42.742  59.817 -58.071  1.00  0.00     0.042 A 
HETATM   27 CL   UNL     1     -41.350  61.478 -59.682  1.00  0.00    -0.084 Cl
BRANCH  22  28
HETATM   28  O   UNL     1     -43.846  56.323 -58.334  1.00  0.00    -0.355 OA
HETATM   29  C   UNL     1     -43.847  55.390 -59.413  1.00  0.00     0.210 C 
ENDBRANCH  22  28
ENDBRANCH   1  21
TORSDOF 5
ENDMDL
