MODEL 1
REMARK VINA RESULT:      -7.2      0.000      0.000
REMARK  6 active torsions:
REMARK  status: ('A' for Active; 'I' for Inactive)
REMARK    1  A    between atoms: C_2  and  O_3 
REMARK    2  A    between atoms: O_3  and  C_4 
REMARK    3  A    between atoms: C_4  and  C_5 
REMARK    4  A    between atoms: C_6  and  O_7 
REMARK    5  A    between atoms: C_12  and  O_13 
REMARK    6  A    between atoms: C_17  and  C_18 
ROOT
HETATM    1  C   UNL     1     -40.901  57.716 -51.339  1.00  0.00     0.133 C 
HETATM    2  C   UNL     1     -40.927  59.032 -50.487  1.00  0.00     0.073 C 
HETATM    3  C   UNL     1     -39.574  59.759 -50.617  1.00  0.00     0.047 C 
HETATM    4  C   UNL     1     -42.085  59.997 -50.878  1.00  0.00     0.097 C 
HETATM    5  C   UNL     1     -42.154  60.109 -52.350  1.00  0.00     0.042 A 
HETATM    6  C   UNL     1     -41.681  59.196 -53.268  1.00  0.00     0.030 A 
HETATM    7  C   UNL     1     -41.924  59.829 -54.499  1.00  0.00     0.190 A 
HETATM    8  N   UNL     1     -42.509  61.016 -54.382  1.00  0.00    -0.149 NA
HETATM    9  N   UNL     1     -42.654  61.165 -53.055  1.00  0.00    -0.279 N 
HETATM   10  H   UNL     1     -43.079  62.020 -52.712  1.00  0.00     0.189 HD
HETATM   11  C   UNL     1     -40.995  57.922 -52.882  1.00  0.00     0.074 C 
ENDROOT
BRANCH  11  12
HETATM   12  C   UNL     1     -41.668  56.807 -53.673  1.00  0.00    -0.048 A 
HETATM   13  C   UNL     1     -40.876  55.802 -54.256  1.00  0.00     0.011 A 
HETATM   14  C   UNL     1     -41.463  54.761 -54.979  1.00  0.00     0.043 A 
HETATM   15  C   UNL     1     -42.845  54.711 -55.116  1.00  0.00     0.116 A 
HETATM   16  F   UNL     1     -43.404  53.711 -55.811  1.00  0.00    -0.206 F 
HETATM   17  C   UNL     1     -43.653  55.681 -54.543  1.00  0.00     0.043 A 
HETATM   18  C   UNL     1     -43.068  56.721 -53.819  1.00  0.00     0.011 A 
ENDBRANCH  11  12
BRANCH   1  19
HETATM   19  C   UNL     1     -41.931  56.741 -50.808  1.00  0.00     0.267 C 
HETATM   20  O   UNL     1     -43.143  56.894 -50.887  1.00  0.00    -0.265 OA
BRANCH  19  21
HETATM   21  O   UNL     1     -41.306  55.702 -50.185  1.00  0.00    -0.316 OA
BRANCH  21  22
HETATM   22  C   UNL     1     -40.889  54.600 -51.012  1.00  0.00     0.123 C 
HETATM   23  C   UNL     1     -42.095  53.735 -51.367  1.00  0.00     0.040 C 
HETATM   24  C   UNL     1     -39.881  53.798 -50.199  1.00  0.00     0.040 C 
ENDBRANCH  21  22
ENDBRANCH  19  21
ENDBRANCH   1  19
BRANCH   2  25
HETATM   25  O   UNL     1     -41.038  58.719 -49.087  1.00  0.00    -0.389 OA
HETATM   26  H   UNL     1     -40.969  59.554 -48.583  1.00  0.00     0.210 HD
ENDBRANCH   2  25
BRANCH   7  27
HETATM   27  O   UNL     1     -41.652  59.421 -55.740  1.00  0.00    -0.343 OA
HETATM   28  H   UNL     1     -42.382  59.662 -56.329  1.00  0.00     0.219 HD
ENDBRANCH   7  27
TORSDOF 6
ENDMDL
MODEL 2
REMARK VINA RESULT:      -7.2      2.087      2.650
REMARK  6 active torsions:
REMARK  status: ('A' for Active; 'I' for Inactive)
REMARK    1  A    between atoms: C_2  and  O_3 
REMARK    2  A    between atoms: O_3  and  C_4 
REMARK    3  A    between atoms: C_4  and  C_5 
REMARK    4  A    between atoms: C_6  and  O_7 
REMARK    5  A    between atoms: C_12  and  O_13 
REMARK    6  A    between atoms: C_17  and  C_18 
ROOT
HETATM    1  C   UNL     1     -41.849  57.500 -52.536  1.00  0.00     0.133 C 
HETATM    2  C   UNL     1     -42.790  58.738 -52.333  1.00  0.00     0.073 C 
HETATM    3  C   UNL     1     -42.090  60.009 -52.850  1.00  0.00     0.047 C 
HETATM    4  C   UNL     1     -44.177  58.580 -53.023  1.00  0.00     0.097 C 
HETATM    5  C   UNL     1     -43.986  58.058 -54.393  1.00  0.00     0.042 A 
HETATM    6  C   UNL     1     -42.901  57.346 -54.859  1.00  0.00     0.030 A 
HETATM    7  C   UNL     1     -43.193  57.180 -56.223  1.00  0.00     0.190 A 
HETATM    8  N   UNL     1     -44.352  57.714 -56.590  1.00  0.00    -0.149 NA
HETATM    9  N   UNL     1     -44.831  58.237 -55.448  1.00  0.00    -0.279 N 
HETATM   10  H   UNL     1     -45.725  58.717 -55.478  1.00  0.00     0.189 HD
HETATM   11  C   UNL     1     -41.717  57.002 -54.009  1.00  0.00     0.074 C 
ENDROOT
BRANCH  11  12
HETATM   12  C   UNL     1     -41.460  55.512 -54.198  1.00  0.00    -0.048 A 
HETATM   13  C   UNL     1     -40.178  55.077 -54.577  1.00  0.00     0.011 A 
HETATM   14  C   UNL     1     -39.909  53.717 -54.749  1.00  0.00     0.043 A 
HETATM   15  C   UNL     1     -40.915  52.783 -54.535  1.00  0.00     0.116 A 
HETATM   16  F   UNL     1     -40.653  51.479 -54.702  1.00  0.00    -0.206 F 
HETATM   17  C   UNL     1     -42.186  53.181 -54.150  1.00  0.00     0.043 A 
HETATM   18  C   UNL     1     -42.457  54.539 -53.976  1.00  0.00     0.011 A 
ENDBRANCH  11  12
BRANCH   1  19
HETATM   19  C   UNL     1     -42.236  56.397 -51.572  1.00  0.00     0.267 C 
HETATM   20  O   UNL     1     -43.386  56.068 -51.313  1.00  0.00    -0.265 OA
BRANCH  19  21
HETATM   21  O   UNL     1     -41.116  55.871 -51.001  1.00  0.00    -0.316 OA
BRANCH  21  22
HETATM   22  C   UNL     1     -41.251  54.588 -50.362  1.00  0.00     0.123 C 
HETATM   23  C   UNL     1     -41.019  54.731 -48.860  1.00  0.00     0.040 C 
HETATM   24  C   UNL     1     -40.195  53.678 -50.978  1.00  0.00     0.040 C 
ENDBRANCH  21  22
ENDBRANCH  19  21
ENDBRANCH   1  19
BRANCH   2  25
HETATM   25  O   UNL     1     -42.996  58.982 -50.930  1.00  0.00    -0.389 OA
HETATM   26  H   UNL     1     -43.924  59.266 -50.805  1.00  0.00     0.210 HD
ENDBRANCH   2  25
BRANCH   7  27
HETATM   27  O   UNL     1     -42.485  56.583 -57.184  1.00  0.00    -0.343 OA
HETATM   28  H   UNL     1     -41.784  57.178 -57.489  1.00  0.00     0.219 HD
ENDBRANCH   7  27
TORSDOF 6
ENDMDL
MODEL 3
REMARK VINA RESULT:      -6.9      2.614      4.557
REMARK  6 active torsions:
REMARK  status: ('A' for Active; 'I' for Inactive)
REMARK    1  A    between atoms: C_2  and  O_3 
REMARK    2  A    between atoms: O_3  and  C_4 
REMARK    3  A    between atoms: C_4  and  C_5 
REMARK    4  A    between atoms: C_6  and  O_7 
REMARK    5  A    between atoms: C_12  and  O_13 
REMARK    6  A    between atoms: C_17  and  C_18 
ROOT
HETATM    1  C   UNL     1     -42.684  55.969 -54.287  1.00  0.00     0.133 C 
HETATM    2  C   UNL     1     -42.669  56.914 -55.538  1.00  0.00     0.073 C 
HETATM    3  C   UNL     1     -44.116  57.201 -55.986  1.00  0.00     0.047 C 
HETATM    4  C   UNL     1     -41.917  58.255 -55.290  1.00  0.00     0.097 C 
HETATM    5  C   UNL     1     -42.332  58.817 -53.988  1.00  0.00     0.042 A 
HETATM    6  C   UNL     1     -42.865  58.121 -52.924  1.00  0.00     0.030 A 
HETATM    7  C   UNL     1     -43.153  59.136 -51.995  1.00  0.00     0.190 A 
HETATM    8  N   UNL     1     -42.821  60.352 -52.412  1.00  0.00    -0.149 NA
HETATM    9  N   UNL     1     -42.306  60.134 -53.634  1.00  0.00    -0.279 N 
HETATM   10  H   UNL     1     -41.983  60.934 -54.168  1.00  0.00     0.189 HD
HETATM   11  C   UNL     1     -43.117  56.646 -52.950  1.00  0.00     0.074 C 
ENDROOT
BRANCH  11  12
HETATM   12  C   UNL     1     -42.507  56.075 -51.675  1.00  0.00    -0.048 A 
HETATM   13  C   UNL     1     -43.163  55.028 -51.006  1.00  0.00     0.011 A 
HETATM   14  C   UNL     1     -42.623  54.477 -49.841  1.00  0.00     0.043 A 
HETATM   15  C   UNL     1     -41.421  54.963 -49.341  1.00  0.00     0.116 A 
HETATM   16  F   UNL     1     -40.908  54.433 -48.223  1.00  0.00    -0.206 F 
HETATM   17  C   UNL     1     -40.745  55.988 -49.985  1.00  0.00     0.043 A 
HETATM   18  C   UNL     1     -41.282  56.538 -51.151  1.00  0.00     0.011 A 
ENDBRANCH  11  12
BRANCH   1  19
HETATM   19  C   UNL     1     -41.361  55.240 -54.179  1.00  0.00     0.267 C 
HETATM   20  O   UNL     1     -40.263  55.758 -54.336  1.00  0.00    -0.265 OA
BRANCH  19  21
HETATM   21  O   UNL     1     -41.582  53.917 -53.938  1.00  0.00    -0.316 OA
BRANCH  21  22
HETATM   22  C   UNL     1     -40.423  53.090 -53.723  1.00  0.00     0.123 C 
HETATM   23  C   UNL     1     -40.628  51.730 -54.385  1.00  0.00     0.040 C 
HETATM   24  C   UNL     1     -40.271  52.930 -52.215  1.00  0.00     0.040 C 
ENDBRANCH  21  22
ENDBRANCH  19  21
ENDBRANCH   1  19
BRANCH   2  25
HETATM   25  O   UNL     1     -42.067  56.246 -56.661  1.00  0.00    -0.389 OA
HETATM   26  H   UNL     1     -42.250  56.776 -57.463  1.00  0.00     0.210 HD
ENDBRANCH   2  25
BRANCH   7  27
HETATM   27  O   UNL     1     -43.705  59.054 -50.782  1.00  0.00    -0.343 OA
HETATM   28  H   UNL     1     -44.668  58.983 -50.867  1.00  0.00     0.219 HD
ENDBRANCH   7  27
TORSDOF 6
ENDMDL
MODEL 4
REMARK VINA RESULT:      -6.6     16.623     18.238
REMARK  6 active torsions:
REMARK  status: ('A' for Active; 'I' for Inactive)
REMARK    1  A    between atoms: C_2  and  O_3 
REMARK    2  A    between atoms: O_3  and  C_4 
REMARK    3  A    between atoms: C_4  and  C_5 
REMARK    4  A    between atoms: C_6  and  O_7 
REMARK    5  A    between atoms: C_12  and  O_13 
REMARK    6  A    between atoms: C_17  and  C_18 
ROOT
HETATM    1  C   UNL     1     -35.125  40.892 -53.394  1.00  0.00     0.133 C 
HETATM    2  C   UNL     1     -34.976  40.397 -51.913  1.00  0.00     0.073 C 
HETATM    3  C   UNL     1     -34.955  41.610 -50.962  1.00  0.00     0.047 C 
HETATM    4  C   UNL     1     -36.094  39.404 -51.479  1.00  0.00     0.097 C 
HETATM    5  C   UNL     1     -37.406  39.919 -51.919  1.00  0.00     0.042 A 
HETATM    6  C   UNL     1     -37.639  40.808 -52.947  1.00  0.00     0.030 A 
HETATM    7  C   UNL     1     -39.027  41.018 -52.877  1.00  0.00     0.190 A 
HETATM    8  N   UNL     1     -39.624  40.322 -51.917  1.00  0.00    -0.149 NA
HETATM    9  N   UNL     1     -38.614  39.643 -51.348  1.00  0.00    -0.279 N 
HETATM   10  H   UNL     1     -38.827  39.033 -50.565  1.00  0.00     0.189 HD
HETATM   11  C   UNL     1     -36.547  41.404 -53.781  1.00  0.00     0.074 C 
ENDROOT
BRANCH  11  12
HETATM   12  C   UNL     1     -36.958  41.219 -55.237  1.00  0.00    -0.048 A 
HETATM   13  C   UNL     1     -36.701  42.247 -56.161  1.00  0.00     0.011 A 
HETATM   14  C   UNL     1     -37.057  42.103 -57.504  1.00  0.00     0.043 A 
HETATM   15  C   UNL     1     -37.664  40.930 -57.935  1.00  0.00     0.116 A 
HETATM   16  F   UNL     1     -38.005  40.797 -59.224  1.00  0.00    -0.206 F 
HETATM   17  C   UNL     1     -37.920  39.895 -57.049  1.00  0.00     0.043 A 
HETATM   18  C   UNL     1     -37.564  40.035 -55.707  1.00  0.00     0.011 A 
ENDBRANCH  11  12
BRANCH   1  19
HETATM   19  C   UNL     1     -34.598  39.837 -54.344  1.00  0.00     0.267 C 
HETATM   20  O   UNL     1     -34.875  38.646 -54.289  1.00  0.00    -0.265 OA
BRANCH  19  21
HETATM   21  O   UNL     1     -33.729  40.406 -55.227  1.00  0.00    -0.316 OA
BRANCH  21  22
HETATM   22  C   UNL     1     -33.201  39.555 -56.262  1.00  0.00     0.123 C 
HETATM   23  C   UNL     1     -31.828  40.060 -56.696  1.00  0.00     0.040 C 
HETATM   24  C   UNL     1     -34.182  39.618 -57.426  1.00  0.00     0.040 C 
ENDBRANCH  21  22
ENDBRANCH  19  21
ENDBRANCH   1  19
BRANCH   2  25
HETATM   25  O   UNL     1     -33.697  39.766 -51.725  1.00  0.00    -0.389 OA
HETATM   26  H   UNL     1     -33.082  40.120 -52.398  1.00  0.00     0.210 HD
ENDBRANCH   2  25
BRANCH   7  27
HETATM   27  O   UNL     1     -39.812  41.804 -53.617  1.00  0.00    -0.343 OA
HETATM   28  H   UNL     1     -40.510  42.182 -53.062  1.00  0.00     0.219 HD
ENDBRANCH   7  27
TORSDOF 6
ENDMDL
MODEL 5
REMARK VINA RESULT:      -6.5      2.238      4.631
REMARK  6 active torsions:
REMARK  status: ('A' for Active; 'I' for Inactive)
REMARK    1  A    between atoms: C_2  and  O_3 
REMARK    2  A    between atoms: O_3  and  C_4 
REMARK    3  A    between atoms: C_4  and  C_5 
REMARK    4  A    between atoms: C_6  and  O_7 
REMARK    5  A    between atoms: C_12  and  O_13 
REMARK    6  A    between atoms: C_17  and  C_18 
ROOT
HETATM    1  C   UNL     1     -43.757  58.162 -53.966  1.00  0.00     0.133 C 
HETATM    2  C   UNL     1     -43.917  59.655 -53.513  1.00  0.00     0.073 C 
HETATM    3  C   UNL     1     -45.005  59.751 -52.426  1.00  0.00     0.047 C 
HETATM    4  C   UNL     1     -42.592  60.287 -52.993  1.00  0.00     0.097 C 
HETATM    5  C   UNL     1     -41.924  59.341 -52.076  1.00  0.00     0.042 A 
HETATM    6  C   UNL     1     -42.094  57.973 -52.037  1.00  0.00     0.030 A 
HETATM    7  C   UNL     1     -41.302  57.586 -50.942  1.00  0.00     0.190 A 
HETATM    8  N   UNL     1     -40.675  58.598 -50.353  1.00  0.00    -0.149 NA
HETATM    9  N   UNL     1     -41.059  59.666 -51.072  1.00  0.00    -0.279 N 
HETATM   10  H   UNL     1     -40.708  60.579 -50.800  1.00  0.00     0.189 HD
HETATM   11  C   UNL     1     -43.025  57.235 -52.947  1.00  0.00     0.074 C 
ENDROOT
BRANCH  11  12
HETATM   12  C   UNL     1     -42.232  56.075 -53.538  1.00  0.00    -0.048 A 
HETATM   13  C   UNL     1     -42.824  54.803 -53.614  1.00  0.00     0.011 A 
HETATM   14  C   UNL     1     -42.126  53.722 -54.158  1.00  0.00     0.043 A 
HETATM   15  C   UNL     1     -40.836  53.907 -54.639  1.00  0.00     0.116 A 
HETATM   16  F   UNL     1     -40.170  52.869 -55.160  1.00  0.00    -0.206 F 
HETATM   17  C   UNL     1     -40.230  55.153 -54.589  1.00  0.00     0.043 A 
HETATM   18  C   UNL     1     -40.926  56.235 -54.046  1.00  0.00     0.011 A 
ENDBRANCH  11  12
BRANCH   1  19
HETATM   19  C   UNL     1     -43.152  58.109 -55.354  1.00  0.00     0.267 C 
HETATM   20  O   UNL     1     -42.178  58.755 -55.717  1.00  0.00    -0.265 OA
BRANCH  19  21
HETATM   21  O   UNL     1     -43.889  57.280 -56.146  1.00  0.00    -0.316 OA
BRANCH  21  22
HETATM   22  C   UNL     1     -43.317  56.911 -57.414  1.00  0.00     0.123 C 
HETATM   23  C   UNL     1     -44.326  57.163 -58.530  1.00  0.00     0.040 C 
HETATM   24  C   UNL     1     -42.980  55.427 -57.329  1.00  0.00     0.040 C 
ENDBRANCH  21  22
ENDBRANCH  19  21
ENDBRANCH   1  19
BRANCH   2  25
HETATM   25  O   UNL     1     -44.416  60.455 -54.599  1.00  0.00    -0.389 OA
HETATM   26  H   UNL     1     -45.388  60.350 -54.631  1.00  0.00     0.210 HD
ENDBRANCH   2  25
BRANCH   7  27
HETATM   27  O   UNL     1     -41.100  56.376 -50.418  1.00  0.00    -0.343 OA
HETATM   28  H   UNL     1     -41.764  56.202 -49.735  1.00  0.00     0.219 HD
ENDBRANCH   7  27
TORSDOF 6
ENDMDL
MODEL 6
REMARK VINA RESULT:      -6.5     16.513     18.247
REMARK  6 active torsions:
REMARK  status: ('A' for Active; 'I' for Inactive)
REMARK    1  A    between atoms: C_2  and  O_3 
REMARK    2  A    between atoms: O_3  and  C_4 
REMARK    3  A    between atoms: C_4  and  C_5 
REMARK    4  A    between atoms: C_6  and  O_7 
REMARK    5  A    between atoms: C_12  and  O_13 
REMARK    6  A    between atoms: C_17  and  C_18 
ROOT
HETATM    1  C   UNL     1     -36.305  39.997 -53.041  1.00  0.00     0.133 C 
HETATM    2  C   UNL     1     -35.574  39.939 -51.655  1.00  0.00     0.073 C 
HETATM    3  C   UNL     1     -35.256  38.473 -51.300  1.00  0.00     0.047 C 
HETATM    4  C   UNL     1     -34.270  40.789 -51.609  1.00  0.00     0.097 C 
HETATM    5  C   UNL     1     -33.480  40.542 -52.833  1.00  0.00     0.042 A 
HETATM    6  C   UNL     1     -33.957  40.081 -54.041  1.00  0.00     0.030 A 
HETATM    7  C   UNL     1     -32.789  39.948 -54.813  1.00  0.00     0.190 A 
HETATM    8  N   UNL     1     -31.683  40.306 -54.172  1.00  0.00    -0.149 NA
HETATM    9  N   UNL     1     -32.129  40.680 -52.961  1.00  0.00    -0.279 N 
HETATM   10  H   UNL     1     -31.450  40.993 -52.275  1.00  0.00     0.189 HD
HETATM   11  C   UNL     1     -35.395  39.742 -54.282  1.00  0.00     0.074 C 
ENDROOT
BRANCH  11  12
HETATM   12  C   UNL     1     -35.800  40.445 -55.572  1.00  0.00    -0.048 A 
HETATM   13  C   UNL     1     -36.719  39.824 -56.436  1.00  0.00     0.011 A 
HETATM   14  C   UNL     1     -37.117  40.448 -57.622  1.00  0.00     0.043 A 
HETATM   15  C   UNL     1     -36.607  41.698 -57.947  1.00  0.00     0.116 A 
HETATM   16  F   UNL     1     -36.990  42.292 -59.085  1.00  0.00    -0.206 F 
HETATM   17  C   UNL     1     -35.707  42.340 -57.110  1.00  0.00     0.043 A 
HETATM   18  C   UNL     1     -35.310  41.720 -55.924  1.00  0.00     0.011 A 
ENDBRANCH  11  12
BRANCH   1  19
HETATM   19  C   UNL     1     -37.104  41.280 -53.147  1.00  0.00     0.267 C 
HETATM   20  O   UNL     1     -36.690  42.388 -52.832  1.00  0.00    -0.265 OA
BRANCH  19  21
HETATM   21  O   UNL     1     -38.363  41.004 -53.590  1.00  0.00    -0.316 OA
BRANCH  21  22
HETATM   22  C   UNL     1     -39.446  41.251 -52.674  1.00  0.00     0.123 C 
HETATM   23  C   UNL     1     -39.699  40.008 -51.826  1.00  0.00     0.040 C 
HETATM   24  C   UNL     1     -40.671  41.576 -53.521  1.00  0.00     0.040 C 
ENDBRANCH  21  22
ENDBRANCH  19  21
ENDBRANCH   1  19
BRANCH   2  25
HETATM   25  O   UNL     1     -36.455  40.383 -50.608  1.00  0.00    -0.389 OA
HETATM   26  H   UNL     1     -36.002  40.243 -49.752  1.00  0.00     0.210 HD
ENDBRANCH   2  25
BRANCH   7  27
HETATM   27  O   UNL     1     -32.637  39.519 -56.067  1.00  0.00    -0.343 OA
HETATM   28  H   UNL     1     -31.799  39.849 -56.424  1.00  0.00     0.219 HD
ENDBRANCH   7  27
TORSDOF 6
ENDMDL
MODEL 7
REMARK VINA RESULT:      -6.5      2.677      4.676
REMARK  6 active torsions:
REMARK  status: ('A' for Active; 'I' for Inactive)
REMARK    1  A    between atoms: C_2  and  O_3 
REMARK    2  A    between atoms: O_3  and  C_4 
REMARK    3  A    between atoms: C_4  and  C_5 
REMARK    4  A    between atoms: C_6  and  O_7 
REMARK    5  A    between atoms: C_12  and  O_13 
REMARK    6  A    between atoms: C_17  and  C_18 
ROOT
HETATM    1  C   UNL     1     -43.087  56.863 -53.331  1.00  0.00     0.133 C 
HETATM    2  C   UNL     1     -43.675  56.395 -54.707  1.00  0.00     0.073 C 
HETATM    3  C   UNL     1     -45.136  56.869 -54.833  1.00  0.00     0.047 C 
HETATM    4  C   UNL     1     -42.851  56.891 -55.932  1.00  0.00     0.097 C 
HETATM    5  C   UNL     1     -42.524  58.321 -55.756  1.00  0.00     0.042 A 
HETATM    6  C   UNL     1     -42.467  59.012 -54.565  1.00  0.00     0.030 A 
HETATM    7  C   UNL     1     -42.203  60.330 -54.975  1.00  0.00     0.190 A 
HETATM    8  N   UNL     1     -42.084  60.466 -56.290  1.00  0.00    -0.149 NA
HETATM    9  N   UNL     1     -42.271  59.218 -56.752  1.00  0.00    -0.279 N 
HETATM   10  H   UNL     1     -42.235  59.067 -57.755  1.00  0.00     0.189 HD
HETATM   11  C   UNL     1     -42.753  58.384 -53.236  1.00  0.00     0.074 C 
ENDROOT
BRANCH  11  12
HETATM   12  C   UNL     1     -41.601  58.766 -52.314  1.00  0.00    -0.048 A 
HETATM   13  C   UNL     1     -41.869  59.084 -50.971  1.00  0.00     0.011 A 
HETATM   14  C   UNL     1     -40.833  59.429 -50.100  1.00  0.00     0.043 A 
HETATM   15  C   UNL     1     -39.523  59.450 -50.560  1.00  0.00     0.116 A 
HETATM   16  F   UNL     1     -38.533  59.783 -49.722  1.00  0.00    -0.206 F 
HETATM   17  C   UNL     1     -39.226  59.131 -51.877  1.00  0.00     0.043 A 
HETATM   18  C   UNL     1     -40.259  58.785 -52.749  1.00  0.00     0.011 A 
ENDBRANCH  11  12
BRANCH   1  19
HETATM   19  C   UNL     1     -41.922  55.977 -52.943  1.00  0.00     0.267 C 
HETATM   20  O   UNL     1     -40.960  55.732 -53.660  1.00  0.00    -0.265 OA
BRANCH  19  21
HETATM   21  O   UNL     1     -42.135  55.452 -51.703  1.00  0.00    -0.316 OA
BRANCH  21  22
HETATM   22  C   UNL     1     -40.972  55.196 -50.894  1.00  0.00     0.123 C 
HETATM   23  C   UNL     1     -40.689  53.698 -50.854  1.00  0.00     0.040 C 
HETATM   24  C   UNL     1     -41.287  55.715 -49.496  1.00  0.00     0.040 C 
ENDBRANCH  21  22
ENDBRANCH  19  21
ENDBRANCH   1  19
BRANCH   2  25
HETATM   25  O   UNL     1     -43.755  54.959 -54.753  1.00  0.00    -0.389 OA
HETATM   26  H   UNL     1     -44.697  54.710 -54.833  1.00  0.00     0.210 HD
ENDBRANCH   2  25
BRANCH   7  27
HETATM   27  O   UNL     1     -42.064  61.441 -54.248  1.00  0.00    -0.343 OA
HETATM   28  H   UNL     1     -41.618  61.231 -53.414  1.00  0.00     0.219 HD
ENDBRANCH   7  27
TORSDOF 6
ENDMDL
MODEL 8
REMARK VINA RESULT:      -6.4      3.261      6.260
REMARK  6 active torsions:
REMARK  status: ('A' for Active; 'I' for Inactive)
REMARK    1  A    between atoms: C_2  and  O_3 
REMARK    2  A    between atoms: O_3  and  C_4 
REMARK    3  A    between atoms: C_4  and  C_5 
REMARK    4  A    between atoms: C_6  and  O_7 
REMARK    5  A    between atoms: C_12  and  O_13 
REMARK    6  A    between atoms: C_17  and  C_18 
ROOT
HETATM    1  C   UNL     1     -41.371  56.871 -54.157  1.00  0.00     0.133 C 
HETATM    2  C   UNL     1     -41.556  55.455 -54.805  1.00  0.00     0.073 C 
HETATM    3  C   UNL     1     -40.234  54.668 -54.712  1.00  0.00     0.047 C 
HETATM    4  C   UNL     1     -42.710  54.629 -54.164  1.00  0.00     0.097 C 
HETATM    5  C   UNL     1     -42.621  54.723 -52.692  1.00  0.00     0.042 A 
HETATM    6  C   UNL     1     -42.005  55.721 -51.966  1.00  0.00     0.030 A 
HETATM    7  C   UNL     1     -42.142  55.278 -50.639  1.00  0.00     0.190 A 
HETATM    8  N   UNL     1     -42.793  54.127 -50.525  1.00  0.00    -0.149 NA
HETATM    9  N   UNL     1     -43.091  53.808 -51.796  1.00  0.00    -0.279 N 
HETATM   10  H   UNL     1     -43.594  52.943 -51.969  1.00  0.00     0.189 HD
HETATM   11  C   UNL     1     -41.304  56.883 -52.598  1.00  0.00     0.074 C 
ENDROOT
BRANCH  11  12
HETATM   12  C   UNL     1     -41.828  58.137 -51.909  1.00  0.00    -0.048 A 
HETATM   13  C   UNL     1     -43.212  58.286 -51.708  1.00  0.00     0.011 A 
HETATM   14  C   UNL     1     -43.722  59.420 -51.072  1.00  0.00     0.043 A 
HETATM   15  C   UNL     1     -42.855  60.408 -50.623  1.00  0.00     0.116 A 
HETATM   16  F   UNL     1     -43.348  61.494 -50.014  1.00  0.00    -0.206 F 
HETATM   17  C   UNL     1     -41.484  60.284 -50.797  1.00  0.00     0.043 A 
HETATM   18  C   UNL     1     -40.972  59.151 -51.431  1.00  0.00     0.011 A 
ENDBRANCH  11  12
BRANCH   1  19
HETATM   19  C   UNL     1     -42.404  57.829 -54.712  1.00  0.00     0.267 C 
HETATM   20  O   UNL     1     -43.584  57.558 -54.889  1.00  0.00    -0.265 OA
BRANCH  19  21
HETATM   21  O   UNL     1     -41.809  59.012 -55.034  1.00  0.00    -0.316 OA
BRANCH  21  22
HETATM   22  C   UNL     1     -42.674  60.085 -55.452  1.00  0.00     0.123 C 
HETATM   23  C   UNL     1     -42.110  60.745 -56.707  1.00  0.00     0.040 C 
HETATM   24  C   UNL     1     -42.722  61.083 -54.302  1.00  0.00     0.040 C 
ENDBRANCH  21  22
ENDBRANCH  19  21
ENDBRANCH   1  19
BRANCH   2  25
HETATM   25  O   UNL     1     -41.805  55.581 -56.216  1.00  0.00    -0.389 OA
HETATM   26  H   UNL     1     -42.092  54.709 -56.553  1.00  0.00     0.210 HD
ENDBRANCH   2  25
BRANCH   7  27
HETATM   27  O   UNL     1     -41.714  55.833 -49.504  1.00  0.00    -0.343 OA
HETATM   28  H   UNL     1     -41.116  56.569 -49.706  1.00  0.00     0.219 HD
ENDBRANCH   7  27
TORSDOF 6
ENDMDL
MODEL 9
REMARK VINA RESULT:      -6.4     16.765     19.298
REMARK  6 active torsions:
REMARK  status: ('A' for Active; 'I' for Inactive)
REMARK    1  A    between atoms: C_2  and  O_3 
REMARK    2  A    between atoms: O_3  and  C_4 
REMARK    3  A    between atoms: C_4  and  C_5 
REMARK    4  A    between atoms: C_6  and  O_7 
REMARK    5  A    between atoms: C_12  and  O_13 
REMARK    6  A    between atoms: C_17  and  C_18 
ROOT
HETATM    1  C   UNL     1     -36.035  40.592 -55.806  1.00  0.00     0.133 C 
HETATM    2  C   UNL     1     -36.835  41.598 -54.908  1.00  0.00     0.073 C 
HETATM    3  C   UNL     1     -37.896  40.832 -54.094  1.00  0.00     0.047 C 
HETATM    4  C   UNL     1     -35.929  42.426 -53.950  1.00  0.00     0.097 C 
HETATM    5  C   UNL     1     -34.952  41.528 -53.301  1.00  0.00     0.042 A 
HETATM    6  C   UNL     1     -34.519  40.306 -53.769  1.00  0.00     0.030 A 
HETATM    7  C   UNL     1     -33.677  39.852 -52.740  1.00  0.00     0.190 A 
HETATM    8  N   UNL     1     -33.566  40.702 -51.727  1.00  0.00    -0.149 NA
HETATM    9  N   UNL     1     -34.346  41.732 -52.096  1.00  0.00    -0.279 N 
HETATM   10  H   UNL     1     -34.430  42.521 -51.463  1.00  0.00     0.189 HD
HETATM   11  C   UNL     1     -35.012  39.693 -55.044  1.00  0.00     0.074 C 
ENDROOT
BRANCH  11  12
HETATM   12  C   UNL     1     -33.777  39.262 -55.827  1.00  0.00    -0.048 A 
HETATM   13  C   UNL     1     -33.824  38.084 -56.592  1.00  0.00     0.011 A 
HETATM   14  C   UNL     1     -32.712  37.667 -57.328  1.00  0.00     0.043 A 
HETATM   15  C   UNL     1     -31.550  38.429 -57.313  1.00  0.00     0.116 A 
HETATM   16  F   UNL     1     -30.486  38.026 -58.020  1.00  0.00    -0.206 F 
HETATM   17  C   UNL     1     -31.478  39.602 -56.577  1.00  0.00     0.043 A 
HETATM   18  C   UNL     1     -32.588  40.021 -55.842  1.00  0.00     0.011 A 
ENDBRANCH  11  12
BRANCH   1  19
HETATM   19  C   UNL     1     -35.418  41.328 -56.977  1.00  0.00     0.267 C 
HETATM   20  O   UNL     1     -34.789  42.374 -56.892  1.00  0.00    -0.265 OA
BRANCH  19  21
HETATM   21  O   UNL     1     -35.718  40.680 -58.138  1.00  0.00    -0.316 OA
BRANCH  21  22
HETATM   22  C   UNL     1     -37.081  40.756 -58.594  1.00  0.00     0.123 C 
HETATM   23  C   UNL     1     -37.411  39.535 -59.448  1.00  0.00     0.040 C 
HETATM   24  C   UNL     1     -37.196  42.030 -59.422  1.00  0.00     0.040 C 
ENDBRANCH  21  22
ENDBRANCH  19  21
ENDBRANCH   1  19
BRANCH   2  25
HETATM   25  O   UNL     1     -37.592  42.505 -55.729  1.00  0.00    -0.389 OA
HETATM   26  H   UNL     1     -38.485  42.594 -55.338  1.00  0.00     0.210 HD
ENDBRANCH   2  25
BRANCH   7  27
HETATM   27  O   UNL     1     -32.992  38.710 -52.635  1.00  0.00    -0.343 OA
HETATM   28  H   UNL     1     -32.064  38.865 -52.866  1.00  0.00     0.219 HD
ENDBRANCH   7  27
TORSDOF 6
ENDMDL
MODEL 10
REMARK VINA RESULT:      -6.4      3.637      6.151
REMARK  6 active torsions:
REMARK  status: ('A' for Active; 'I' for Inactive)
REMARK    1  A    between atoms: C_2  and  O_3 
REMARK    2  A    between atoms: O_3  and  C_4 
REMARK    3  A    between atoms: C_4  and  C_5 
REMARK    4  A    between atoms: C_6  and  O_7 
REMARK    5  A    between atoms: C_12  and  O_13 
REMARK    6  A    between atoms: C_17  and  C_18 
ROOT
HETATM    1  C   UNL     1     -42.234  56.469 -54.075  1.00  0.00     0.133 C 
HETATM    2  C   UNL     1     -41.741  55.038 -54.488  1.00  0.00     0.073 C 
HETATM    3  C   UNL     1     -40.205  55.035 -54.607  1.00  0.00     0.047 C 
HETATM    4  C   UNL     1     -42.198  53.921 -53.505  1.00  0.00     0.097 C 
HETATM    5  C   UNL     1     -41.973  54.369 -52.115  1.00  0.00     0.042 A 
HETATM    6  C   UNL     1     -41.875  55.672 -51.675  1.00  0.00     0.030 A 
HETATM    7  C   UNL     1     -41.580  55.524 -50.309  1.00  0.00     0.190 A 
HETATM    8  N   UNL     1     -41.515  54.260 -49.911  1.00  0.00    -0.149 NA
HETATM    9  N   UNL     1     -41.773  53.564 -51.031  1.00  0.00    -0.279 N 
HETATM   10  H   UNL     1     -41.770  52.551 -50.978  1.00  0.00     0.189 HD
HETATM   11  C   UNL     1     -41.974  56.856 -52.587  1.00  0.00     0.074 C 
ENDROOT
BRANCH  11  12
HETATM   12  C   UNL     1     -42.975  57.813 -51.952  1.00  0.00    -0.048 A 
HETATM   13  C   UNL     1     -42.647  59.175 -51.834  1.00  0.00     0.011 A 
HETATM   14  C   UNL     1     -43.547  60.079 -51.266  1.00  0.00     0.043 A 
HETATM   15  C   UNL     1     -44.785  59.632 -50.821  1.00  0.00     0.116 A 
HETATM   16  F   UNL     1     -45.645  60.502 -50.276  1.00  0.00    -0.206 F 
HETATM   17  C   UNL     1     -45.142  58.297 -50.934  1.00  0.00     0.043 A 
HETATM   18  C   UNL     1     -44.244  57.392 -51.503  1.00  0.00     0.011 A 
ENDBRANCH  11  12
BRANCH   1  19
HETATM   19  C   UNL     1     -43.679  56.654 -54.490  1.00  0.00     0.267 C 
HETATM   20  O   UNL     1     -44.561  55.818 -54.341  1.00  0.00    -0.265 OA
BRANCH  19  21
HETATM   21  O   UNL     1     -43.832  57.862 -55.101  1.00  0.00    -0.316 OA
BRANCH  21  22
HETATM   22  C   UNL     1     -45.173  58.376 -55.205  1.00  0.00     0.123 C 
HETATM   23  C   UNL     1     -45.581  58.464 -56.672  1.00  0.00     0.040 C 
HETATM   24  C   UNL     1     -45.162  59.763 -54.573  1.00  0.00     0.040 C 
ENDBRANCH  21  22
ENDBRANCH  19  21
ENDBRANCH   1  19
BRANCH   2  25
HETATM   25  O   UNL     1     -42.208  54.712 -55.809  1.00  0.00    -0.389 OA
HETATM   26  H   UNL     1     -42.092  55.501 -56.375  1.00  0.00     0.210 HD
ENDBRANCH   2  25
BRANCH   7  27
HETATM   27  O   UNL     1     -41.355  56.453 -49.377  1.00  0.00    -0.343 OA
HETATM   28  H   UNL     1     -41.958  57.200 -49.509  1.00  0.00     0.219 HD
ENDBRANCH   7  27
TORSDOF 6
ENDMDL
