MODEL 1
REMARK VINA RESULT:      -7.3      0.000      0.000
REMARK  6 active torsions:
REMARK  status: ('A' for Active; 'I' for Inactive)
REMARK    1  A    between atoms: C_2  and  C_3 
REMARK    2  A    between atoms: C_3  and  N_4 
REMARK       I    between atoms: N_4  and  C_5 
REMARK    3  A    between atoms: C_5  and  C_6 
REMARK    4  A    between atoms: C_11  and  C_12 
REMARK    5  A    between atoms: C_15  and  O_16 
REMARK    6  A    between atoms: C_21  and  C_22 
ROOT
HETATM    1  C   UNL     1     -35.672  39.907 -52.278  1.00  0.00     0.170 A 
HETATM    2  N   UNL     1     -34.658  40.326 -53.079  1.00  0.00    -0.163 NA
HETATM    3  N   UNL     1     -35.287  40.989 -54.066  1.00  0.00    -0.238 N 
HETATM    4  C   UNL     1     -36.639  41.088 -53.899  1.00  0.00     0.145 A 
HETATM    5  N   UNL     1     -37.407  41.789 -54.769  1.00  0.00    -0.365 N 
HETATM    6  C   UNL     1     -36.878  42.344 -56.010  1.00  0.00     0.118 C 
HETATM    7  C   UNL     1     -35.386  42.687 -55.840  1.00  0.00     0.066 C 
HETATM    8  C   UNL     1     -34.552  41.581 -55.167  1.00  0.00     0.221 C 
HETATM    9  C   UNL     1     -36.927  40.375 -52.759  1.00  0.00     0.115 A 
HETATM   10 CL   UNL     1     -38.464  40.126 -52.084  1.00  0.00    -0.077 Cl
HETATM   11  H   UNL     1     -38.425  41.751 -54.702  1.00  0.00     0.162 HD
ENDROOT
BRANCH   6  12
HETATM   12  C   UNL     1     -37.217  41.507 -57.231  1.00  0.00    -0.035 A 
HETATM   13  C   UNL     1     -37.906  40.287 -57.156  1.00  0.00     0.012 A 
HETATM   14  C   UNL     1     -38.224  39.569 -58.312  1.00  0.00     0.037 A 
HETATM   15  C   UNL     1     -37.876  40.052 -59.573  1.00  0.00     0.068 A 
HETATM   16  C   UNL     1     -37.193  41.262 -59.667  1.00  0.00     0.037 A 
HETATM   17  C   UNL     1     -36.870  41.982 -58.509  1.00  0.00     0.012 A 
BRANCH  15  18
HETATM   18  O   UNL     1     -38.257  39.257 -60.617  1.00  0.00    -0.356 OA
HETATM   19  C   UNL     1     -38.973  38.072 -60.295  1.00  0.00     0.210 C 
ENDBRANCH  15  18
ENDBRANCH   6  12
BRANCH   8  20
HETATM   20  C   UNL     1     -34.076  40.504 -56.116  1.00  0.00     0.409 C 
HETATM   21  F   UNL     1     -34.889  39.435 -56.179  1.00  0.00    -0.169 F 
HETATM   22  F   UNL     1     -33.970  41.004 -57.375  1.00  0.00    -0.169 F 
HETATM   23  F   UNL     1     -32.843  40.055 -55.785  1.00  0.00    -0.169 F 
ENDBRANCH   8  20
BRANCH   1  24
HETATM   24  C   UNL     1     -35.401  39.080 -51.092  1.00  0.00     0.273 C 
HETATM   25  N   UNL     1     -34.422  39.614 -50.279  1.00  0.00    -0.356 N 
HETATM   26  H   UNL     1     -33.977  40.457 -50.631  1.00  0.00     0.162 HD
HETATM   27  O   UNL     1     -35.967  38.018 -50.854  1.00  0.00    -0.266 OA
BRANCH  25  28
HETATM   28  C   UNL     1     -33.878  38.916 -49.139  1.00  0.00     0.122 C 
BRANCH  28  29
HETATM   29  C   UNL     1     -32.434  39.316 -48.844  1.00  0.00     0.015 C 
HETATM   30  C   UNL     1     -31.690  39.780 -50.088  1.00  0.00     0.006 C 
ENDBRANCH  28  29
ENDBRANCH  25  28
ENDBRANCH   1  24
TORSDOF 6
ENDMDL
MODEL 2
REMARK VINA RESULT:      -7.2     16.377     19.097
REMARK  6 active torsions:
REMARK  status: ('A' for Active; 'I' for Inactive)
REMARK    1  A    between atoms: C_2  and  C_3 
REMARK    2  A    between atoms: C_3  and  N_4 
REMARK       I    between atoms: N_4  and  C_5 
REMARK    3  A    between atoms: C_5  and  C_6 
REMARK    4  A    between atoms: C_11  and  C_12 
REMARK    5  A    between atoms: C_15  and  O_16 
REMARK    6  A    between atoms: C_21  and  C_22 
ROOT
HETATM    1  C   UNL     1     -43.331  55.907 -57.220  1.00  0.00     0.170 A 
HETATM    2  N   UNL     1     -42.676  54.950 -56.513  1.00  0.00    -0.163 NA
HETATM    3  N   UNL     1     -42.841  55.331 -55.234  1.00  0.00    -0.238 N 
HETATM    4  C   UNL     1     -43.632  56.433 -55.078  1.00  0.00     0.145 A 
HETATM    5  N   UNL     1     -43.954  56.901 -53.847  1.00  0.00    -0.365 N 
HETATM    6  C   UNL     1     -43.363  56.366 -52.626  1.00  0.00     0.118 C 
HETATM    7  C   UNL     1     -42.997  54.883 -52.823  1.00  0.00     0.066 C 
HETATM    8  C   UNL     1     -42.259  54.579 -54.139  1.00  0.00     0.221 C 
HETATM    9  C   UNL     1     -43.948  56.849 -56.350  1.00  0.00     0.115 A 
HETATM   10 CL   UNL     1     -44.886  58.199 -56.769  1.00  0.00    -0.077 Cl
HETATM   11  H   UNL     1     -44.441  57.792 -53.747  1.00  0.00     0.162 HD
ENDROOT
BRANCH   6  12
HETATM   12  C   UNL     1     -42.252  57.240 -52.069  1.00  0.00    -0.035 A 
HETATM   13  C   UNL     1     -41.804  58.407 -52.705  1.00  0.00     0.012 A 
HETATM   14  C   UNL     1     -40.800  59.196 -52.135  1.00  0.00     0.037 A 
HETATM   15  C   UNL     1     -40.227  58.851 -50.911  1.00  0.00     0.068 A 
HETATM   16  C   UNL     1     -40.661  57.697 -50.265  1.00  0.00     0.037 A 
HETATM   17  C   UNL     1     -41.664  56.903 -50.836  1.00  0.00     0.012 A 
BRANCH  15  18
HETATM   18  O   UNL     1     -39.267  59.715 -50.465  1.00  0.00    -0.356 OA
HETATM   19  C   UNL     1     -37.916  59.291 -50.581  1.00  0.00     0.210 C 
ENDBRANCH  15  18
ENDBRANCH   6  12
BRANCH   8  20
HETATM   20  C   UNL     1     -40.767  54.817 -54.078  1.00  0.00     0.409 C 
HETATM   21  F   UNL     1     -40.400  56.067 -54.413  1.00  0.00    -0.169 F 
HETATM   22  F   UNL     1     -40.308  54.586 -52.820  1.00  0.00    -0.169 F 
HETATM   23  F   UNL     1     -40.091  53.967 -54.886  1.00  0.00    -0.169 F 
ENDBRANCH   8  20
BRANCH   1  24
HETATM   24  C   UNL     1     -43.337  55.884 -58.691  1.00  0.00     0.273 C 
HETATM   25  N   UNL     1     -44.551  55.487 -59.215  1.00  0.00    -0.356 N 
HETATM   26  H   UNL     1     -45.248  55.204 -58.531  1.00  0.00     0.162 HD
HETATM   27  O   UNL     1     -42.366  56.167 -59.384  1.00  0.00    -0.266 OA
BRANCH  25  28
HETATM   28  C   UNL     1     -44.759  55.243 -60.622  1.00  0.00     0.122 C 
BRANCH  28  29
HETATM   29  C   UNL     1     -46.087  55.809 -61.122  1.00  0.00     0.015 C 
HETATM   30  C   UNL     1     -46.884  56.491 -60.019  1.00  0.00     0.006 C 
ENDBRANCH  28  29
ENDBRANCH  25  28
ENDBRANCH   1  24
TORSDOF 6
ENDMDL
MODEL 3
REMARK VINA RESULT:      -7.1     16.241     18.830
REMARK  6 active torsions:
REMARK  status: ('A' for Active; 'I' for Inactive)
REMARK    1  A    between atoms: C_2  and  C_3 
REMARK    2  A    between atoms: C_3  and  N_4 
REMARK       I    between atoms: N_4  and  C_5 
REMARK    3  A    between atoms: C_5  and  C_6 
REMARK    4  A    between atoms: C_11  and  C_12 
REMARK    5  A    between atoms: C_15  and  O_16 
REMARK    6  A    between atoms: C_21  and  C_22 
ROOT
HETATM    1  C   UNL     1     -42.671  58.063 -56.309  1.00  0.00     0.170 A 
HETATM    2  N   UNL     1     -41.918  56.937 -56.405  1.00  0.00    -0.163 NA
HETATM    3  N   UNL     1     -42.401  56.148 -55.430  1.00  0.00    -0.238 N 
HETATM    4  C   UNL     1     -43.473  56.672 -54.766  1.00  0.00     0.145 A 
HETATM    5  N   UNL     1     -44.119  55.969 -53.804  1.00  0.00    -0.365 N 
HETATM    6  C   UNL     1     -43.629  54.689 -53.306  1.00  0.00     0.118 C 
HETATM    7  C   UNL     1     -42.851  53.956 -54.414  1.00  0.00     0.066 C 
HETATM    8  C   UNL     1     -41.839  54.836 -55.170  1.00  0.00     0.221 C 
HETATM    9  C   UNL     1     -43.661  57.927 -55.296  1.00  0.00     0.115 A 
HETATM   10 CL   UNL     1     -44.839  59.056 -54.828  1.00  0.00    -0.077 Cl
HETATM   11  H   UNL     1     -44.837  56.419 -53.234  1.00  0.00     0.162 HD
ENDROOT
BRANCH   6  12
HETATM   12  C   UNL     1     -42.909  54.804 -51.973  1.00  0.00    -0.035 A 
HETATM   13  C   UNL     1     -42.405  53.695 -51.277  1.00  0.00     0.012 A 
HETATM   14  C   UNL     1     -41.720  53.856 -50.069  1.00  0.00     0.037 A 
HETATM   15  C   UNL     1     -41.508  55.124 -49.529  1.00  0.00     0.068 A 
HETATM   16  C   UNL     1     -42.001  56.236 -50.208  1.00  0.00     0.037 A 
HETATM   17  C   UNL     1     -42.690  56.077 -51.417  1.00  0.00     0.012 A 
BRANCH  15  18
HETATM   18  O   UNL     1     -40.815  55.137 -48.352  1.00  0.00    -0.356 OA
HETATM   19  C   UNL     1     -40.286  53.897 -47.904  1.00  0.00     0.210 C 
ENDBRANCH  15  18
ENDBRANCH   6  12
BRANCH   8  20
HETATM   20  C   UNL     1     -40.500  54.969 -54.480  1.00  0.00     0.409 C 
HETATM   21  F   UNL     1     -40.355  56.112 -53.786  1.00  0.00    -0.169 F 
HETATM   22  F   UNL     1     -40.321  53.943 -53.607  1.00  0.00    -0.169 F 
HETATM   23  F   UNL     1     -39.474  54.896 -55.360  1.00  0.00    -0.169 F 
ENDBRANCH   8  20
BRANCH   1  24
HETATM   24  C   UNL     1     -42.413  59.218 -57.183  1.00  0.00     0.273 C 
HETATM   25  N   UNL     1     -43.197  59.215 -58.319  1.00  0.00    -0.356 N 
HETATM   26  H   UNL     1     -43.791  58.398 -58.436  1.00  0.00     0.162 HD
HETATM   27  O   UNL     1     -41.580  60.085 -56.944  1.00  0.00    -0.266 OA
BRANCH  25  28
HETATM   28  C   UNL     1     -43.025  60.159 -59.397  1.00  0.00     0.122 C 
BRANCH  28  29
HETATM   29  C   UNL     1     -42.073  59.645 -60.475  1.00  0.00     0.015 C 
HETATM   30  C   UNL     1     -41.932  58.130 -60.458  1.00  0.00     0.006 C 
ENDBRANCH  28  29
ENDBRANCH  25  28
ENDBRANCH   1  24
TORSDOF 6
ENDMDL
MODEL 4
REMARK VINA RESULT:      -7.1     16.562     19.168
REMARK  6 active torsions:
REMARK  status: ('A' for Active; 'I' for Inactive)
REMARK    1  A    between atoms: C_2  and  C_3 
REMARK    2  A    between atoms: C_3  and  N_4 
REMARK       I    between atoms: N_4  and  C_5 
REMARK    3  A    between atoms: C_5  and  C_6 
REMARK    4  A    between atoms: C_11  and  C_12 
REMARK    5  A    between atoms: C_15  and  O_16 
REMARK    6  A    between atoms: C_21  and  C_22 
ROOT
HETATM    1  C   UNL     1     -43.096  56.127 -57.238  1.00  0.00     0.170 A 
HETATM    2  N   UNL     1     -42.392  55.177 -56.570  1.00  0.00    -0.163 NA
HETATM    3  N   UNL     1     -42.734  55.373 -55.285  1.00  0.00    -0.238 N 
HETATM    4  C   UNL     1     -43.678  56.342 -55.099  1.00  0.00     0.145 A 
HETATM    5  N   UNL     1     -44.182  56.610 -53.870  1.00  0.00    -0.365 N 
HETATM    6  C   UNL     1     -43.649  56.004 -52.655  1.00  0.00     0.118 C 
HETATM    7  C   UNL     1     -43.069  54.613 -52.972  1.00  0.00     0.066 C 
HETATM    8  C   UNL     1     -42.169  54.568 -54.220  1.00  0.00     0.221 C 
HETATM    9  C   UNL     1     -43.919  56.871 -56.346  1.00  0.00     0.115 A 
HETATM   10 CL   UNL     1     -44.984  58.139 -56.718  1.00  0.00    -0.077 Cl
HETATM   11  H   UNL     1     -44.792  57.416 -53.729  1.00  0.00     0.162 HD
ENDROOT
BRANCH   6  12
HETATM   12  C   UNL     1     -42.727  56.931 -51.881  1.00  0.00    -0.035 A 
HETATM   13  C   UNL     1     -41.901  56.491 -50.836  1.00  0.00     0.012 A 
HETATM   14  C   UNL     1     -41.046  57.378 -50.174  1.00  0.00     0.037 A 
HETATM   15  C   UNL     1     -40.981  58.721 -50.546  1.00  0.00     0.068 A 
HETATM   16  C   UNL     1     -41.793  59.174 -51.582  1.00  0.00     0.037 A 
HETATM   17  C   UNL     1     -42.653  58.288 -52.244  1.00  0.00     0.012 A 
BRANCH  15  18
HETATM   18  O   UNL     1     -40.096  59.472 -49.826  1.00  0.00    -0.356 OA
HETATM   19  C   UNL     1     -38.813  59.681 -50.401  1.00  0.00     0.210 C 
ENDBRANCH  15  18
ENDBRANCH   6  12
BRANCH   8  20
HETATM   20  C   UNL     1     -40.736  54.976 -53.961  1.00  0.00     0.409 C 
HETATM   21  F   UNL     1     -40.274  54.612 -52.751  1.00  0.00    -0.169 F 
HETATM   22  F   UNL     1     -39.915  54.419 -54.890  1.00  0.00    -0.169 F 
HETATM   23  F   UNL     1     -40.570  56.316 -54.071  1.00  0.00    -0.169 F 
ENDBRANCH   8  20
BRANCH   1  24
HETATM   24  C   UNL     1     -42.952  56.287 -58.693  1.00  0.00     0.273 C 
HETATM   25  N   UNL     1     -42.049  57.272 -59.037  1.00  0.00    -0.356 N 
HETATM   26  H   UNL     1     -41.658  57.795 -58.257  1.00  0.00     0.162 HD
HETATM   27  O   UNL     1     -43.578  55.632 -59.519  1.00  0.00    -0.266 OA
BRANCH  25  28
HETATM   28  C   UNL     1     -41.846  57.716 -60.395  1.00  0.00     0.122 C 
BRANCH  28  29
HETATM   29  C   UNL     1     -42.067  59.218 -60.557  1.00  0.00     0.015 C 
HETATM   30  C   UNL     1     -42.233  59.933 -59.223  1.00  0.00     0.006 C 
ENDBRANCH  28  29
ENDBRANCH  25  28
ENDBRANCH   1  24
TORSDOF 6
ENDMDL
MODEL 5
REMARK VINA RESULT:      -7.0     16.904     18.572
REMARK  6 active torsions:
REMARK  status: ('A' for Active; 'I' for Inactive)
REMARK    1  A    between atoms: C_2  and  C_3 
REMARK    2  A    between atoms: C_3  and  N_4 
REMARK       I    between atoms: N_4  and  C_5 
REMARK    3  A    between atoms: C_5  and  C_6 
REMARK    4  A    between atoms: C_11  and  C_12 
REMARK    5  A    between atoms: C_15  and  O_16 
REMARK    6  A    between atoms: C_21  and  C_22 
ROOT
HETATM    1  C   UNL     1     -41.536  54.361 -53.339  1.00  0.00     0.170 A 
HETATM    2  N   UNL     1     -41.459  55.017 -52.152  1.00  0.00    -0.163 NA
HETATM    3  N   UNL     1     -42.477  55.894 -52.207  1.00  0.00    -0.238 N 
HETATM    4  C   UNL     1     -43.250  55.783 -53.328  1.00  0.00     0.145 A 
HETATM    5  N   UNL     1     -44.356  56.547 -53.500  1.00  0.00    -0.365 N 
HETATM    6  C   UNL     1     -44.708  57.633 -52.593  1.00  0.00     0.118 C 
HETATM    7  C   UNL     1     -44.189  57.324 -51.176  1.00  0.00     0.066 C 
HETATM    8  C   UNL     1     -42.733  56.826 -51.127  1.00  0.00     0.221 C 
HETATM    9  C   UNL     1     -42.652  54.812 -54.098  1.00  0.00     0.115 A 
HETATM   10 CL   UNL     1     -43.163  54.276 -55.625  1.00  0.00    -0.077 Cl
HETATM   11  H   UNL     1     -44.851  56.540 -54.393  1.00  0.00     0.162 HD
ENDROOT
BRANCH   6  12
HETATM   12  C   UNL     1     -44.343  59.005 -53.134  1.00  0.00    -0.035 A 
HETATM   13  C   UNL     1     -44.576  60.194 -52.427  1.00  0.00     0.012 A 
HETATM   14  C   UNL     1     -44.192  61.430 -52.954  1.00  0.00     0.037 A 
HETATM   15  C   UNL     1     -43.553  61.514 -54.191  1.00  0.00     0.068 A 
HETATM   16  C   UNL     1     -43.312  60.343 -54.906  1.00  0.00     0.037 A 
HETATM   17  C   UNL     1     -43.700  59.103 -54.381  1.00  0.00     0.012 A 
BRANCH  15  18
HETATM   18  O   UNL     1     -43.222  62.780 -54.581  1.00  0.00    -0.356 OA
HETATM   19  C   UNL     1     -43.064  63.748 -53.552  1.00  0.00     0.210 C 
ENDBRANCH  15  18
ENDBRANCH   6  12
BRANCH   8  20
HETATM   20  C   UNL     1     -41.702  57.932 -51.136  1.00  0.00     0.409 C 
HETATM   21  F   UNL     1     -42.146  59.096 -50.629  1.00  0.00    -0.169 F 
HETATM   22  F   UNL     1     -40.615  57.565 -50.409  1.00  0.00    -0.169 F 
HETATM   23  F   UNL     1     -41.249  58.183 -52.387  1.00  0.00    -0.169 F 
ENDBRANCH   8  20
BRANCH   1  24
HETATM   24  C   UNL     1     -40.542  53.338 -53.699  1.00  0.00     0.273 C 
HETATM   25  N   UNL     1     -40.311  52.435 -52.680  1.00  0.00    -0.356 N 
HETATM   26  H   UNL     1     -40.797  52.629 -51.808  1.00  0.00     0.162 HD
HETATM   27  O   UNL     1     -39.963  53.295 -54.779  1.00  0.00    -0.266 OA
BRANCH  25  28
HETATM   28  C   UNL     1     -39.276  51.431 -52.737  1.00  0.00     0.122 C 
BRANCH  28  29
HETATM   29  C   UNL     1     -39.816  50.057 -53.124  1.00  0.00     0.015 C 
HETATM   30  C   UNL     1     -39.771  49.811 -54.626  1.00  0.00     0.006 C 
ENDBRANCH  28  29
ENDBRANCH  25  28
ENDBRANCH   1  24
TORSDOF 6
ENDMDL
MODEL 6
REMARK VINA RESULT:      -7.0     16.884     18.301
REMARK  6 active torsions:
REMARK  status: ('A' for Active; 'I' for Inactive)
REMARK    1  A    between atoms: C_2  and  C_3 
REMARK    2  A    between atoms: C_3  and  N_4 
REMARK       I    between atoms: N_4  and  C_5 
REMARK    3  A    between atoms: C_5  and  C_6 
REMARK    4  A    between atoms: C_11  and  C_12 
REMARK    5  A    between atoms: C_15  and  O_16 
REMARK    6  A    between atoms: C_21  and  C_22 
ROOT
HETATM    1  C   UNL     1     -41.567  55.068 -50.938  1.00  0.00     0.170 A 
HETATM    2  N   UNL     1     -41.078  56.335 -50.979  1.00  0.00    -0.163 NA
HETATM    3  N   UNL     1     -42.155  57.082 -51.274  1.00  0.00    -0.238 N 
HETATM    4  C   UNL     1     -43.323  56.376 -51.345  1.00  0.00     0.145 A 
HETATM    5  N   UNL     1     -44.509  56.995 -51.562  1.00  0.00    -0.365 N 
HETATM    6  C   UNL     1     -44.605  58.413 -51.887  1.00  0.00     0.118 C 
HETATM    7  C   UNL     1     -43.434  59.181 -51.247  1.00  0.00     0.066 C 
HETATM    8  C   UNL     1     -42.057  58.519 -51.442  1.00  0.00     0.221 C 
HETATM    9  C   UNL     1     -42.973  55.059 -51.155  1.00  0.00     0.115 A 
HETATM   10 CL   UNL     1     -44.019  53.723 -51.174  1.00  0.00    -0.077 Cl
HETATM   11  H   UNL     1     -45.351  56.444 -51.735  1.00  0.00     0.162 HD
ENDROOT
BRANCH   6  12
HETATM   12  C   UNL     1     -44.820  58.672 -53.369  1.00  0.00    -0.035 A 
HETATM   13  C   UNL     1     -44.835  57.651 -54.331  1.00  0.00     0.012 A 
HETATM   14  C   UNL     1     -45.069  57.937 -55.679  1.00  0.00     0.037 A 
HETATM   15  C   UNL     1     -45.307  59.245 -56.102  1.00  0.00     0.068 A 
HETATM   16  C   UNL     1     -45.297  60.271 -55.160  1.00  0.00     0.037 A 
HETATM   17  C   UNL     1     -45.060  59.986 -53.809  1.00  0.00     0.012 A 
BRANCH  15  18
HETATM   18  O   UNL     1     -45.532  59.381 -57.443  1.00  0.00    -0.356 OA
HETATM   19  C   UNL     1     -45.667  58.184 -58.197  1.00  0.00     0.210 C 
ENDBRANCH  15  18
ENDBRANCH   6  12
BRANCH   8  20
HETATM   20  C   UNL     1     -41.397  58.847 -52.762  1.00  0.00     0.409 C 
HETATM   21  F   UNL     1     -41.650  57.953 -53.735  1.00  0.00    -0.169 F 
HETATM   22  F   UNL     1     -41.820  60.059 -53.208  1.00  0.00    -0.169 F 
HETATM   23  F   UNL     1     -40.052  58.940 -52.639  1.00  0.00    -0.169 F 
ENDBRANCH   8  20
BRANCH   1  24
HETATM   24  C   UNL     1     -40.674  53.924 -50.696  1.00  0.00     0.273 C 
HETATM   25  N   UNL     1     -40.332  53.258 -51.855  1.00  0.00    -0.356 N 
HETATM   26  H   UNL     1     -40.785  53.596 -52.701  1.00  0.00     0.162 HD
HETATM   27  O   UNL     1     -40.287  53.581 -49.584  1.00  0.00    -0.266 OA
BRANCH  25  28
HETATM   28  C   UNL     1     -39.591  52.020 -51.862  1.00  0.00     0.122 C 
BRANCH  28  29
HETATM   29  C   UNL     1     -39.598  51.343 -53.231  1.00  0.00     0.015 C 
HETATM   30  C   UNL     1     -40.405  52.119 -54.263  1.00  0.00     0.006 C 
ENDBRANCH  28  29
ENDBRANCH  25  28
ENDBRANCH   1  24
TORSDOF 6
ENDMDL
MODEL 7
REMARK VINA RESULT:      -6.9     17.794     19.458
REMARK  6 active torsions:
REMARK  status: ('A' for Active; 'I' for Inactive)
REMARK    1  A    between atoms: C_2  and  C_3 
REMARK    2  A    between atoms: C_3  and  N_4 
REMARK       I    between atoms: N_4  and  C_5 
REMARK    3  A    between atoms: C_5  and  C_6 
REMARK    4  A    between atoms: C_11  and  C_12 
REMARK    5  A    between atoms: C_15  and  O_16 
REMARK    6  A    between atoms: C_21  and  C_22 
ROOT
HETATM    1  C   UNL     1     -44.013  59.934 -51.454  1.00  0.00     0.170 A 
HETATM    2  N   UNL     1     -43.003  59.917 -52.362  1.00  0.00    -0.163 NA
HETATM    3  N   UNL     1     -43.072  58.682 -52.890  1.00  0.00    -0.238 N 
HETATM    4  C   UNL     1     -44.119  57.935 -52.428  1.00  0.00     0.145 A 
HETATM    5  N   UNL     1     -44.369  56.695 -52.916  1.00  0.00    -0.365 N 
HETATM    6  C   UNL     1     -43.464  56.017 -53.836  1.00  0.00     0.118 C 
HETATM    7  C   UNL     1     -42.713  57.053 -54.695  1.00  0.00     0.066 C 
HETATM    8  C   UNL     1     -42.132  58.237 -53.900  1.00  0.00     0.221 C 
HETATM    9  C   UNL     1     -44.737  58.710 -51.475  1.00  0.00     0.115 A 
HETATM   10 CL   UNL     1     -46.085  58.276 -50.539  1.00  0.00    -0.077 Cl
HETATM   11  H   UNL     1     -45.075  56.103 -52.476  1.00  0.00     0.162 HD
ENDROOT
BRANCH   6  12
HETATM   12  C   UNL     1     -42.587  54.979 -53.156  1.00  0.00    -0.035 A 
HETATM   13  C   UNL     1     -41.650  54.198 -53.847  1.00  0.00     0.012 A 
HETATM   14  C   UNL     1     -40.843  53.278 -53.171  1.00  0.00     0.037 A 
HETATM   15  C   UNL     1     -40.939  53.123 -51.788  1.00  0.00     0.068 A 
HETATM   16  C   UNL     1     -41.863  53.892 -51.086  1.00  0.00     0.037 A 
HETATM   17  C   UNL     1     -42.675  54.812 -51.763  1.00  0.00     0.012 A 
BRANCH  15  18
HETATM   18  O   UNL     1     -40.085  52.200 -51.254  1.00  0.00    -0.356 OA
HETATM   19  C   UNL     1     -39.448  51.312 -52.163  1.00  0.00     0.210 C 
ENDBRANCH  15  18
ENDBRANCH   6  12
BRANCH   8  20
HETATM   20  C   UNL     1     -40.786  57.955 -53.271  1.00  0.00     0.409 C 
HETATM   21  F   UNL     1     -39.955  59.013 -53.264  1.00  0.00    -0.169 F 
HETATM   22  F   UNL     1     -40.945  57.560 -51.981  1.00  0.00    -0.169 F 
HETATM   23  F   UNL     1     -40.143  56.941 -53.897  1.00  0.00    -0.169 F 
ENDBRANCH   8  20
BRANCH   1  24
HETATM   24  C   UNL     1     -44.240  61.114 -50.604  1.00  0.00     0.273 C 
HETATM   25  N   UNL     1     -44.323  60.799 -49.263  1.00  0.00    -0.356 N 
HETATM   26  H   UNL     1     -44.284  59.807 -49.045  1.00  0.00     0.162 HD
HETATM   27  O   UNL     1     -44.364  62.255 -51.036  1.00  0.00    -0.266 OA
BRANCH  25  28
HETATM   28  C   UNL     1     -44.689  61.760 -48.250  1.00  0.00     0.122 C 
BRANCH  28  29
HETATM   29  C   UNL     1     -44.745  61.144 -46.854  1.00  0.00     0.015 C 
HETATM   30  C   UNL     1     -46.072  60.455 -46.571  1.00  0.00     0.006 C 
ENDBRANCH  28  29
ENDBRANCH  25  28
ENDBRANCH   1  24
TORSDOF 6
ENDMDL
MODEL 8
REMARK VINA RESULT:      -6.7     16.349     17.641
REMARK  6 active torsions:
REMARK  status: ('A' for Active; 'I' for Inactive)
REMARK    1  A    between atoms: C_2  and  C_3 
REMARK    2  A    between atoms: C_3  and  N_4 
REMARK       I    between atoms: N_4  and  C_5 
REMARK    3  A    between atoms: C_5  and  C_6 
REMARK    4  A    between atoms: C_11  and  C_12 
REMARK    5  A    between atoms: C_15  and  O_16 
REMARK    6  A    between atoms: C_21  and  C_22 
ROOT
HETATM    1  C   UNL     1     -41.997  55.617 -50.449  1.00  0.00     0.170 A 
HETATM    2  N   UNL     1     -41.523  56.868 -50.688  1.00  0.00    -0.163 NA
HETATM    3  N   UNL     1     -42.358  57.350 -51.625  1.00  0.00    -0.238 N 
HETATM    4  C   UNL     1     -43.388  56.509 -51.941  1.00  0.00     0.145 A 
HETATM    5  N   UNL     1     -44.356  56.878 -52.815  1.00  0.00    -0.365 N 
HETATM    6  C   UNL     1     -44.286  58.113 -53.587  1.00  0.00     0.118 C 
HETATM    7  C   UNL     1     -43.499  59.180 -52.804  1.00  0.00     0.066 C 
HETATM    8  C   UNL     1     -42.181  58.674 -52.188  1.00  0.00     0.221 C 
HETATM    9  C   UNL     1     -43.170  55.363 -51.213  1.00  0.00     0.115 A 
HETATM   10 CL   UNL     1     -44.120  53.957 -51.232  1.00  0.00    -0.077 Cl
HETATM   11  H   UNL     1     -45.047  56.197 -53.134  1.00  0.00     0.162 HD
ENDROOT
BRANCH   6  12
HETATM   12  C   UNL     1     -43.835  57.896 -55.022  1.00  0.00    -0.035 A 
HETATM   13  C   UNL     1     -43.704  58.940 -55.950  1.00  0.00     0.012 A 
HETATM   14  C   UNL     1     -43.254  58.693 -57.250  1.00  0.00     0.037 A 
HETATM   15  C   UNL     1     -42.909  57.404 -57.655  1.00  0.00     0.068 A 
HETATM   16  C   UNL     1     -43.031  56.356 -56.746  1.00  0.00     0.037 A 
HETATM   17  C   UNL     1     -43.486  56.600 -55.444  1.00  0.00     0.012 A 
BRANCH  15  18
HETATM   18  O   UNL     1     -42.473  57.306 -58.946  1.00  0.00    -0.356 OA
HETATM   19  C   UNL     1     -42.745  56.088 -59.626  1.00  0.00     0.210 C 
ENDBRANCH  15  18
ENDBRANCH   6  12
BRANCH   8  20
HETATM   20  C   UNL     1     -41.011  58.682 -53.145  1.00  0.00     0.409 C 
HETATM   21  F   UNL     1     -39.830  58.951 -52.561  1.00  0.00    -0.169 F 
HETATM   22  F   UNL     1     -40.894  57.471 -53.751  1.00  0.00    -0.169 F 
HETATM   23  F   UNL     1     -41.184  59.583 -54.140  1.00  0.00    -0.169 F 
ENDBRANCH   8  20
BRANCH   1  24
HETATM   24  C   UNL     1     -41.310  54.720 -49.507  1.00  0.00     0.273 C 
HETATM   25  N   UNL     1     -40.913  53.534 -50.090  1.00  0.00    -0.356 N 
HETATM   26  H   UNL     1     -41.200  53.407 -51.057  1.00  0.00     0.162 HD
HETATM   27  O   UNL     1     -41.122  54.983 -48.324  1.00  0.00    -0.266 OA
BRANCH  25  28
HETATM   28  C   UNL     1     -40.355  52.435 -49.339  1.00  0.00     0.122 C 
BRANCH  28  29
HETATM   29  C   UNL     1     -40.318  51.137 -50.143  1.00  0.00     0.015 C 
HETATM   30  C   UNL     1     -39.605  51.296 -51.478  1.00  0.00     0.006 C 
ENDBRANCH  28  29
ENDBRANCH  25  28
ENDBRANCH   1  24
TORSDOF 6
ENDMDL
MODEL 9
REMARK VINA RESULT:      -6.7     17.061     18.644
REMARK  6 active torsions:
REMARK  status: ('A' for Active; 'I' for Inactive)
REMARK    1  A    between atoms: C_2  and  C_3 
REMARK    2  A    between atoms: C_3  and  N_4 
REMARK       I    between atoms: N_4  and  C_5 
REMARK    3  A    between atoms: C_5  and  C_6 
REMARK    4  A    between atoms: C_11  and  C_12 
REMARK    5  A    between atoms: C_15  and  O_16 
REMARK    6  A    between atoms: C_21  and  C_22 
ROOT
HETATM    1  C   UNL     1     -42.150  55.144 -53.066  1.00  0.00     0.170 A 
HETATM    2  N   UNL     1     -42.079  56.325 -52.399  1.00  0.00    -0.163 NA
HETATM    3  N   UNL     1     -42.729  57.184 -53.204  1.00  0.00    -0.238 N 
HETATM    4  C   UNL     1     -43.281  56.603 -54.311  1.00  0.00     0.145 A 
HETATM    5  N   UNL     1     -44.030  57.321 -55.184  1.00  0.00    -0.365 N 
HETATM    6  C   UNL     1     -44.167  58.769 -55.093  1.00  0.00     0.118 C 
HETATM    7  C   UNL     1     -44.040  59.220 -53.625  1.00  0.00     0.066 C 
HETATM    8  C   UNL     1     -42.858  58.588 -52.867  1.00  0.00     0.221 C 
HETATM    9  C   UNL     1     -42.903  55.282 -54.266  1.00  0.00     0.115 A 
HETATM   10 CL   UNL     1     -43.277  54.084 -55.408  1.00  0.00    -0.077 Cl
HETATM   11  H   UNL     1     -44.331  56.904 -56.066  1.00  0.00     0.162 HD
ENDROOT
BRANCH   6  12
HETATM   12  C   UNL     1     -43.285  59.515 -56.080  1.00  0.00    -0.035 A 
HETATM   13  C   UNL     1     -42.449  58.867 -57.002  1.00  0.00     0.012 A 
HETATM   14  C   UNL     1     -41.681  59.599 -57.913  1.00  0.00     0.037 A 
HETATM   15  C   UNL     1     -41.734  60.992 -57.938  1.00  0.00     0.068 A 
HETATM   16  C   UNL     1     -42.560  61.651 -57.031  1.00  0.00     0.037 A 
HETATM   17  C   UNL     1     -43.328  60.921 -56.115  1.00  0.00     0.012 A 
BRANCH  15  18
HETATM   18  O   UNL     1     -40.943  61.579 -58.884  1.00  0.00    -0.356 OA
HETATM   19  C   UNL     1     -40.438  62.874 -58.587  1.00  0.00     0.210 C 
ENDBRANCH  15  18
ENDBRANCH   6  12
BRANCH   8  20
HETATM   20  C   UNL     1     -41.540  59.299 -53.076  1.00  0.00     0.409 C 
HETATM   21  F   UNL     1     -40.799  58.789 -54.076  1.00  0.00    -0.169 F 
HETATM   22  F   UNL     1     -41.756  60.609 -53.362  1.00  0.00    -0.169 F 
HETATM   23  F   UNL     1     -40.778  59.280 -51.957  1.00  0.00    -0.169 F 
ENDBRANCH   8  20
BRANCH   1  24
HETATM   24  C   UNL     1     -41.495  53.939 -52.534  1.00  0.00     0.273 C 
HETATM   25  N   UNL     1     -40.619  53.365 -53.433  1.00  0.00    -0.356 N 
HETATM   26  H   UNL     1     -40.590  53.800 -54.352  1.00  0.00     0.162 HD
HETATM   27  O   UNL     1     -41.712  53.477 -51.419  1.00  0.00    -0.266 OA
BRANCH  25  28
HETATM   28  C   UNL     1     -39.971  52.096 -53.201  1.00  0.00     0.122 C 
BRANCH  28  29
HETATM   29  C   UNL     1     -40.271  51.078 -54.298  1.00  0.00     0.015 C 
HETATM   30  C   UNL     1     -39.396  49.836 -54.199  1.00  0.00     0.006 C 
ENDBRANCH  28  29
ENDBRANCH  25  28
ENDBRANCH   1  24
TORSDOF 6
ENDMDL
MODEL 10
REMARK VINA RESULT:      -6.7     16.223     17.744
REMARK  6 active torsions:
REMARK  status: ('A' for Active; 'I' for Inactive)
REMARK    1  A    between atoms: C_2  and  C_3 
REMARK    2  A    between atoms: C_3  and  N_4 
REMARK       I    between atoms: N_4  and  C_5 
REMARK    3  A    between atoms: C_5  and  C_6 
REMARK    4  A    between atoms: C_11  and  C_12 
REMARK    5  A    between atoms: C_15  and  O_16 
REMARK    6  A    between atoms: C_21  and  C_22 
ROOT
HETATM    1  C   UNL     1     -41.634  53.994 -51.893  1.00  0.00     0.170 A 
HETATM    2  N   UNL     1     -41.904  55.076 -51.118  1.00  0.00    -0.163 NA
HETATM    3  N   UNL     1     -42.716  55.822 -51.887  1.00  0.00    -0.238 N 
HETATM    4  C   UNL     1     -43.045  55.243 -53.080  1.00  0.00     0.145 A 
HETATM    5  N   UNL     1     -43.912  55.836 -53.936  1.00  0.00    -0.365 N 
HETATM    6  C   UNL     1     -44.425  57.184 -53.724  1.00  0.00     0.118 C 
HETATM    7  C   UNL     1     -44.489  57.492 -52.217  1.00  0.00     0.066 C 
HETATM    8  C   UNL     1     -43.222  57.103 -51.434  1.00  0.00     0.221 C 
HETATM    9  C   UNL     1     -42.339  54.063 -53.127  1.00  0.00     0.115 A 
HETATM   10 CL   UNL     1     -42.333  52.939 -54.399  1.00  0.00    -0.077 Cl
HETATM   11  H   UNL     1     -44.052  55.453 -54.873  1.00  0.00     0.162 HD
ENDROOT
BRANCH   6  12
HETATM   12  C   UNL     1     -43.721  58.231 -54.572  1.00  0.00    -0.035 A 
HETATM   13  C   UNL     1     -43.941  59.608 -54.425  1.00  0.00     0.012 A 
HETATM   14  C   UNL     1     -43.244  60.534 -55.207  1.00  0.00     0.037 A 
HETATM   15  C   UNL     1     -42.301  60.113 -56.145  1.00  0.00     0.068 A 
HETATM   16  C   UNL     1     -42.070  58.749 -56.302  1.00  0.00     0.037 A 
HETATM   17  C   UNL     1     -42.769  57.819 -55.522  1.00  0.00     0.012 A 
BRANCH  15  18
HETATM   18  O   UNL     1     -41.686  61.122 -56.831  1.00  0.00    -0.356 OA
HETATM   19  C   UNL     1     -41.481  60.920 -58.223  1.00  0.00     0.210 C 
ENDBRANCH  15  18
ENDBRANCH   6  12
BRANCH   8  20
HETATM   20  C   UNL     1     -42.125  58.144 -51.480  1.00  0.00     0.409 C 
HETATM   21  F   UNL     1     -41.298  58.017 -52.532  1.00  0.00    -0.169 F 
HETATM   22  F   UNL     1     -42.665  59.389 -51.539  1.00  0.00    -0.169 F 
HETATM   23  F   UNL     1     -41.363  58.118 -50.361  1.00  0.00    -0.169 F 
ENDBRANCH   8  20
BRANCH   1  24
HETATM   24  C   UNL     1     -40.714  52.945 -51.426  1.00  0.00     0.273 C 
HETATM   25  N   UNL     1     -40.021  52.343 -52.458  1.00  0.00    -0.356 N 
HETATM   26  H   UNL     1     -40.279  52.649 -53.392  1.00  0.00     0.162 HD
HETATM   27  O   UNL     1     -40.585  52.621 -50.251  1.00  0.00    -0.266 OA
BRANCH  25  28
HETATM   28  C   UNL     1     -39.174  51.190 -52.269  1.00  0.00     0.122 C 
BRANCH  28  29
HETATM   29  C   UNL     1     -39.733  49.939 -52.944  1.00  0.00     0.015 C 
HETATM   30  C   UNL     1     -39.841  50.088 -54.455  1.00  0.00     0.006 C 
ENDBRANCH  28  29
ENDBRANCH  25  28
ENDBRANCH   1  24
TORSDOF 6
ENDMDL
