MODEL 1
REMARK VINA RESULT:      -8.8      0.000      0.000
REMARK  6 active torsions:
REMARK  status: ('A' for Active; 'I' for Inactive)
REMARK    1  A    between atoms: N_4  and  C_5 
REMARK    2  A    between atoms: C_14  and  C_15 
REMARK       I    between atoms: C_15  and  N_16 
REMARK    3  A    between atoms: N_16  and  C_17 
REMARK    4  A    between atoms: C_17  and  C_18 
REMARK    5  A    between atoms: C_18  and  O_19 
REMARK    6  A    between atoms: C_18  and  C_20 
ROOT
HETATM    1  C   UNL     1     -42.608  57.491 -56.592  1.00  0.00     0.255 C 
HETATM    2  N   UNL     1     -41.778  57.494 -57.691  1.00  0.00    -0.354 N 
HETATM    3  O   UNL     1     -43.682  58.084 -56.586  1.00  0.00    -0.268 OA
HETATM    4  H   UNL     1     -40.825  57.205 -57.529  1.00  0.00     0.162 HD
ENDROOT
BRANCH   1   5
HETATM    5  C   UNL     1     -42.110  56.787 -55.413  1.00  0.00     0.082 C 
HETATM    6  C   UNL     1     -41.529  57.402 -54.272  1.00  0.00     0.069 C 
HETATM    7  C   UNL     1     -41.301  58.849 -54.023  1.00  0.00     0.073 C 
HETATM    8  N   UNL     1     -41.188  56.511 -53.343  1.00  0.00    -0.171 NA
HETATM    9  N   UNL     1     -41.435  55.299 -53.895  1.00  0.00    -0.237 N 
HETATM   10  C   UNL     1     -42.152  55.431 -55.084  1.00  0.00     0.050 C 
HETATM   11  C   UNL     1     -42.890  54.313 -55.734  1.00  0.00     0.071 C 
BRANCH   9  12
HETATM   12  C   UNL     1     -40.949  54.133 -53.226  1.00  0.00     0.058 A 
HETATM   13  C   UNL     1     -40.416  53.082 -53.995  1.00  0.00     0.033 A 
HETATM   14  C   UNL     1     -39.948  51.916 -53.385  1.00  0.00     0.021 A 
HETATM   15  C   UNL     1     -40.027  51.784 -52.002  1.00  0.00     0.011 A 
HETATM   16 BR   UNL     1     -39.407  50.204 -51.170  1.00  0.00    -0.051 Br
HETATM   17  C   UNL     1     -40.575  52.805 -51.227  1.00  0.00     0.021 A 
HETATM   18  C   UNL     1     -41.039  53.978 -51.838  1.00  0.00     0.033 A 
ENDBRANCH   9  12
ENDBRANCH   1   5
BRANCH   2  19
HETATM   19  C   UNL     1     -41.992  58.355 -58.855  1.00  0.00     0.159 C 
BRANCH  19  20
HETATM   20  C   UNL     1     -42.319  57.634 -60.186  1.00  0.00     0.169 C 
BRANCH  20  21
HETATM   21  O   UNL     1     -41.510  56.468 -60.343  1.00  0.00    -0.389 OA
HETATM   22  H   UNL     1     -40.907  56.453 -59.567  1.00  0.00     0.210 HD
ENDBRANCH  20  21
BRANCH  20  23
HETATM   23  C   UNL     1     -43.764  57.177 -60.225  1.00  0.00    -0.028 A 
HETATM   24  C   UNL     1     -44.807  58.117 -60.169  1.00  0.00     0.013 A 
HETATM   25  C   UNL     1     -46.139  57.700 -60.197  1.00  0.00     0.043 A 
HETATM   26  C   UNL     1     -46.433  56.345 -60.282  1.00  0.00     0.116 A 
HETATM   27  F   UNL     1     -47.712  55.948 -60.310  1.00  0.00    -0.206 F 
HETATM   28  C   UNL     1     -45.420  55.396 -60.341  1.00  0.00     0.043 A 
HETATM   29  C   UNL     1     -44.089  55.810 -60.315  1.00  0.00     0.013 A 
ENDBRANCH  20  23
ENDBRANCH  19  20
ENDBRANCH   2  19
TORSDOF 6
ENDMDL
MODEL 2
REMARK VINA RESULT:      -8.1      1.410      2.488
REMARK  6 active torsions:
REMARK  status: ('A' for Active; 'I' for Inactive)
REMARK    1  A    between atoms: N_4  and  C_5 
REMARK    2  A    between atoms: C_14  and  C_15 
REMARK       I    between atoms: C_15  and  N_16 
REMARK    3  A    between atoms: N_16  and  C_17 
REMARK    4  A    between atoms: C_17  and  C_18 
REMARK    5  A    between atoms: C_18  and  O_19 
REMARK    6  A    between atoms: C_18  and  C_20 
ROOT
HETATM    1  C   UNL     1     -42.745  57.170 -56.419  1.00  0.00     0.255 C 
HETATM    2  N   UNL     1     -41.935  57.110 -57.532  1.00  0.00    -0.354 N 
HETATM    3  O   UNL     1     -43.662  57.978 -56.325  1.00  0.00    -0.268 OA
HETATM    4  H   UNL     1     -41.068  56.604 -57.424  1.00  0.00     0.162 HD
ENDROOT
BRANCH   1   5
HETATM    5  C   UNL     1     -42.412  56.252 -55.333  1.00  0.00     0.082 C 
HETATM    6  C   UNL     1     -42.747  54.873 -55.290  1.00  0.00     0.069 C 
HETATM    7  C   UNL     1     -43.487  54.073 -56.301  1.00  0.00     0.073 C 
HETATM    8  N   UNL     1     -42.292  54.281 -54.187  1.00  0.00    -0.171 NA
HETATM    9  N   UNL     1     -41.752  55.273 -53.440  1.00  0.00    -0.237 N 
HETATM   10  C   UNL     1     -41.655  56.454 -54.177  1.00  0.00     0.050 C 
HETATM   11  C   UNL     1     -40.789  57.601 -53.791  1.00  0.00     0.071 C 
BRANCH   9  12
HETATM   12  C   UNL     1     -41.389  54.989 -52.087  1.00  0.00     0.058 A 
HETATM   13  C   UNL     1     -40.580  53.869 -51.823  1.00  0.00     0.033 A 
HETATM   14  C   UNL     1     -40.217  53.542 -50.513  1.00  0.00     0.021 A 
HETATM   15  C   UNL     1     -40.678  54.322 -49.457  1.00  0.00     0.011 A 
HETATM   16 BR   UNL     1     -40.201  53.880 -47.683  1.00  0.00    -0.051 Br
HETATM   17  C   UNL     1     -41.501  55.421 -49.700  1.00  0.00     0.021 A 
HETATM   18  C   UNL     1     -41.859  55.753 -51.013  1.00  0.00     0.033 A 
ENDBRANCH   9  12
ENDBRANCH   1   5
BRANCH   2  19
HETATM   19  C   UNL     1     -41.956  58.117 -58.593  1.00  0.00     0.159 C 
BRANCH  19  20
HETATM   20  C   UNL     1     -42.297  57.603 -60.014  1.00  0.00     0.169 C 
BRANCH  20  21
HETATM   21  O   UNL     1     -41.497  56.468 -60.348  1.00  0.00    -0.389 OA
HETATM   22  H   UNL     1     -40.564  56.772 -60.292  1.00  0.00     0.210 HD
ENDBRANCH  20  21
BRANCH  20  23
HETATM   23  C   UNL     1     -43.745  57.165 -60.108  1.00  0.00    -0.028 A 
HETATM   24  C   UNL     1     -44.068  55.803 -60.228  1.00  0.00     0.013 A 
HETATM   25  C   UNL     1     -45.400  55.396 -60.322  1.00  0.00     0.043 A 
HETATM   26  C   UNL     1     -46.412  56.348 -60.297  1.00  0.00     0.116 A 
HETATM   27  F   UNL     1     -47.690  55.954 -60.386  1.00  0.00    -0.206 F 
HETATM   28  C   UNL     1     -46.120  57.700 -60.176  1.00  0.00     0.043 A 
HETATM   29  C   UNL     1     -44.790  58.108 -60.080  1.00  0.00     0.013 A 
ENDBRANCH  20  23
ENDBRANCH  19  20
ENDBRANCH   2  19
TORSDOF 6
ENDMDL
MODEL 3
REMARK VINA RESULT:      -8.0      4.718      9.055
REMARK  6 active torsions:
REMARK  status: ('A' for Active; 'I' for Inactive)
REMARK    1  A    between atoms: N_4  and  C_5 
REMARK    2  A    between atoms: C_14  and  C_15 
REMARK       I    between atoms: C_15  and  N_16 
REMARK    3  A    between atoms: N_16  and  C_17 
REMARK    4  A    between atoms: C_17  and  C_18 
REMARK    5  A    between atoms: C_18  and  O_19 
REMARK    6  A    between atoms: C_18  and  C_20 
ROOT
HETATM    1  C   UNL     1     -42.803  56.404 -55.803  1.00  0.00     0.255 C 
HETATM    2  N   UNL     1     -42.983  55.075 -55.489  1.00  0.00    -0.354 N 
HETATM    3  O   UNL     1     -41.856  57.053 -55.370  1.00  0.00    -0.268 OA
HETATM    4  H   UNL     1     -43.900  54.696 -55.673  1.00  0.00     0.162 HD
ENDROOT
BRANCH   1   5
HETATM    5  C   UNL     1     -43.836  57.013 -56.637  1.00  0.00     0.082 C 
HETATM    6  C   UNL     1     -44.775  57.986 -56.205  1.00  0.00     0.069 C 
HETATM    7  C   UNL     1     -44.922  58.587 -54.854  1.00  0.00     0.073 C 
HETATM    8  N   UNL     1     -45.582  58.376 -57.191  1.00  0.00    -0.171 NA
HETATM    9  N   UNL     1     -45.262  57.595 -58.250  1.00  0.00    -0.237 N 
HETATM   10  C   UNL     1     -44.094  56.873 -58.003  1.00  0.00     0.050 C 
HETATM   11  C   UNL     1     -43.282  56.222 -59.067  1.00  0.00     0.071 C 
BRANCH   9  12
HETATM   12  C   UNL     1     -46.118  57.614 -59.395  1.00  0.00     0.058 A 
HETATM   13  C   UNL     1     -46.483  58.855 -59.949  1.00  0.00     0.033 A 
HETATM   14  C   UNL     1     -47.333  58.921 -61.056  1.00  0.00     0.021 A 
HETATM   15  C   UNL     1     -47.841  57.748 -61.604  1.00  0.00     0.011 A 
HETATM   16 BR   UNL     1     -49.001  57.831 -63.094  1.00  0.00    -0.051 Br
HETATM   17  C   UNL     1     -47.510  56.512 -61.052  1.00  0.00     0.021 A 
HETATM   18  C   UNL     1     -46.652  56.443 -59.947  1.00  0.00     0.033 A 
ENDBRANCH   9  12
ENDBRANCH   1   5
BRANCH   2  19
HETATM   19  C   UNL     1     -42.201  54.381 -54.466  1.00  0.00     0.159 C 
BRANCH  19  20
HETATM   20  C   UNL     1     -40.896  53.701 -54.950  1.00  0.00     0.169 C 
BRANCH  20  21
HETATM   21  O   UNL     1     -39.854  54.663 -55.114  1.00  0.00    -0.389 OA
HETATM   22  H   UNL     1     -39.580  54.604 -56.055  1.00  0.00     0.210 HD
ENDBRANCH  20  21
BRANCH  20  23
HETATM   23  C   UNL     1     -40.400  52.680 -53.944  1.00  0.00    -0.028 A 
HETATM   24  C   UNL     1     -40.147  51.357 -54.343  1.00  0.00     0.013 A 
HETATM   25  C   UNL     1     -39.697  50.413 -53.419  1.00  0.00     0.043 A 
HETATM   26  C   UNL     1     -39.499  50.787 -52.095  1.00  0.00     0.116 A 
HETATM   27  F   UNL     1     -39.066  49.879 -51.211  1.00  0.00    -0.206 F 
HETATM   28  C   UNL     1     -39.740  52.089 -51.676  1.00  0.00     0.043 A 
HETATM   29  C   UNL     1     -40.188  53.035 -52.599  1.00  0.00     0.013 A 
ENDBRANCH  20  23
ENDBRANCH  19  20
ENDBRANCH   2  19
TORSDOF 6
ENDMDL
MODEL 4
REMARK VINA RESULT:      -7.9      4.856      9.391
REMARK  6 active torsions:
REMARK  status: ('A' for Active; 'I' for Inactive)
REMARK    1  A    between atoms: N_4  and  C_5 
REMARK    2  A    between atoms: C_14  and  C_15 
REMARK       I    between atoms: C_15  and  N_16 
REMARK    3  A    between atoms: N_16  and  C_17 
REMARK    4  A    between atoms: C_17  and  C_18 
REMARK    5  A    between atoms: C_18  and  O_19 
REMARK    6  A    between atoms: C_18  and  C_20 
ROOT
HETATM    1  C   UNL     1     -43.580  57.435 -57.035  1.00  0.00     0.255 C 
HETATM    2  N   UNL     1     -43.638  56.393 -56.136  1.00  0.00    -0.354 N 
HETATM    3  O   UNL     1     -42.941  58.457 -56.806  1.00  0.00    -0.268 OA
HETATM    4  H   UNL     1     -44.373  55.717 -56.287  1.00  0.00     0.162 HD
ENDROOT
BRANCH   1   5
HETATM    5  C   UNL     1     -44.369  57.276 -58.254  1.00  0.00     0.082 C 
HETATM    6  C   UNL     1     -43.934  56.618 -59.435  1.00  0.00     0.069 C 
HETATM    7  C   UNL     1     -42.625  55.965 -59.696  1.00  0.00     0.073 C 
HETATM    8  N   UNL     1     -44.876  56.607 -60.377  1.00  0.00    -0.171 NA
HETATM    9  N   UNL     1     -45.896  57.345 -59.878  1.00  0.00    -0.237 N 
HETATM   10  C   UNL     1     -45.693  57.625 -58.527  1.00  0.00     0.050 C 
HETATM   11  C   UNL     1     -46.769  58.083 -57.606  1.00  0.00     0.071 C 
BRANCH   9  12
HETATM   12  C   UNL     1     -46.963  57.714 -60.755  1.00  0.00     0.058 A 
HETATM   13  C   UNL     1     -47.710  56.699 -61.380  1.00  0.00     0.033 A 
HETATM   14  C   UNL     1     -48.749  57.015 -62.259  1.00  0.00     0.021 A 
HETATM   15  C   UNL     1     -49.035  58.349 -62.535  1.00  0.00     0.011 A 
HETATM   16 BR   UNL     1     -50.431  58.783 -63.733  1.00  0.00    -0.051 Br
HETATM   17  C   UNL     1     -48.288  59.366 -61.944  1.00  0.00     0.021 A 
HETATM   18  C   UNL     1     -47.251  59.051 -61.057  1.00  0.00     0.033 A 
ENDBRANCH   9  12
ENDBRANCH   1   5
BRANCH   2  19
HETATM   19  C   UNL     1     -43.130  56.486 -54.767  1.00  0.00     0.159 C 
BRANCH  19  20
HETATM   20  C   UNL     1     -43.545  55.344 -53.807  1.00  0.00     0.169 C 
BRANCH  20  21
HETATM   21  O   UNL     1     -44.602  54.566 -54.371  1.00  0.00    -0.389 OA
HETATM   22  H   UNL     1     -44.919  55.071 -55.151  1.00  0.00     0.210 HD
ENDBRANCH  20  21
BRANCH  20  23
HETATM   23  C   UNL     1     -42.390  54.397 -53.547  1.00  0.00    -0.028 A 
HETATM   24  C   UNL     1     -41.934  53.538 -54.561  1.00  0.00     0.013 A 
HETATM   25  C   UNL     1     -40.875  52.660 -54.323  1.00  0.00     0.043 A 
HETATM   26  C   UNL     1     -40.270  52.637 -53.072  1.00  0.00     0.116 A 
HETATM   27  F   UNL     1     -39.254  51.794 -52.847  1.00  0.00    -0.206 F 
HETATM   28  C   UNL     1     -40.701  53.477 -52.054  1.00  0.00     0.043 A 
HETATM   29  C   UNL     1     -41.757  54.356 -52.290  1.00  0.00     0.013 A 
ENDBRANCH  20  23
ENDBRANCH  19  20
ENDBRANCH   2  19
TORSDOF 6
ENDMDL
MODEL 5
REMARK VINA RESULT:      -7.8      4.705      9.011
REMARK  6 active torsions:
REMARK  status: ('A' for Active; 'I' for Inactive)
REMARK    1  A    between atoms: N_4  and  C_5 
REMARK    2  A    between atoms: C_14  and  C_15 
REMARK       I    between atoms: C_15  and  N_16 
REMARK    3  A    between atoms: N_16  and  C_17 
REMARK    4  A    between atoms: C_17  and  C_18 
REMARK    5  A    between atoms: C_18  and  O_19 
REMARK    6  A    between atoms: C_18  and  C_20 
ROOT
HETATM    1  C   UNL     1     -42.681  55.275 -55.911  1.00  0.00     0.255 C 
HETATM    2  N   UNL     1     -41.393  55.507 -55.480  1.00  0.00    -0.354 N 
HETATM    3  O   UNL     1     -43.219  54.180 -55.792  1.00  0.00    -0.268 OA
HETATM    4  H   UNL     1     -40.948  56.339 -55.838  1.00  0.00     0.162 HD
ENDROOT
BRANCH   1   5
HETATM    5  C   UNL     1     -43.349  56.396 -56.568  1.00  0.00     0.082 C 
HETATM    6  C   UNL     1     -43.816  57.570 -55.919  1.00  0.00     0.069 C 
HETATM    7  C   UNL     1     -43.738  57.917 -54.477  1.00  0.00     0.073 C 
HETATM    8  N   UNL     1     -44.363  58.431 -56.776  1.00  0.00    -0.171 NA
HETATM    9  N   UNL     1     -44.365  57.798 -57.973  1.00  0.00    -0.237 N 
HETATM   10  C   UNL     1     -43.605  56.630 -57.920  1.00  0.00     0.050 C 
HETATM   11  C   UNL     1     -43.105  55.913 -59.125  1.00  0.00     0.071 C 
BRANCH   9  12
HETATM   12  C   UNL     1     -45.106  58.378 -59.050  1.00  0.00     0.058 A 
HETATM   13  C   UNL     1     -44.468  59.309 -59.889  1.00  0.00     0.033 A 
HETATM   14  C   UNL     1     -45.160  59.915 -60.941  1.00  0.00     0.021 A 
HETATM   15  C   UNL     1     -46.501  59.608 -61.149  1.00  0.00     0.011 A 
HETATM   16 BR   UNL     1     -47.446  60.433 -62.562  1.00  0.00    -0.051 Br
HETATM   17  C   UNL     1     -47.155  58.707 -60.311  1.00  0.00     0.021 A 
HETATM   18  C   UNL     1     -46.461  58.093 -59.260  1.00  0.00     0.033 A 
ENDBRANCH   9  12
ENDBRANCH   1   5
BRANCH   2  19
HETATM   19  C   UNL     1     -40.491  54.441 -55.043  1.00  0.00     0.159 C 
BRANCH  19  20
HETATM   20  C   UNL     1     -40.526  54.095 -53.534  1.00  0.00     0.169 C 
BRANCH  20  21
HETATM   21  O   UNL     1     -41.824  54.333 -52.988  1.00  0.00    -0.389 OA
HETATM   22  H   UNL     1     -41.816  55.264 -52.674  1.00  0.00     0.210 HD
ENDBRANCH  20  21
BRANCH  20  23
HETATM   23  C   UNL     1     -40.209  52.632 -53.296  1.00  0.00    -0.028 A 
HETATM   24  C   UNL     1     -39.779  52.196 -52.031  1.00  0.00     0.013 A 
HETATM   25  C   UNL     1     -39.479  50.850 -51.810  1.00  0.00     0.043 A 
HETATM   26  C   UNL     1     -39.609  49.937 -52.850  1.00  0.00     0.116 A 
HETATM   27  F   UNL     1     -39.322  48.647 -52.635  1.00  0.00    -0.206 F 
HETATM   28  C   UNL     1     -40.035  50.343 -54.109  1.00  0.00     0.043 A 
HETATM   29  C   UNL     1     -40.336  51.686 -54.331  1.00  0.00     0.013 A 
ENDBRANCH  20  23
ENDBRANCH  19  20
ENDBRANCH   2  19
TORSDOF 6
ENDMDL
MODEL 6
REMARK VINA RESULT:      -7.7      2.191      3.087
REMARK  6 active torsions:
REMARK  status: ('A' for Active; 'I' for Inactive)
REMARK    1  A    between atoms: N_4  and  C_5 
REMARK    2  A    between atoms: C_14  and  C_15 
REMARK       I    between atoms: C_15  and  N_16 
REMARK    3  A    between atoms: N_16  and  C_17 
REMARK    4  A    between atoms: C_17  and  C_18 
REMARK    5  A    between atoms: C_18  and  O_19 
REMARK    6  A    between atoms: C_18  and  C_20 
ROOT
HETATM    1  C   UNL     1     -41.868  59.100 -54.034  1.00  0.00     0.255 C 
HETATM    2  N   UNL     1     -43.081  59.297 -54.657  1.00  0.00    -0.354 N 
HETATM    3  O   UNL     1     -41.018  59.981 -53.971  1.00  0.00    -0.268 OA
HETATM    4  H   UNL     1     -43.605  58.465 -54.883  1.00  0.00     0.162 HD
ENDROOT
BRANCH   1   5
HETATM    5  C   UNL     1     -41.631  57.761 -53.501  1.00  0.00     0.082 C 
HETATM    6  C   UNL     1     -41.433  57.445 -52.131  1.00  0.00     0.069 C 
HETATM    7  C   UNL     1     -41.419  58.368 -50.966  1.00  0.00     0.073 C 
HETATM    8  N   UNL     1     -41.264  56.138 -51.938  1.00  0.00    -0.171 NA
HETATM    9  N   UNL     1     -41.239  55.590 -53.176  1.00  0.00    -0.237 N 
HETATM   10  C   UNL     1     -41.628  56.520 -54.140  1.00  0.00     0.050 C 
HETATM   11  C   UNL     1     -42.058  56.154 -55.517  1.00  0.00     0.071 C 
BRANCH   9  12
HETATM   12  C   UNL     1     -40.835  54.225 -53.310  1.00  0.00     0.058 A 
HETATM   13  C   UNL     1     -40.462  53.511 -52.156  1.00  0.00     0.033 A 
HETATM   14  C   UNL     1     -40.042  52.181 -52.244  1.00  0.00     0.021 A 
HETATM   15  C   UNL     1     -39.973  51.562 -53.488  1.00  0.00     0.011 A 
HETATM   16 BR   UNL     1     -39.395  49.767 -53.614  1.00  0.00    -0.051 Br
HETATM   17  C   UNL     1     -40.315  52.262 -54.643  1.00  0.00     0.021 A 
HETATM   18  C   UNL     1     -40.743  53.593 -54.556  1.00  0.00     0.033 A 
ENDBRANCH   9  12
ENDBRANCH   1   5
BRANCH   2  19
HETATM   19  C   UNL     1     -43.382  60.478 -55.468  1.00  0.00     0.159 C 
BRANCH  19  20
HETATM   20  C   UNL     1     -42.742  60.518 -56.878  1.00  0.00     0.169 C 
BRANCH  20  21
HETATM   21  O   UNL     1     -41.329  60.702 -56.788  1.00  0.00    -0.389 OA
HETATM   22  H   UNL     1     -41.121  61.470 -57.364  1.00  0.00     0.210 HD
ENDBRANCH  20  21
BRANCH  20  23
HETATM   23  C   UNL     1     -42.972  59.219 -57.625  1.00  0.00    -0.028 A 
HETATM   24  C   UNL     1     -44.230  58.594 -57.589  1.00  0.00     0.013 A 
HETATM   25  C   UNL     1     -44.444  57.394 -58.270  1.00  0.00     0.043 A 
HETATM   26  C   UNL     1     -43.403  56.816 -58.987  1.00  0.00     0.116 A 
HETATM   27  F   UNL     1     -43.612  55.665 -59.640  1.00  0.00    -0.206 F 
HETATM   28  C   UNL     1     -42.152  57.416 -59.040  1.00  0.00     0.043 A 
HETATM   29  C   UNL     1     -41.936  58.615 -58.362  1.00  0.00     0.013 A 
ENDBRANCH  20  23
ENDBRANCH  19  20
ENDBRANCH   2  19
TORSDOF 6
ENDMDL
MODEL 7
REMARK VINA RESULT:      -7.7      6.892      9.828
REMARK  6 active torsions:
REMARK  status: ('A' for Active; 'I' for Inactive)
REMARK    1  A    between atoms: N_4  and  C_5 
REMARK    2  A    between atoms: C_14  and  C_15 
REMARK       I    between atoms: C_15  and  N_16 
REMARK    3  A    between atoms: N_16  and  C_17 
REMARK    4  A    between atoms: C_17  and  C_18 
REMARK    5  A    between atoms: C_18  and  O_19 
REMARK    6  A    between atoms: C_18  and  C_20 
ROOT
HETATM    1  C   UNL     1     -43.157  60.407 -51.088  1.00  0.00     0.255 C 
HETATM    2  N   UNL     1     -43.882  60.313 -49.920  1.00  0.00    -0.354 N 
HETATM    3  O   UNL     1     -42.740  61.480 -51.510  1.00  0.00    -0.268 OA
HETATM    4  H   UNL     1     -44.393  59.454 -49.782  1.00  0.00     0.162 HD
ENDROOT
BRANCH   1   5
HETATM    5  C   UNL     1     -42.962  59.160 -51.824  1.00  0.00     0.082 C 
HETATM    6  C   UNL     1     -43.844  58.638 -52.806  1.00  0.00     0.069 C 
HETATM    7  C   UNL     1     -45.123  59.216 -53.295  1.00  0.00     0.073 C 
HETATM    8  N   UNL     1     -43.396  57.497 -53.326  1.00  0.00    -0.171 NA
HETATM    9  N   UNL     1     -42.278  57.194 -52.623  1.00  0.00    -0.237 N 
HETATM   10  C   UNL     1     -41.890  58.265 -51.819  1.00  0.00     0.050 C 
HETATM   11  C   UNL     1     -40.535  58.401 -51.218  1.00  0.00     0.071 C 
BRANCH   9  12
HETATM   12  C   UNL     1     -41.697  55.898 -52.791  1.00  0.00     0.058 A 
HETATM   13  C   UNL     1     -41.028  55.605 -53.993  1.00  0.00     0.033 A 
HETATM   14  C   UNL     1     -40.462  54.345 -54.207  1.00  0.00     0.021 A 
HETATM   15  C   UNL     1     -40.580  53.363 -53.228  1.00  0.00     0.011 A 
HETATM   16 BR   UNL     1     -39.829  51.653 -53.516  1.00  0.00    -0.051 Br
HETATM   17  C   UNL     1     -41.263  53.629 -52.042  1.00  0.00     0.021 A 
HETATM   18  C   UNL     1     -41.824  54.894 -51.823  1.00  0.00     0.033 A 
ENDBRANCH   9  12
ENDBRANCH   1   5
BRANCH   2  19
HETATM   19  C   UNL     1     -44.392  61.479 -49.198  1.00  0.00     0.159 C 
BRANCH  19  20
HETATM   20  C   UNL     1     -45.559  61.215 -48.215  1.00  0.00     0.169 C 
BRANCH  20  21
HETATM   21  O   UNL     1     -45.838  59.818 -48.122  1.00  0.00    -0.389 OA
HETATM   22  H   UNL     1     -46.816  59.737 -48.164  1.00  0.00     0.210 HD
ENDBRANCH  20  21
BRANCH  20  23
HETATM   23  C   UNL     1     -45.218  61.690 -46.815  1.00  0.00    -0.028 A 
HETATM   24  C   UNL     1     -45.428  63.031 -46.451  1.00  0.00     0.013 A 
HETATM   25  C   UNL     1     -45.110  63.474 -45.166  1.00  0.00     0.043 A 
HETATM   26  C   UNL     1     -44.580  62.580 -44.243  1.00  0.00     0.116 A 
HETATM   27  F   UNL     1     -44.276  63.008 -43.010  1.00  0.00    -0.206 F 
HETATM   28  C   UNL     1     -44.365  61.249 -44.578  1.00  0.00     0.043 A 
HETATM   29  C   UNL     1     -44.685  60.804 -45.860  1.00  0.00     0.013 A 
ENDBRANCH  20  23
ENDBRANCH  19  20
ENDBRANCH   2  19
TORSDOF 6
ENDMDL
MODEL 8
REMARK VINA RESULT:      -7.5      6.025      8.762
REMARK  6 active torsions:
REMARK  status: ('A' for Active; 'I' for Inactive)
REMARK    1  A    between atoms: N_4  and  C_5 
REMARK    2  A    between atoms: C_14  and  C_15 
REMARK       I    between atoms: C_15  and  N_16 
REMARK    3  A    between atoms: N_16  and  C_17 
REMARK    4  A    between atoms: C_17  and  C_18 
REMARK    5  A    between atoms: C_18  and  O_19 
REMARK    6  A    between atoms: C_18  and  C_20 
ROOT
HETATM    1  C   UNL     1     -44.258  58.518 -51.911  1.00  0.00     0.255 C 
HETATM    2  N   UNL     1     -44.303  58.923 -50.595  1.00  0.00    -0.354 N 
HETATM    3  O   UNL     1     -45.099  58.871 -52.730  1.00  0.00    -0.268 OA
HETATM    4  H   UNL     1     -43.736  58.396 -49.948  1.00  0.00     0.162 HD
ENDROOT
BRANCH   1   5
HETATM    5  C   UNL     1     -43.180  57.596 -52.262  1.00  0.00     0.082 C 
HETATM    6  C   UNL     1     -41.969  57.956 -52.910  1.00  0.00     0.069 C 
HETATM    7  C   UNL     1     -41.534  59.301 -53.366  1.00  0.00     0.073 C 
HETATM    8  N   UNL     1     -41.163  56.909 -53.080  1.00  0.00    -0.171 NA
HETATM    9  N   UNL     1     -41.868  55.836 -52.651  1.00  0.00    -0.237 N 
HETATM   10  C   UNL     1     -43.030  56.235 -51.991  1.00  0.00     0.050 C 
HETATM   11  C   UNL     1     -43.820  55.346 -51.095  1.00  0.00     0.071 C 
BRANCH   9  12
HETATM   12  C   UNL     1     -41.356  54.529 -52.925  1.00  0.00     0.058 A 
HETATM   13  C   UNL     1     -40.611  53.870 -51.931  1.00  0.00     0.033 A 
HETATM   14  C   UNL     1     -40.075  52.600 -52.163  1.00  0.00     0.021 A 
HETATM   15  C   UNL     1     -40.264  51.990 -53.399  1.00  0.00     0.011 A 
HETATM   16 BR   UNL     1     -39.531  50.279 -53.725  1.00  0.00    -0.051 Br
HETATM   17  C   UNL     1     -40.978  52.640 -54.404  1.00  0.00     0.021 A 
HETATM   18  C   UNL     1     -41.521  53.910 -54.170  1.00  0.00     0.033 A 
ENDBRANCH   9  12
ENDBRANCH   1   5
BRANCH   2  19
HETATM   19  C   UNL     1     -45.447  59.626 -50.012  1.00  0.00     0.159 C 
BRANCH  19  20
HETATM   20  C   UNL     1     -45.325  61.167 -49.922  1.00  0.00     0.169 C 
BRANCH  20  21
HETATM   21  O   UNL     1     -46.445  61.802 -50.541  1.00  0.00    -0.389 OA
HETATM   22  H   UNL     1     -46.678  61.241 -51.312  1.00  0.00     0.210 HD
ENDBRANCH  20  21
BRANCH  20  23
HETATM   23  C   UNL     1     -45.295  61.634 -48.479  1.00  0.00    -0.028 A 
HETATM   24  C   UNL     1     -45.153  62.999 -48.178  1.00  0.00     0.013 A 
HETATM   25  C   UNL     1     -45.119  63.432 -46.851  1.00  0.00     0.043 A 
HETATM   26  C   UNL     1     -45.225  62.503 -45.823  1.00  0.00     0.116 A 
HETATM   27  F   UNL     1     -45.192  62.922 -44.551  1.00  0.00    -0.206 F 
HETATM   28  C   UNL     1     -45.368  61.149 -46.094  1.00  0.00     0.043 A 
HETATM   29  C   UNL     1     -45.405  60.715 -47.419  1.00  0.00     0.013 A 
ENDBRANCH  20  23
ENDBRANCH  19  20
ENDBRANCH   2  19
TORSDOF 6
ENDMDL
MODEL 9
REMARK VINA RESULT:      -7.5      4.920      8.916
REMARK  6 active torsions:
REMARK  status: ('A' for Active; 'I' for Inactive)
REMARK    1  A    between atoms: N_4  and  C_5 
REMARK    2  A    between atoms: C_14  and  C_15 
REMARK       I    between atoms: C_15  and  N_16 
REMARK    3  A    between atoms: N_16  and  C_17 
REMARK    4  A    between atoms: C_17  and  C_18 
REMARK    5  A    between atoms: C_18  and  O_19 
REMARK    6  A    between atoms: C_18  and  C_20 
ROOT
HETATM    1  C   UNL     1     -42.801  56.905 -54.951  1.00  0.00     0.255 C 
HETATM    2  N   UNL     1     -41.758  56.215 -54.374  1.00  0.00    -0.354 N 
HETATM    3  O   UNL     1     -43.950  56.475 -54.940  1.00  0.00    -0.268 OA
HETATM    4  H   UNL     1     -40.830  56.506 -54.644  1.00  0.00     0.162 HD
ENDROOT
BRANCH   1   5
HETATM    5  C   UNL     1     -42.451  58.152 -55.627  1.00  0.00     0.082 C 
HETATM    6  C   UNL     1     -42.000  59.336 -54.986  1.00  0.00     0.069 C 
HETATM    7  C   UNL     1     -41.789  59.573 -53.534  1.00  0.00     0.073 C 
HETATM    8  N   UNL     1     -41.734  60.307 -55.858  1.00  0.00    -0.171 NA
HETATM    9  N   UNL     1     -42.106  59.820 -57.066  1.00  0.00    -0.237 N 
HETATM   10  C   UNL     1     -42.387  58.456 -56.988  1.00  0.00     0.050 C 
HETATM   11  C   UNL     1     -42.460  57.557 -58.172  1.00  0.00     0.071 C 
BRANCH   9  12
HETATM   12  C   UNL     1     -42.160  60.719 -58.176  1.00  0.00     0.058 A 
HETATM   13  C   UNL     1     -40.975  61.348 -58.599  1.00  0.00     0.033 A 
HETATM   14  C   UNL     1     -40.987  62.249 -59.667  1.00  0.00     0.021 A 
HETATM   15  C   UNL     1     -42.187  62.543 -60.307  1.00  0.00     0.011 A 
HETATM   16 BR   UNL     1     -42.212  63.769 -61.744  1.00  0.00    -0.051 Br
HETATM   17  C   UNL     1     -43.374  61.948 -59.884  1.00  0.00     0.021 A 
HETATM   18  C   UNL     1     -43.363  61.039 -58.818  1.00  0.00     0.033 A 
ENDBRANCH   9  12
ENDBRANCH   1   5
BRANCH   2  19
HETATM   19  C   UNL     1     -41.877  54.840 -53.889  1.00  0.00     0.159 C 
BRANCH  19  20
HETATM   20  C   UNL     1     -41.070  53.771 -54.666  1.00  0.00     0.169 C 
BRANCH  20  21
HETATM   21  O   UNL     1     -39.954  54.362 -55.332  1.00  0.00    -0.389 OA
HETATM   22  H   UNL     1     -40.312  55.134 -55.822  1.00  0.00     0.210 HD
ENDBRANCH  20  21
BRANCH  20  23
HETATM   23  C   UNL     1     -40.516  52.712 -53.732  1.00  0.00    -0.028 A 
HETATM   24  C   UNL     1     -40.307  53.004 -52.373  1.00  0.00     0.013 A 
HETATM   25  C   UNL     1     -39.791  52.034 -51.512  1.00  0.00     0.043 A 
HETATM   26  C   UNL     1     -39.483  50.772 -52.004  1.00  0.00     0.116 A 
HETATM   27  F   UNL     1     -38.990  49.843 -51.175  1.00  0.00    -0.206 F 
HETATM   28  C   UNL     1     -39.684  50.457 -53.342  1.00  0.00     0.043 A 
HETATM   29  C   UNL     1     -40.201  51.424 -54.204  1.00  0.00     0.013 A 
ENDBRANCH  20  23
ENDBRANCH  19  20
ENDBRANCH   2  19
TORSDOF 6
ENDMDL
MODEL 10
REMARK VINA RESULT:      -7.4     16.189     18.840
REMARK  6 active torsions:
REMARK  status: ('A' for Active; 'I' for Inactive)
REMARK    1  A    between atoms: N_4  and  C_5 
REMARK    2  A    between atoms: C_14  and  C_15 
REMARK       I    between atoms: C_15  and  N_16 
REMARK    3  A    between atoms: N_16  and  C_17 
REMARK    4  A    between atoms: C_17  and  C_18 
REMARK    5  A    between atoms: C_18  and  O_19 
REMARK    6  A    between atoms: C_18  and  C_20 
ROOT
HETATM    1  C   UNL     1     -35.590  41.758 -52.846  1.00  0.00     0.255 C 
HETATM    2  N   UNL     1     -35.119  40.660 -52.160  1.00  0.00    -0.354 N 
HETATM    3  O   UNL     1     -35.384  42.903 -52.461  1.00  0.00    -0.268 OA
HETATM    4  H   UNL     1     -35.539  39.773 -52.398  1.00  0.00     0.162 HD
ENDROOT
BRANCH   1   5
HETATM    5  C   UNL     1     -36.398  41.476 -54.030  1.00  0.00     0.082 C 
HETATM    6  C   UNL     1     -37.792  41.208 -54.029  1.00  0.00     0.069 C 
HETATM    7  C   UNL     1     -38.718  41.150 -52.868  1.00  0.00     0.073 C 
HETATM    8  N   UNL     1     -38.265  41.011 -55.259  1.00  0.00    -0.171 NA
HETATM    9  N   UNL     1     -37.182  41.038 -56.071  1.00  0.00    -0.237 N 
HETATM   10  C   UNL     1     -36.055  41.486 -55.383  1.00  0.00     0.050 C 
HETATM   11  C   UNL     1     -34.818  41.977 -56.051  1.00  0.00     0.071 C 
BRANCH   9  12
HETATM   12  C   UNL     1     -37.339  40.622 -57.430  1.00  0.00     0.058 A 
HETATM   13  C   UNL     1     -37.589  39.265 -57.700  1.00  0.00     0.033 A 
HETATM   14  C   UNL     1     -37.729  38.811 -59.014  1.00  0.00     0.021 A 
HETATM   15  C   UNL     1     -37.599  39.709 -60.069  1.00  0.00     0.011 A 
HETATM   16 BR   UNL     1     -37.774  39.101 -61.850  1.00  0.00    -0.051 Br
HETATM   17  C   UNL     1     -37.325  41.053 -59.820  1.00  0.00     0.021 A 
HETATM   18  C   UNL     1     -37.192  41.510 -58.503  1.00  0.00     0.033 A 
ENDBRANCH   9  12
ENDBRANCH   1   5
BRANCH   2  19
HETATM   19  C   UNL     1     -34.522  40.743 -50.827  1.00  0.00     0.159 C 
BRANCH  19  20
HETATM   20  C   UNL     1     -32.977  40.646 -50.765  1.00  0.00     0.169 C 
BRANCH  20  21
HETATM   21  O   UNL     1     -32.557  40.027 -49.548  1.00  0.00    -0.389 OA
HETATM   22  H   UNL     1     -33.098  40.437 -48.839  1.00  0.00     0.210 HD
ENDBRANCH  20  21
BRANCH  20  23
HETATM   23  C   UNL     1     -32.432  39.802 -51.901  1.00  0.00    -0.028 A 
HETATM   24  C   UNL     1     -32.166  40.383 -53.152  1.00  0.00     0.013 A 
HETATM   25  C   UNL     1     -31.671  39.608 -54.202  1.00  0.00     0.043 A 
HETATM   26  C   UNL     1     -31.440  38.252 -54.005  1.00  0.00     0.116 A 
HETATM   27  F   UNL     1     -30.963  37.511 -55.014  1.00  0.00    -0.206 F 
HETATM   28  C   UNL     1     -31.692  37.654 -52.777  1.00  0.00     0.043 A 
HETATM   29  C   UNL     1     -32.185  38.427 -51.726  1.00  0.00     0.013 A 
ENDBRANCH  20  23
ENDBRANCH  19  20
ENDBRANCH   2  19
TORSDOF 6
ENDMDL
