MODEL 1
REMARK VINA RESULT:      -8.3      0.000      0.000
REMARK  6 active torsions:
REMARK  status: ('A' for Active; 'I' for Inactive)
REMARK    1  A    between atoms: O_2  and  C_3 
REMARK    2  A    between atoms: C_6  and  C_7 
REMARK    3  A    between atoms: C_11  and  C_12 
REMARK       I    between atoms: C_12  and  N_13 
REMARK    4  A    between atoms: N_13  and  N_14 
REMARK       I    between atoms: N_14  and  C_15 
REMARK    5  A    between atoms: C_15  and  C_16 
REMARK    6  A    between atoms: C_16  and  C_17 
ROOT
HETATM    1  C   UNL     1     -42.931  56.578 -57.540  1.00  0.00     0.288 C 
HETATM    2  N   UNL     1     -42.517  55.361 -57.042  1.00  0.00    -0.262 N 
HETATM    3  O   UNL     1     -42.413  57.637 -57.189  1.00  0.00    -0.264 OA
HETATM    4  H   UNL     1     -43.013  54.491 -57.220  1.00  0.00     0.190 HD
ENDROOT
BRANCH   1   5
HETATM    5  C   UNL     1     -44.010  56.519 -58.487  1.00  0.00     0.121 A 
HETATM    6  N   UNL     1     -44.369  55.352 -59.100  1.00  0.00    -0.272 N 
HETATM    7  N   UNL     1     -45.406  55.469 -59.943  1.00  0.00    -0.174 NA
HETATM    8  H   UNL     1     -43.940  54.439 -58.974  1.00  0.00     0.189 HD
HETATM    9  C   UNL     1     -45.734  56.771 -59.902  1.00  0.00     0.089 A 
HETATM   10  C   UNL     1     -44.883  57.462 -58.992  1.00  0.00     0.071 A 
BRANCH   9  11
HETATM   11  C   UNL     1     -46.836  57.318 -60.697  1.00  0.00    -0.005 A 
HETATM   12  C   UNL     1     -47.098  58.696 -60.698  1.00  0.00     0.016 A 
HETATM   13  C   UNL     1     -48.133  59.236 -61.474  1.00  0.00     0.037 A 
HETATM   14  C   UNL     1     -48.927  58.401 -62.257  1.00  0.00     0.068 A 
HETATM   15  C   UNL     1     -48.685  57.027 -62.248  1.00  0.00     0.037 A 
HETATM   16  C   UNL     1     -47.650  56.486 -61.478  1.00  0.00     0.016 A 
BRANCH  14  17
HETATM   17  O   UNL     1     -49.961  58.794 -63.062  1.00  0.00    -0.356 OA
HETATM   18  C   UNL     1     -51.250  58.852 -62.466  1.00  0.00     0.210 C 
ENDBRANCH  14  17
ENDBRANCH   9  11
ENDBRANCH   1   5
BRANCH   2  19
HETATM   19  N   UNL     1     -41.593  55.333 -55.992  1.00  0.00    -0.267 N 
HETATM   20  C   UNL     1     -42.000  54.800 -54.789  1.00  0.00     0.240 C 
HETATM   21  O   UNL     1     -43.104  54.275 -54.640  1.00  0.00    -0.272 OA
HETATM   22  H   UNL     1     -40.709  55.822 -56.134  1.00  0.00     0.190 HD
BRANCH  20  23
HETATM   23  C   UNL     1     -40.981  54.904 -53.674  1.00  0.00     0.144 C 
BRANCH  23  24
HETATM   24  C   UNL     1     -40.484  53.553 -53.222  1.00  0.00    -0.028 A 
HETATM   25  C   UNL     1     -40.263  53.235 -51.873  1.00  0.00     0.040 A 
HETATM   26 CL   UNL     1     -40.560  54.374 -50.608  1.00  0.00    -0.084 Cl
HETATM   27  C   UNL     1     -39.788  51.972 -51.509  1.00  0.00     0.024 A 
HETATM   28  C   UNL     1     -39.517  51.014 -52.485  1.00  0.00     0.002 A 
HETATM   29  C   UNL     1     -39.716  51.320 -53.828  1.00  0.00     0.001 A 
HETATM   30  C   UNL     1     -40.193  52.580 -54.195  1.00  0.00     0.009 A 
ENDBRANCH  23  24
ENDBRANCH  20  23
ENDBRANCH   2  19
TORSDOF 6
ENDMDL
MODEL 2
REMARK VINA RESULT:      -8.2      7.637     10.975
REMARK  6 active torsions:
REMARK  status: ('A' for Active; 'I' for Inactive)
REMARK    1  A    between atoms: O_2  and  C_3 
REMARK    2  A    between atoms: C_6  and  C_7 
REMARK    3  A    between atoms: C_11  and  C_12 
REMARK       I    between atoms: C_12  and  N_13 
REMARK    4  A    between atoms: N_13  and  N_14 
REMARK       I    between atoms: N_14  and  C_15 
REMARK    5  A    between atoms: C_15  and  C_16 
REMARK    6  A    between atoms: C_16  and  C_17 
ROOT
HETATM    1  C   UNL     1     -42.367  59.005 -51.554  1.00  0.00     0.288 C 
HETATM    2  N   UNL     1     -43.500  58.905 -50.774  1.00  0.00    -0.262 N 
HETATM    3  O   UNL     1     -41.754  60.063 -51.682  1.00  0.00    -0.264 OA
HETATM    4  H   UNL     1     -44.091  58.076 -50.758  1.00  0.00     0.190 HD
ENDROOT
BRANCH   1   5
HETATM    5  C   UNL     1     -41.962  57.790 -52.207  1.00  0.00     0.121 A 
HETATM    6  N   UNL     1     -41.955  57.670 -53.568  1.00  0.00    -0.272 N 
HETATM    7  N   UNL     1     -41.536  56.477 -54.014  1.00  0.00    -0.174 NA
HETATM    8  H   UNL     1     -42.224  58.380 -54.244  1.00  0.00     0.189 HD
HETATM    9  C   UNL     1     -41.273  55.771 -52.902  1.00  0.00     0.089 A 
HETATM   10  C   UNL     1     -41.523  56.565 -51.746  1.00  0.00     0.071 A 
BRANCH   9  11
HETATM   11  C   UNL     1     -40.785  54.390 -52.958  1.00  0.00    -0.005 A 
HETATM   12  C   UNL     1     -40.447  53.706 -51.781  1.00  0.00     0.016 A 
HETATM   13  C   UNL     1     -40.003  52.378 -51.819  1.00  0.00     0.037 A 
HETATM   14  C   UNL     1     -39.884  51.714 -53.038  1.00  0.00     0.068 A 
HETATM   15  C   UNL     1     -40.200  52.393 -54.215  1.00  0.00     0.037 A 
HETATM   16  C   UNL     1     -40.649  53.718 -54.180  1.00  0.00     0.016 A 
BRANCH  14  17
HETATM   17  O   UNL     1     -39.471  50.423 -53.216  1.00  0.00    -0.356 OA
HETATM   18  C   UNL     1     -39.689  49.852 -54.500  1.00  0.00     0.210 C 
ENDBRANCH  14  17
ENDBRANCH   9  11
ENDBRANCH   1   5
BRANCH   2  19
HETATM   19  N   UNL     1     -44.065  60.067 -50.241  1.00  0.00    -0.267 N 
HETATM   20  C   UNL     1     -45.426  60.086 -50.029  1.00  0.00     0.240 C 
HETATM   21  O   UNL     1     -46.134  59.094 -50.208  1.00  0.00    -0.272 OA
HETATM   22  H   UNL     1     -43.459  60.884 -50.155  1.00  0.00     0.190 HD
BRANCH  20  23
HETATM   23  C   UNL     1     -45.974  61.414 -49.552  1.00  0.00     0.144 C 
BRANCH  23  24
HETATM   24  C   UNL     1     -45.660  61.676 -48.100  1.00  0.00    -0.028 A 
HETATM   25  C   UNL     1     -45.314  62.947 -47.614  1.00  0.00     0.040 A 
HETATM   26 CL   UNL     1     -45.233  64.327 -48.649  1.00  0.00    -0.084 Cl
HETATM   27  C   UNL     1     -45.017  63.133 -46.260  1.00  0.00     0.024 A 
HETATM   28  C   UNL     1     -45.052  62.055 -45.377  1.00  0.00     0.002 A 
HETATM   29  C   UNL     1     -45.379  60.786 -45.848  1.00  0.00     0.001 A 
HETATM   30  C   UNL     1     -45.678  60.597 -47.199  1.00  0.00     0.009 A 
ENDBRANCH  23  24
ENDBRANCH  20  23
ENDBRANCH   2  19
TORSDOF 6
ENDMDL
MODEL 3
REMARK VINA RESULT:      -8.1      7.957     11.526
REMARK  6 active torsions:
REMARK  status: ('A' for Active; 'I' for Inactive)
REMARK    1  A    between atoms: O_2  and  C_3 
REMARK    2  A    between atoms: C_6  and  C_7 
REMARK    3  A    between atoms: C_11  and  C_12 
REMARK       I    between atoms: C_12  and  N_13 
REMARK    4  A    between atoms: N_13  and  N_14 
REMARK       I    between atoms: N_14  and  C_15 
REMARK    5  A    between atoms: C_15  and  C_16 
REMARK    6  A    between atoms: C_16  and  C_17 
ROOT
HETATM    1  C   UNL     1     -44.334  57.618 -50.892  1.00  0.00     0.288 C 
HETATM    2  N   UNL     1     -44.005  58.924 -50.598  1.00  0.00    -0.262 N 
HETATM    3  O   UNL     1     -45.503  57.240 -50.963  1.00  0.00    -0.264 OA
HETATM    4  H   UNL     1     -43.052  59.227 -50.410  1.00  0.00     0.190 HD
ENDROOT
BRANCH   1   5
HETATM    5  C   UNL     1     -43.219  56.735 -51.100  1.00  0.00     0.121 A 
HETATM    6  N   UNL     1     -41.980  57.006 -50.594  1.00  0.00    -0.272 N 
HETATM    7  N   UNL     1     -41.057  56.071 -50.867  1.00  0.00    -0.174 NA
HETATM    8  H   UNL     1     -41.709  57.817 -50.045  1.00  0.00     0.189 HD
HETATM    9  C   UNL     1     -41.707  55.155 -51.601  1.00  0.00     0.089 A 
HETATM   10  C   UNL     1     -43.071  55.534 -51.764  1.00  0.00     0.071 A 
BRANCH   9  11
HETATM   11  C   UNL     1     -41.039  53.953 -52.110  1.00  0.00    -0.005 A 
HETATM   12  C   UNL     1     -40.205  53.195 -51.275  1.00  0.00     0.016 A 
HETATM   13  C   UNL     1     -39.580  52.031 -51.742  1.00  0.00     0.037 A 
HETATM   14  C   UNL     1     -39.777  51.611 -53.056  1.00  0.00     0.068 A 
HETATM   15  C   UNL     1     -40.590  52.370 -53.898  1.00  0.00     0.037 A 
HETATM   16  C   UNL     1     -41.219  53.530 -53.433  1.00  0.00     0.016 A 
BRANCH  14  17
HETATM   17  O   UNL     1     -39.236  50.496 -53.636  1.00  0.00    -0.356 OA
HETATM   18  C   UNL     1     -39.978  49.898 -54.690  1.00  0.00     0.210 C 
ENDBRANCH  14  17
ENDBRANCH   9  11
ENDBRANCH   1   5
BRANCH   2  19
HETATM   19  N   UNL     1     -45.014  59.811 -50.213  1.00  0.00    -0.267 N 
HETATM   20  C   UNL     1     -44.639  61.018 -49.665  1.00  0.00     0.240 C 
HETATM   21  O   UNL     1     -43.460  61.368 -49.588  1.00  0.00    -0.272 OA
HETATM   22  H   UNL     1     -45.975  59.468 -50.242  1.00  0.00     0.190 HD
BRANCH  20  23
HETATM   23  C   UNL     1     -45.787  61.875 -49.175  1.00  0.00     0.144 C 
BRANCH  23  24
HETATM   24  C   UNL     1     -45.485  62.536 -47.852  1.00  0.00    -0.028 A 
HETATM   25  C   UNL     1     -45.558  61.854 -46.627  1.00  0.00     0.040 A 
HETATM   26 CL   UNL     1     -45.989  60.183 -46.539  1.00  0.00    -0.084 Cl
HETATM   27  C   UNL     1     -45.283  62.516 -45.427  1.00  0.00     0.024 A 
HETATM   28  C   UNL     1     -44.942  63.868 -45.432  1.00  0.00     0.002 A 
HETATM   29  C   UNL     1     -44.881  64.561 -46.638  1.00  0.00     0.001 A 
HETATM   30  C   UNL     1     -45.154  63.902 -47.838  1.00  0.00     0.009 A 
ENDBRANCH  23  24
ENDBRANCH  20  23
ENDBRANCH   2  19
TORSDOF 6
ENDMDL
MODEL 4
REMARK VINA RESULT:      -8.1      7.714     11.303
REMARK  6 active torsions:
REMARK  status: ('A' for Active; 'I' for Inactive)
REMARK    1  A    between atoms: O_2  and  C_3 
REMARK    2  A    between atoms: C_6  and  C_7 
REMARK    3  A    between atoms: C_11  and  C_12 
REMARK       I    between atoms: C_12  and  N_13 
REMARK    4  A    between atoms: N_13  and  N_14 
REMARK       I    between atoms: N_14  and  C_15 
REMARK    5  A    between atoms: C_15  and  C_16 
REMARK    6  A    between atoms: C_16  and  C_17 
ROOT
HETATM    1  C   UNL     1     -44.546  57.995 -50.974  1.00  0.00     0.288 C 
HETATM    2  N   UNL     1     -44.187  59.210 -50.431  1.00  0.00    -0.262 N 
HETATM    3  O   UNL     1     -45.711  57.600 -50.977  1.00  0.00    -0.264 OA
HETATM    4  H   UNL     1     -43.220  59.497 -50.304  1.00  0.00     0.190 HD
ENDROOT
BRANCH   1   5
HETATM    5  C   UNL     1     -43.465  57.227 -51.528  1.00  0.00     0.121 A 
HETATM    6  N   UNL     1     -42.342  57.820 -52.030  1.00  0.00    -0.272 N 
HETATM    7  N   UNL     1     -41.424  56.958 -52.493  1.00  0.00    -0.174 NA
HETATM    8  H   UNL     1     -42.146  58.816 -52.077  1.00  0.00     0.189 HD
HETATM    9  C   UNL     1     -41.971  55.746 -52.309  1.00  0.00     0.089 A 
HETATM   10  C   UNL     1     -43.252  55.874 -51.698  1.00  0.00     0.071 A 
BRANCH   9  11
HETATM   11  C   UNL     1     -41.275  54.514 -52.692  1.00  0.00    -0.005 A 
HETATM   12  C   UNL     1     -41.068  54.205 -54.045  1.00  0.00     0.016 A 
HETATM   13  C   UNL     1     -40.382  53.044 -54.425  1.00  0.00     0.037 A 
HETATM   14  C   UNL     1     -39.897  52.170 -53.455  1.00  0.00     0.068 A 
HETATM   15  C   UNL     1     -40.115  52.460 -52.107  1.00  0.00     0.037 A 
HETATM   16  C   UNL     1     -40.796  53.621 -51.725  1.00  0.00     0.016 A 
BRANCH  14  17
HETATM   17  O   UNL     1     -39.210  51.010 -53.686  1.00  0.00    -0.356 OA
HETATM   18  C   UNL     1     -39.873  50.014 -54.453  1.00  0.00     0.210 C 
ENDBRANCH  14  17
ENDBRANCH   9  11
ENDBRANCH   1   5
BRANCH   2  19
HETATM   19  N   UNL     1     -45.140  59.946 -49.720  1.00  0.00    -0.267 N 
HETATM   20  C   UNL     1     -44.778  61.191 -49.253  1.00  0.00     0.240 C 
HETATM   21  O   UNL     1     -43.688  61.702 -49.516  1.00  0.00    -0.272 OA
HETATM   22  H   UNL     1     -46.010  59.473 -49.475  1.00  0.00     0.190 HD
BRANCH  20  23
HETATM   23  C   UNL     1     -45.825  61.878 -48.402  1.00  0.00     0.144 C 
BRANCH  23  24
HETATM   24  C   UNL     1     -45.381  62.045 -46.970  1.00  0.00    -0.028 A 
HETATM   25  C   UNL     1     -45.394  63.284 -46.309  1.00  0.00     0.040 A 
HETATM   26 CL   UNL     1     -45.941  64.726 -47.088  1.00  0.00    -0.084 Cl
HETATM   27  C   UNL     1     -44.958  63.388 -44.985  1.00  0.00     0.024 A 
HETATM   28  C   UNL     1     -44.492  62.262 -44.307  1.00  0.00     0.002 A 
HETATM   29  C   UNL     1     -44.458  61.030 -44.955  1.00  0.00     0.001 A 
HETATM   30  C   UNL     1     -44.896  60.922 -46.276  1.00  0.00     0.009 A 
ENDBRANCH  23  24
ENDBRANCH  20  23
ENDBRANCH   2  19
TORSDOF 6
ENDMDL
MODEL 5
REMARK VINA RESULT:      -7.8      5.038     10.529
REMARK  6 active torsions:
REMARK  status: ('A' for Active; 'I' for Inactive)
REMARK    1  A    between atoms: O_2  and  C_3 
REMARK    2  A    between atoms: C_6  and  C_7 
REMARK    3  A    between atoms: C_11  and  C_12 
REMARK       I    between atoms: C_12  and  N_13 
REMARK    4  A    between atoms: N_13  and  N_14 
REMARK       I    between atoms: N_14  and  C_15 
REMARK    5  A    between atoms: C_15  and  C_16 
REMARK    6  A    between atoms: C_16  and  C_17 
ROOT
HETATM    1  C   UNL     1     -43.276  57.284 -56.811  1.00  0.00     0.288 C 
HETATM    2  N   UNL     1     -42.246  57.944 -57.447  1.00  0.00    -0.262 N 
HETATM    3  O   UNL     1     -44.430  57.706 -56.828  1.00  0.00    -0.264 OA
HETATM    4  H   UNL     1     -41.269  57.683 -57.339  1.00  0.00     0.190 HD
ENDROOT
BRANCH   1   5
HETATM    5  C   UNL     1     -42.901  56.077 -56.127  1.00  0.00     0.121 A 
HETATM    6  N   UNL     1     -43.536  54.890 -56.357  1.00  0.00    -0.272 N 
HETATM    7  N   UNL     1     -43.053  53.859 -55.647  1.00  0.00    -0.174 NA
HETATM    8  H   UNL     1     -44.308  54.724 -56.998  1.00  0.00     0.189 HD
HETATM    9  C   UNL     1     -42.071  54.390 -54.901  1.00  0.00     0.089 A 
HETATM   10  C   UNL     1     -41.941  55.781 -55.180  1.00  0.00     0.071 A 
BRANCH   9  11
HETATM   11  C   UNL     1     -41.281  53.580 -53.970  1.00  0.00    -0.005 A 
HETATM   12  C   UNL     1     -41.054  54.022 -52.658  1.00  0.00     0.016 A 
HETATM   13  C   UNL     1     -40.321  53.246 -51.750  1.00  0.00     0.037 A 
HETATM   14  C   UNL     1     -39.799  52.016 -52.144  1.00  0.00     0.068 A 
HETATM   15  C   UNL     1     -40.004  51.578 -53.452  1.00  0.00     0.037 A 
HETATM   16  C   UNL     1     -40.739  52.348 -54.359  1.00  0.00     0.016 A 
BRANCH  14  17
HETATM   17  O   UNL     1     -39.074  51.160 -51.361  1.00  0.00    -0.356 OA
HETATM   18  C   UNL     1     -39.467  49.794 -51.372  1.00  0.00     0.210 C 
ENDBRANCH  14  17
ENDBRANCH   9  11
ENDBRANCH   1   5
BRANCH   2  19
HETATM   19  N   UNL     1     -42.482  59.210 -57.991  1.00  0.00    -0.267 N 
HETATM   20  C   UNL     1     -42.098  60.311 -57.256  1.00  0.00     0.240 C 
HETATM   21  O   UNL     1     -41.483  60.211 -56.193  1.00  0.00    -0.272 OA
HETATM   22  H   UNL     1     -43.039  59.256 -58.845  1.00  0.00     0.190 HD
BRANCH  20  23
HETATM   23  C   UNL     1     -42.484  61.643 -57.862  1.00  0.00     0.144 C 
BRANCH  23  24
HETATM   24  C   UNL     1     -41.540  62.070 -58.959  1.00  0.00    -0.028 A 
HETATM   25  C   UNL     1     -41.827  61.892 -60.322  1.00  0.00     0.040 A 
HETATM   26 CL   UNL     1     -43.307  61.177 -60.855  1.00  0.00    -0.084 Cl
HETATM   27  C   UNL     1     -40.911  62.291 -61.300  1.00  0.00     0.024 A 
HETATM   28  C   UNL     1     -39.694  62.863 -60.931  1.00  0.00     0.002 A 
HETATM   29  C   UNL     1     -39.389  63.030 -59.583  1.00  0.00     0.001 A 
HETATM   30  C   UNL     1     -40.302  62.634 -58.605  1.00  0.00     0.009 A 
ENDBRANCH  23  24
ENDBRANCH  20  23
ENDBRANCH   2  19
TORSDOF 6
ENDMDL
MODEL 6
REMARK VINA RESULT:      -7.8      4.073     10.573
REMARK  6 active torsions:
REMARK  status: ('A' for Active; 'I' for Inactive)
REMARK    1  A    between atoms: O_2  and  C_3 
REMARK    2  A    between atoms: C_6  and  C_7 
REMARK    3  A    between atoms: C_11  and  C_12 
REMARK       I    between atoms: C_12  and  N_13 
REMARK    4  A    between atoms: N_13  and  N_14 
REMARK       I    between atoms: N_14  and  C_15 
REMARK    5  A    between atoms: C_15  and  C_16 
REMARK    6  A    between atoms: C_16  and  C_17 
ROOT
HETATM    1  C   UNL     1     -42.993  56.985 -56.951  1.00  0.00     0.288 C 
HETATM    2  N   UNL     1     -41.948  57.154 -57.834  1.00  0.00    -0.262 N 
HETATM    3  O   UNL     1     -44.028  57.644 -57.030  1.00  0.00    -0.264 OA
HETATM    4  H   UNL     1     -41.039  56.714 -57.709  1.00  0.00     0.190 HD
ENDROOT
BRANCH   1   5
HETATM    5  C   UNL     1     -42.782  55.992 -55.933  1.00  0.00     0.121 A 
HETATM    6  N   UNL     1     -43.799  55.546 -55.139  1.00  0.00    -0.272 N 
HETATM    7  N   UNL     1     -43.435  54.608 -54.251  1.00  0.00    -0.174 NA
HETATM    8  H   UNL     1     -44.770  55.845 -55.164  1.00  0.00     0.189 HD
HETATM    9  C   UNL     1     -42.118  54.442 -54.452  1.00  0.00     0.089 A 
HETATM   10  C   UNL     1     -41.672  55.291 -55.506  1.00  0.00     0.071 A 
BRANCH   9  11
HETATM   11  C   UNL     1     -41.327  53.490 -53.667  1.00  0.00    -0.005 A 
HETATM   12  C   UNL     1     -40.719  52.388 -54.287  1.00  0.00     0.016 A 
HETATM   13  C   UNL     1     -39.940  51.484 -53.553  1.00  0.00     0.037 A 
HETATM   14  C   UNL     1     -39.763  51.666 -52.183  1.00  0.00     0.068 A 
HETATM   15  C   UNL     1     -40.379  52.749 -51.555  1.00  0.00     0.037 A 
HETATM   16  C   UNL     1     -41.154  53.656 -52.287  1.00  0.00     0.016 A 
BRANCH  14  17
HETATM   17  O   UNL     1     -39.027  50.867 -51.352  1.00  0.00    -0.356 OA
HETATM   18  C   UNL     1     -39.655  49.682 -50.881  1.00  0.00     0.210 C 
ENDBRANCH  14  17
ENDBRANCH   9  11
ENDBRANCH   1   5
BRANCH   2  19
HETATM   19  N   UNL     1     -41.993  58.212 -58.748  1.00  0.00    -0.267 N 
HETATM   20  C   UNL     1     -41.973  57.905 -60.091  1.00  0.00     0.240 C 
HETATM   21  O   UNL     1     -42.005  56.744 -60.502  1.00  0.00    -0.272 OA
HETATM   22  H   UNL     1     -41.913  59.157 -58.374  1.00  0.00     0.190 HD
BRANCH  20  23
HETATM   23  C   UNL     1     -41.916  59.105 -61.013  1.00  0.00     0.144 C 
BRANCH  23  24
HETATM   24  C   UNL     1     -42.955  60.143 -60.669  1.00  0.00    -0.028 A 
HETATM   25  C   UNL     1     -42.633  61.375 -60.079  1.00  0.00     0.040 A 
HETATM   26 CL   UNL     1     -41.002  61.811 -59.711  1.00  0.00    -0.084 Cl
HETATM   27  C   UNL     1     -43.636  62.297 -59.766  1.00  0.00     0.024 A 
HETATM   28  C   UNL     1     -44.973  61.998 -60.027  1.00  0.00     0.002 A 
HETATM   29  C   UNL     1     -45.308  60.773 -60.597  1.00  0.00     0.001 A 
HETATM   30  C   UNL     1     -44.309  59.851 -60.912  1.00  0.00     0.009 A 
ENDBRANCH  23  24
ENDBRANCH  20  23
ENDBRANCH   2  19
TORSDOF 6
ENDMDL
MODEL 7
REMARK VINA RESULT:      -7.8      4.249      5.077
REMARK  6 active torsions:
REMARK  status: ('A' for Active; 'I' for Inactive)
REMARK    1  A    between atoms: O_2  and  C_3 
REMARK    2  A    between atoms: C_6  and  C_7 
REMARK    3  A    between atoms: C_11  and  C_12 
REMARK       I    between atoms: C_12  and  N_13 
REMARK    4  A    between atoms: N_13  and  N_14 
REMARK       I    between atoms: N_14  and  C_15 
REMARK    5  A    between atoms: C_15  and  C_16 
REMARK    6  A    between atoms: C_16  and  C_17 
ROOT
HETATM    1  C   UNL     1     -43.028  56.119 -56.527  1.00  0.00     0.288 C 
HETATM    2  N   UNL     1     -43.162  56.637 -55.256  1.00  0.00    -0.262 N 
HETATM    3  O   UNL     1     -43.023  54.908 -56.741  1.00  0.00    -0.264 OA
HETATM    4  H   UNL     1     -43.041  57.624 -55.043  1.00  0.00     0.190 HD
ENDROOT
BRANCH   1   5
HETATM    5  C   UNL     1     -42.888  57.093 -57.574  1.00  0.00     0.121 A 
HETATM    6  N   UNL     1     -43.534  56.964 -58.771  1.00  0.00    -0.272 N 
HETATM    7  N   UNL     1     -43.307  57.968 -59.631  1.00  0.00    -0.174 NA
HETATM    8  H   UNL     1     -44.152  56.208 -59.052  1.00  0.00     0.189 HD
HETATM    9  C   UNL     1     -42.459  58.785 -58.985  1.00  0.00     0.089 A 
HETATM   10  C   UNL     1     -42.177  58.271 -57.687  1.00  0.00     0.071 A 
BRANCH   9  11
HETATM   11  C   UNL     1     -41.955  60.019 -59.595  1.00  0.00    -0.005 A 
HETATM   12  C   UNL     1     -41.414  61.038 -58.797  1.00  0.00     0.016 A 
HETATM   13  C   UNL     1     -40.907  62.212 -59.369  1.00  0.00     0.037 A 
HETATM   14  C   UNL     1     -40.939  62.387 -60.751  1.00  0.00     0.068 A 
HETATM   15  C   UNL     1     -41.492  61.386 -61.550  1.00  0.00     0.037 A 
HETATM   16  C   UNL     1     -41.995  60.211 -60.982  1.00  0.00     0.016 A 
BRANCH  14  17
HETATM   17  O   UNL     1     -40.475  63.475 -61.437  1.00  0.00    -0.356 OA
HETATM   18  C   UNL     1     -39.377  63.259 -62.314  1.00  0.00     0.210 C 
ENDBRANCH  14  17
ENDBRANCH   9  11
ENDBRANCH   1   5
BRANCH   2  19
HETATM   19  N   UNL     1     -43.132  55.768 -54.160  1.00  0.00    -0.267 N 
HETATM   20  C   UNL     1     -41.935  55.605 -53.499  1.00  0.00     0.240 C 
HETATM   21  O   UNL     1     -40.930  56.259 -53.784  1.00  0.00    -0.272 OA
HETATM   22  H   UNL     1     -43.965  55.206 -53.986  1.00  0.00     0.190 HD
BRANCH  20  23
HETATM   23  C   UNL     1     -41.957  54.569 -52.394  1.00  0.00     0.144 C 
BRANCH  23  24
HETATM   24  C   UNL     1     -41.105  53.367 -52.718  1.00  0.00    -0.028 A 
HETATM   25  C   UNL     1     -40.150  52.850 -51.828  1.00  0.00     0.040 A 
HETATM   26 CL   UNL     1     -39.884  53.548 -50.270  1.00  0.00    -0.084 Cl
HETATM   27  C   UNL     1     -39.374  51.742 -52.183  1.00  0.00     0.024 A 
HETATM   28  C   UNL     1     -39.533  51.143 -53.432  1.00  0.00     0.002 A 
HETATM   29  C   UNL     1     -40.465  51.655 -54.331  1.00  0.00     0.001 A 
HETATM   30  C   UNL     1     -41.242  52.760 -53.979  1.00  0.00     0.009 A 
ENDBRANCH  23  24
ENDBRANCH  20  23
ENDBRANCH   2  19
TORSDOF 6
ENDMDL
MODEL 8
REMARK VINA RESULT:      -7.6      7.108      8.480
REMARK  6 active torsions:
REMARK  status: ('A' for Active; 'I' for Inactive)
REMARK    1  A    between atoms: O_2  and  C_3 
REMARK    2  A    between atoms: C_6  and  C_7 
REMARK    3  A    between atoms: C_11  and  C_12 
REMARK       I    between atoms: C_12  and  N_13 
REMARK    4  A    between atoms: N_13  and  N_14 
REMARK       I    between atoms: N_14  and  C_15 
REMARK    5  A    between atoms: C_15  and  C_16 
REMARK    6  A    between atoms: C_16  and  C_17 
ROOT
HETATM    1  C   UNL     1     -41.654  56.519 -52.196  1.00  0.00     0.288 C 
HETATM    2  N   UNL     1     -41.435  56.249 -53.530  1.00  0.00    -0.262 N 
HETATM    3  O   UNL     1     -41.037  55.940 -51.303  1.00  0.00    -0.264 OA
HETATM    4  H   UNL     1     -42.021  56.621 -54.274  1.00  0.00     0.190 HD
ENDROOT
BRANCH   1   5
HETATM    5  C   UNL     1     -42.655  57.514 -51.926  1.00  0.00     0.121 A 
HETATM    6  N   UNL     1     -43.912  57.434 -52.454  1.00  0.00    -0.272 N 
HETATM    7  N   UNL     1     -44.727  58.436 -52.090  1.00  0.00    -0.174 NA
HETATM    8  H   UNL     1     -44.272  56.709 -53.068  1.00  0.00     0.189 HD
HETATM    9  C   UNL     1     -43.972  59.222 -51.306  1.00  0.00     0.089 A 
HETATM   10  C   UNL     1     -42.664  58.672 -51.174  1.00  0.00     0.071 A 
BRANCH   9  11
HETATM   11  C   UNL     1     -44.499  60.446 -50.696  1.00  0.00    -0.005 A 
HETATM   12  C   UNL     1     -45.843  60.808 -50.875  1.00  0.00     0.016 A 
HETATM   13  C   UNL     1     -46.366  61.963 -50.278  1.00  0.00     0.037 A 
HETATM   14  C   UNL     1     -45.550  62.776 -49.495  1.00  0.00     0.068 A 
HETATM   15  C   UNL     1     -44.207  62.433 -49.328  1.00  0.00     0.037 A 
HETATM   16  C   UNL     1     -43.684  61.279 -49.919  1.00  0.00     0.016 A 
BRANCH  14  17
HETATM   17  O   UNL     1     -45.931  63.922 -48.853  1.00  0.00    -0.356 OA
HETATM   18  C   UNL     1     -46.311  63.796 -47.489  1.00  0.00     0.210 C 
ENDBRANCH  14  17
ENDBRANCH   9  11
ENDBRANCH   1   5
BRANCH   2  19
HETATM   19  N   UNL     1     -40.608  55.178 -53.882  1.00  0.00    -0.267 N 
HETATM   20  C   UNL     1     -41.201  53.963 -54.145  1.00  0.00     0.240 C 
HETATM   21  O   UNL     1     -42.424  53.818 -54.167  1.00  0.00    -0.272 OA
HETATM   22  H   UNL     1     -39.600  55.320 -53.803  1.00  0.00     0.190 HD
BRANCH  20  23
HETATM   23  C   UNL     1     -40.233  52.831 -54.413  1.00  0.00     0.144 C 
BRANCH  23  24
HETATM   24  C   UNL     1     -40.038  51.946 -53.206  1.00  0.00    -0.028 A 
HETATM   25  C   UNL     1     -39.766  50.572 -53.305  1.00  0.00     0.040 A 
HETATM   26 CL   UNL     1     -39.615  49.782 -54.834  1.00  0.00    -0.084 Cl
HETATM   27  C   UNL     1     -39.609  49.794 -52.155  1.00  0.00     0.024 A 
HETATM   28  C   UNL     1     -39.732  50.372 -50.892  1.00  0.00     0.002 A 
HETATM   29  C   UNL     1     -40.017  51.729 -50.778  1.00  0.00     0.001 A 
HETATM   30  C   UNL     1     -40.173  52.510 -51.925  1.00  0.00     0.009 A 
ENDBRANCH  23  24
ENDBRANCH  20  23
ENDBRANCH   2  19
TORSDOF 6
ENDMDL
MODEL 9
REMARK VINA RESULT:      -7.5      7.334     11.104
REMARK  6 active torsions:
REMARK  status: ('A' for Active; 'I' for Inactive)
REMARK    1  A    between atoms: O_2  and  C_3 
REMARK    2  A    between atoms: C_6  and  C_7 
REMARK    3  A    between atoms: C_11  and  C_12 
REMARK       I    between atoms: C_12  and  N_13 
REMARK    4  A    between atoms: N_13  and  N_14 
REMARK       I    between atoms: N_14  and  C_15 
REMARK    5  A    between atoms: C_15  and  C_16 
REMARK    6  A    between atoms: C_16  and  C_17 
ROOT
HETATM    1  C   UNL     1     -44.490  58.274 -51.008  1.00  0.00     0.288 C 
HETATM    2  N   UNL     1     -43.620  59.314 -50.759  1.00  0.00    -0.262 N 
HETATM    3  O   UNL     1     -45.659  58.296 -50.628  1.00  0.00    -0.264 OA
HETATM    4  H   UNL     1     -42.622  59.261 -50.951  1.00  0.00     0.190 HD
ENDROOT
BRANCH   1   5
HETATM    5  C   UNL     1     -43.931  57.166 -51.734  1.00  0.00     0.121 A 
HETATM    6  N   UNL     1     -44.435  56.764 -52.938  1.00  0.00    -0.272 N 
HETATM    7  N   UNL     1     -43.788  55.726 -53.488  1.00  0.00    -0.174 NA
HETATM    8  H   UNL     1     -45.223  57.170 -53.436  1.00  0.00     0.189 HD
HETATM    9  C   UNL     1     -42.828  55.415 -52.602  1.00  0.00     0.089 A 
HETATM   10  C   UNL     1     -42.883  56.303 -51.488  1.00  0.00     0.071 A 
BRANCH   9  11
HETATM   11  C   UNL     1     -41.888  54.314 -52.831  1.00  0.00    -0.005 A 
HETATM   12  C   UNL     1     -41.063  53.855 -51.794  1.00  0.00     0.016 A 
HETATM   13  C   UNL     1     -40.177  52.787 -51.994  1.00  0.00     0.037 A 
HETATM   14  C   UNL     1     -40.101  52.166 -53.238  1.00  0.00     0.068 A 
HETATM   15  C   UNL     1     -40.905  52.629 -54.280  1.00  0.00     0.037 A 
HETATM   16  C   UNL     1     -41.793  53.691 -54.082  1.00  0.00     0.016 A 
BRANCH  14  17
HETATM   17  O   UNL     1     -39.289  51.115 -53.566  1.00  0.00    -0.356 OA
HETATM   18  C   UNL     1     -39.865  50.081 -54.353  1.00  0.00     0.210 C 
ENDBRANCH  14  17
ENDBRANCH   9  11
ENDBRANCH   1   5
BRANCH   2  19
HETATM   19  N   UNL     1     -44.024  60.353 -49.916  1.00  0.00    -0.267 N 
HETATM   20  C   UNL     1     -43.660  61.638 -50.254  1.00  0.00     0.240 C 
HETATM   21  O   UNL     1     -43.076  61.902 -51.306  1.00  0.00    -0.272 OA
HETATM   22  H   UNL     1     -44.459  60.094 -49.030  1.00  0.00     0.190 HD
BRANCH  20  23
HETATM   23  C   UNL     1     -44.042  62.693 -49.237  1.00  0.00     0.144 C 
BRANCH  23  24
HETATM   24  C   UNL     1     -45.512  63.030 -49.284  1.00  0.00    -0.028 A 
HETATM   25  C   UNL     1     -46.377  62.818 -48.198  1.00  0.00     0.040 A 
HETATM   26 CL   UNL     1     -45.815  62.164 -46.701  1.00  0.00    -0.084 Cl
HETATM   27  C   UNL     1     -47.735  63.134 -48.299  1.00  0.00     0.024 A 
HETATM   28  C   UNL     1     -48.250  63.654 -49.486  1.00  0.00     0.002 A 
HETATM   29  C   UNL     1     -47.408  63.853 -50.576  1.00  0.00     0.001 A 
HETATM   30  C   UNL     1     -46.051  63.541 -50.478  1.00  0.00     0.009 A 
ENDBRANCH  23  24
ENDBRANCH  20  23
ENDBRANCH   2  19
TORSDOF 6
ENDMDL
MODEL 10
REMARK VINA RESULT:      -7.5      4.863     10.474
REMARK  6 active torsions:
REMARK  status: ('A' for Active; 'I' for Inactive)
REMARK    1  A    between atoms: O_2  and  C_3 
REMARK    2  A    between atoms: C_6  and  C_7 
REMARK    3  A    between atoms: C_11  and  C_12 
REMARK       I    between atoms: C_12  and  N_13 
REMARK    4  A    between atoms: N_13  and  N_14 
REMARK       I    between atoms: N_14  and  C_15 
REMARK    5  A    between atoms: C_15  and  C_16 
REMARK    6  A    between atoms: C_16  and  C_17 
ROOT
HETATM    1  C   UNL     1     -43.005  57.214 -57.524  1.00  0.00     0.288 C 
HETATM    2  N   UNL     1     -41.867  57.887 -57.912  1.00  0.00    -0.262 N 
HETATM    3  O   UNL     1     -44.107  57.459 -58.012  1.00  0.00    -0.264 OA
HETATM    4  H   UNL     1     -40.974  57.790 -57.433  1.00  0.00     0.190 HD
ENDROOT
BRANCH   1   5
HETATM    5  C   UNL     1     -42.812  56.216 -56.507  1.00  0.00     0.121 A 
HETATM    6  N   UNL     1     -43.252  54.932 -56.664  1.00  0.00    -0.272 N 
HETATM    7  N   UNL     1     -42.977  54.126 -55.628  1.00  0.00    -0.174 NA
HETATM    8  H   UNL     1     -43.744  54.549 -57.466  1.00  0.00     0.189 HD
HETATM    9  C   UNL     1     -42.347  54.913 -54.741  1.00  0.00     0.089 A 
HETATM   10  C   UNL     1     -42.219  56.233 -55.261  1.00  0.00     0.071 A 
BRANCH   9  11
HETATM   11  C   UNL     1     -41.875  54.403 -53.451  1.00  0.00    -0.005 A 
HETATM   12  C   UNL     1     -42.545  54.738 -52.264  1.00  0.00     0.016 A 
HETATM   13  C   UNL     1     -42.118  54.237 -51.027  1.00  0.00     0.037 A 
HETATM   14  C   UNL     1     -41.009  53.397 -50.958  1.00  0.00     0.068 A 
HETATM   15  C   UNL     1     -40.326  53.074 -52.131  1.00  0.00     0.037 A 
HETATM   16  C   UNL     1     -40.752  53.569 -53.368  1.00  0.00     0.016 A 
BRANCH  14  17
HETATM   17  O   UNL     1     -40.492  52.836 -49.822  1.00  0.00    -0.356 OA
HETATM   18  C   UNL     1     -40.531  53.628 -48.642  1.00  0.00     0.210 C 
ENDBRANCH  14  17
ENDBRANCH   9  11
ENDBRANCH   1   5
BRANCH   2  19
HETATM   19  N   UNL     1     -41.984  58.988 -58.767  1.00  0.00    -0.267 N 
HETATM   20  C   UNL     1     -41.761  60.241 -58.239  1.00  0.00     0.240 C 
HETATM   21  O   UNL     1     -41.380  60.410 -57.080  1.00  0.00    -0.272 OA
HETATM   22  H   UNL     1     -42.351  58.816 -59.703  1.00  0.00     0.190 HD
BRANCH  20  23
HETATM   23  C   UNL     1     -42.013  61.385 -59.198  1.00  0.00     0.144 C 
BRANCH  23  24
HETATM   24  C   UNL     1     -41.080  62.548 -58.961  1.00  0.00    -0.028 A 
HETATM   25  C   UNL     1     -41.409  63.629 -58.128  1.00  0.00     0.040 A 
HETATM   26 CL   UNL     1     -42.916  63.707 -57.288  1.00  0.00    -0.084 Cl
HETATM   27  C   UNL     1     -40.514  64.689 -57.954  1.00  0.00     0.024 A 
HETATM   28  C   UNL     1     -39.287  64.690 -58.616  1.00  0.00     0.002 A 
HETATM   29  C   UNL     1     -38.954  63.633 -59.457  1.00  0.00     0.001 A 
HETATM   30  C   UNL     1     -39.844  62.571 -59.632  1.00  0.00     0.009 A 
ENDBRANCH  23  24
ENDBRANCH  20  23
ENDBRANCH   2  19
TORSDOF 6
ENDMDL
