MODEL 1
REMARK VINA RESULT:      -8.1      0.000      0.000
REMARK  7 active torsions:
REMARK  status: ('A' for Active; 'I' for Inactive)
REMARK    1  A    between atoms: C_2  and  S_3 
REMARK    2  A    between atoms: C_2  and  C_20 
REMARK    3  A    between atoms: S_3  and  C_4 
REMARK    4  A    between atoms: C_4  and  C_5 
REMARK       I    between atoms: C_5  and  N_6 
REMARK    5  A    between atoms: N_6  and  C_7 
REMARK    6  A    between atoms: C_10  and  C_11 
REMARK       I    between atoms: C_11  and  N_12 
REMARK    7  A    between atoms: N_12  and  C_13 
ROOT
HETATM    1  C   UNL     1     -41.393  56.707 -52.094  1.00  0.00     0.231 C 
HETATM    2  N   UNL     1     -42.235  55.851 -52.789  1.00  0.00    -0.327 N 
HETATM    3  O   UNL     1     -40.716  57.610 -52.578  1.00  0.00    -0.272 OA
HETATM    4  H   UNL     1     -42.614  55.070 -52.268  1.00  0.00     0.169 HD
ENDROOT
BRANCH   1   5
HETATM    5  C   UNL     1     -41.391  56.448 -50.594  1.00  0.00     0.177 C 
BRANCH   5   6
HETATM    6  S   UNL     1     -42.283  54.897 -50.236  1.00  0.00    -0.147 SA
BRANCH   6   7
HETATM    7  C   UNL     1     -40.870  53.802 -49.802  1.00  0.00     0.113 C 
HETATM    8  C   UNL     1     -39.676  54.618 -49.314  1.00  0.00     0.029 C 
BRANCH   7   9
HETATM    9  C   UNL     1     -40.517  52.896 -50.944  1.00  0.00     0.118 A 
HETATM   10  N   UNL     1     -40.602  53.166 -52.233  1.00  0.00    -0.232 NA
HETATM   11  C   UNL     1     -40.229  52.013 -52.881  1.00  0.00     0.085 A 
HETATM   12  C   UNL     1     -39.905  51.016 -51.970  1.00  0.00     0.062 A 
HETATM   13  C   UNL     1     -40.155  51.739 -54.254  1.00  0.00     0.034 A 
HETATM   14  N   UNL     1     -40.089  51.603 -50.745  1.00  0.00    -0.342 N 
HETATM   15  C   UNL     1     -39.506  49.733 -52.347  1.00  0.00     0.032 A 
HETATM   16  H   UNL     1     -39.982  51.152 -49.848  1.00  0.00     0.167 HD
HETATM   17  C   UNL     1     -39.438  49.475 -53.722  1.00  0.00     0.002 A 
HETATM   18  C   UNL     1     -39.757  50.460 -54.661  1.00  0.00     0.002 A 
ENDBRANCH   7   9
ENDBRANCH   6   7
ENDBRANCH   5   6
ENDBRANCH   1   5
BRANCH   2  19
HETATM   19  C   UNL     1     -42.635  55.957 -54.136  1.00  0.00     0.034 A 
HETATM   20  C   UNL     1     -42.166  55.125 -55.156  1.00  0.00     0.030 A 
HETATM   21  C   UNL     1     -42.538  55.345 -56.487  1.00  0.00     0.019 A 
HETATM   22  C   UNL     1     -43.375  56.415 -56.816  1.00  0.00     0.032 A 
HETATM   23  C   UNL     1     -43.890  57.219 -55.793  1.00  0.00     0.019 A 
HETATM   24  C   UNL     1     -43.521  56.991 -54.464  1.00  0.00     0.030 A 
BRANCH  22  25
HETATM   25  C   UNL     1     -43.730  56.743 -58.226  1.00  0.00     0.251 C 
HETATM   26  N   UNL     1     -44.840  56.099 -58.735  1.00  0.00    -0.353 N 
HETATM   27  H   UNL     1     -45.237  55.345 -58.194  1.00  0.00     0.163 HD
HETATM   28  O   UNL     1     -43.017  57.503 -58.871  1.00  0.00    -0.268 OA
BRANCH  26  29
HETATM   29  C   UNL     1     -45.253  56.165 -60.133  1.00  0.00     0.076 C 
HETATM   30  C   UNL     1     -44.924  54.895 -60.913  1.00  0.00     0.032 C 
HETATM   31  C   UNL     1     -46.724  56.549 -60.270  1.00  0.00     0.032 C 
ENDBRANCH  26  29
ENDBRANCH  22  25
ENDBRANCH   2  19
TORSDOF 7
ENDMDL
MODEL 2
REMARK VINA RESULT:      -7.8      3.131      6.937
REMARK  7 active torsions:
REMARK  status: ('A' for Active; 'I' for Inactive)
REMARK    1  A    between atoms: C_2  and  S_3 
REMARK    2  A    between atoms: C_2  and  C_20 
REMARK    3  A    between atoms: S_3  and  C_4 
REMARK    4  A    between atoms: C_4  and  C_5 
REMARK       I    between atoms: C_5  and  N_6 
REMARK    5  A    between atoms: N_6  and  C_7 
REMARK    6  A    between atoms: C_10  and  C_11 
REMARK       I    between atoms: C_11  and  N_12 
REMARK    7  A    between atoms: N_12  and  C_13 
ROOT
HETATM    1  C   UNL     1     -42.106  58.564 -51.150  1.00  0.00     0.231 C 
HETATM    2  N   UNL     1     -42.646  57.420 -50.582  1.00  0.00    -0.327 N 
HETATM    3  O   UNL     1     -40.953  58.699 -51.553  1.00  0.00    -0.272 OA
HETATM    4  H   UNL     1     -43.567  57.512 -50.172  1.00  0.00     0.169 HD
ENDROOT
BRANCH   1   5
HETATM    5  C   UNL     1     -43.113  59.699 -51.271  1.00  0.00     0.177 C 
BRANCH   5   6
HETATM    6  S   UNL     1     -44.504  59.178 -52.331  1.00  0.00    -0.147 SA
BRANCH   6   7
HETATM    7  C   UNL     1     -43.665  59.132 -53.968  1.00  0.00     0.113 C 
HETATM    8  C   UNL     1     -44.583  59.662 -55.067  1.00  0.00     0.029 C 
BRANCH   7   9
HETATM    9  C   UNL     1     -43.143  57.759 -54.271  1.00  0.00     0.118 A 
HETATM   10  N   UNL     1     -43.848  56.679 -54.544  1.00  0.00    -0.232 NA
HETATM   11  C   UNL     1     -42.935  55.663 -54.687  1.00  0.00     0.085 A 
HETATM   12  C   UNL     1     -41.641  56.130 -54.500  1.00  0.00     0.062 A 
HETATM   13  C   UNL     1     -43.140  54.304 -54.966  1.00  0.00     0.034 A 
HETATM   14  N   UNL     1     -41.798  57.468 -54.243  1.00  0.00    -0.342 N 
HETATM   15  C   UNL     1     -40.511  55.313 -54.570  1.00  0.00     0.032 A 
HETATM   16  H   UNL     1     -41.060  58.119 -54.018  1.00  0.00     0.167 HD
HETATM   17  C   UNL     1     -40.734  53.958 -54.848  1.00  0.00     0.002 A 
HETATM   18  C   UNL     1     -42.025  53.460 -55.043  1.00  0.00     0.002 A 
ENDBRANCH   7   9
ENDBRANCH   6   7
ENDBRANCH   5   6
ENDBRANCH   1   5
BRANCH   2  19
HETATM   19  C   UNL     1     -42.062  56.138 -50.526  1.00  0.00     0.034 A 
HETATM   20  C   UNL     1     -40.873  55.853 -49.851  1.00  0.00     0.030 A 
HETATM   21  C   UNL     1     -40.304  54.575 -49.913  1.00  0.00     0.019 A 
HETATM   22  C   UNL     1     -40.914  53.569 -50.667  1.00  0.00     0.032 A 
HETATM   23  C   UNL     1     -42.133  53.834 -51.302  1.00  0.00     0.019 A 
HETATM   24  C   UNL     1     -42.701  55.111 -51.232  1.00  0.00     0.030 A 
BRANCH  22  25
HETATM   25  C   UNL     1     -40.304  52.219 -50.835  1.00  0.00     0.251 C 
HETATM   26  N   UNL     1     -39.871  51.906 -52.108  1.00  0.00    -0.353 N 
HETATM   27  H   UNL     1     -40.132  52.526 -52.861  1.00  0.00     0.163 HD
HETATM   28  O   UNL     1     -40.263  51.449 -49.883  1.00  0.00    -0.268 OA
BRANCH  26  29
HETATM   29  C   UNL     1     -39.395  50.586 -52.506  1.00  0.00     0.076 C 
HETATM   30  C   UNL     1     -39.866  49.474 -51.571  1.00  0.00     0.032 C 
HETATM   31  C   UNL     1     -39.733  50.280 -53.963  1.00  0.00     0.032 C 
ENDBRANCH  26  29
ENDBRANCH  22  25
ENDBRANCH   2  19
TORSDOF 7
ENDMDL
MODEL 3
REMARK VINA RESULT:      -7.5      2.073      4.484
REMARK  7 active torsions:
REMARK  status: ('A' for Active; 'I' for Inactive)
REMARK    1  A    between atoms: C_2  and  S_3 
REMARK    2  A    between atoms: C_2  and  C_20 
REMARK    3  A    between atoms: S_3  and  C_4 
REMARK    4  A    between atoms: C_4  and  C_5 
REMARK       I    between atoms: C_5  and  N_6 
REMARK    5  A    between atoms: N_6  and  C_7 
REMARK    6  A    between atoms: C_10  and  C_11 
REMARK       I    between atoms: C_11  and  N_12 
REMARK    7  A    between atoms: N_12  and  C_13 
ROOT
HETATM    1  C   UNL     1     -39.994  52.404 -52.798  1.00  0.00     0.231 C 
HETATM    2  N   UNL     1     -40.812  53.524 -52.783  1.00  0.00    -0.327 N 
HETATM    3  O   UNL     1     -39.754  51.693 -53.770  1.00  0.00    -0.272 OA
HETATM    4  H   UNL     1     -41.021  53.919 -51.874  1.00  0.00     0.169 HD
ENDROOT
BRANCH   1   5
HETATM    5  C   UNL     1     -39.354  52.120 -51.446  1.00  0.00     0.177 C 
BRANCH   5   6
HETATM    6  S   UNL     1     -40.610  52.255 -50.130  1.00  0.00    -0.147 SA
BRANCH   6   7
HETATM    7  C   UNL     1     -40.195  53.915 -49.453  1.00  0.00     0.113 C 
HETATM    8  C   UNL     1     -40.236  53.909 -47.927  1.00  0.00     0.029 C 
BRANCH   7   9
HETATM    9  C   UNL     1     -41.073  54.976 -50.045  1.00  0.00     0.118 A 
HETATM   10  N   UNL     1     -42.332  54.853 -50.421  1.00  0.00    -0.232 NA
HETATM   11  C   UNL     1     -42.683  56.070 -50.954  1.00  0.00     0.085 A 
HETATM   12  C   UNL     1     -41.617  56.959 -50.902  1.00  0.00     0.062 A 
HETATM   13  C   UNL     1     -43.897  56.486 -51.517  1.00  0.00     0.034 A 
HETATM   14  N   UNL     1     -40.607  56.243 -50.314  1.00  0.00    -0.342 N 
HETATM   15  C   UNL     1     -41.684  58.266 -51.389  1.00  0.00     0.032 A 
HETATM   16  H   UNL     1     -39.665  56.568 -50.153  1.00  0.00     0.167 HD
HETATM   17  C   UNL     1     -42.903  58.665 -51.949  1.00  0.00     0.002 A 
HETATM   18  C   UNL     1     -43.993  57.792 -52.014  1.00  0.00     0.002 A 
ENDBRANCH   7   9
ENDBRANCH   6   7
ENDBRANCH   5   6
ENDBRANCH   1   5
BRANCH   2  19
HETATM   19  C   UNL     1     -41.374  54.185 -53.895  1.00  0.00     0.034 A 
HETATM   20  C   UNL     1     -40.904  55.400 -54.398  1.00  0.00     0.030 A 
HETATM   21  C   UNL     1     -41.568  56.043 -55.450  1.00  0.00     0.019 A 
HETATM   22  C   UNL     1     -42.723  55.482 -56.001  1.00  0.00     0.032 A 
HETATM   23  C   UNL     1     -43.168  54.239 -55.536  1.00  0.00     0.019 A 
HETATM   24  C   UNL     1     -42.498  53.597 -54.490  1.00  0.00     0.030 A 
BRANCH  22  25
HETATM   25  C   UNL     1     -43.513  56.169 -57.062  1.00  0.00     0.251 C 
HETATM   26  N   UNL     1     -43.611  55.504 -58.268  1.00  0.00    -0.353 N 
HETATM   27  H   UNL     1     -43.025  54.694 -58.409  1.00  0.00     0.163 HD
HETATM   28  O   UNL     1     -43.982  57.280 -56.847  1.00  0.00    -0.268 OA
BRANCH  26  29
HETATM   29  C   UNL     1     -44.203  56.079 -59.471  1.00  0.00     0.076 C 
HETATM   30  C   UNL     1     -43.230  56.957 -60.254  1.00  0.00     0.032 C 
HETATM   31  C   UNL     1     -44.837  55.008 -60.356  1.00  0.00     0.032 C 
ENDBRANCH  26  29
ENDBRANCH  22  25
ENDBRANCH   2  19
TORSDOF 7
ENDMDL
MODEL 4
REMARK VINA RESULT:      -7.5     14.530     16.005
REMARK  7 active torsions:
REMARK  status: ('A' for Active; 'I' for Inactive)
REMARK    1  A    between atoms: C_2  and  S_3 
REMARK    2  A    between atoms: C_2  and  C_20 
REMARK    3  A    between atoms: S_3  and  C_4 
REMARK    4  A    between atoms: C_4  and  C_5 
REMARK       I    between atoms: C_5  and  N_6 
REMARK    5  A    between atoms: N_6  and  C_7 
REMARK    6  A    between atoms: C_10  and  C_11 
REMARK       I    between atoms: C_11  and  N_12 
REMARK    7  A    between atoms: N_12  and  C_13 
ROOT
HETATM    1  C   UNL     1     -35.702  42.065 -52.665  1.00  0.00     0.231 C 
HETATM    2  N   UNL     1     -35.052  41.980 -53.887  1.00  0.00    -0.327 N 
HETATM    3  O   UNL     1     -36.911  42.202 -52.495  1.00  0.00    -0.272 OA
HETATM    4  H   UNL     1     -34.040  42.012 -53.863  1.00  0.00     0.169 HD
ENDROOT
BRANCH   1   5
HETATM    5  C   UNL     1     -34.755  41.942 -51.480  1.00  0.00     0.177 C 
BRANCH   5   6
HETATM    6  S   UNL     1     -35.001  40.330 -50.661  1.00  0.00    -0.147 SA
BRANCH   6   7
HETATM    7  C   UNL     1     -33.437  39.484 -51.133  1.00  0.00     0.113 C 
HETATM    8  C   UNL     1     -32.233  40.151 -50.472  1.00  0.00     0.029 C 
BRANCH   7   9
HETATM    9  C   UNL     1     -33.296  39.398 -52.623  1.00  0.00     0.118 A 
HETATM   10  N   UNL     1     -34.141  38.848 -53.474  1.00  0.00    -0.232 NA
HETATM   11  C   UNL     1     -33.552  38.960 -54.710  1.00  0.00     0.085 A 
HETATM   12  C   UNL     1     -32.320  39.594 -54.616  1.00  0.00     0.062 A 
HETATM   13  C   UNL     1     -34.008  38.528 -55.964  1.00  0.00     0.034 A 
HETATM   14  N   UNL     1     -32.182  39.869 -53.280  1.00  0.00    -0.342 N 
HETATM   15  C   UNL     1     -31.491  39.828 -55.714  1.00  0.00     0.032 A 
HETATM   16  H   UNL     1     -31.378  40.295 -52.841  1.00  0.00     0.167 HD
HETATM   17  C   UNL     1     -31.960  39.390 -56.959  1.00  0.00     0.002 A 
HETATM   18  C   UNL     1     -33.196  38.751 -57.084  1.00  0.00     0.002 A 
ENDBRANCH   7   9
ENDBRANCH   6   7
ENDBRANCH   5   6
ENDBRANCH   1   5
BRANCH   2  19
HETATM   19  C   UNL     1     -35.642  41.838 -55.159  1.00  0.00     0.034 A 
HETATM   20  C   UNL     1     -36.910  41.291 -55.374  1.00  0.00     0.030 A 
HETATM   21  C   UNL     1     -37.395  41.097 -56.673  1.00  0.00     0.019 A 
HETATM   22  C   UNL     1     -36.608  41.437 -57.776  1.00  0.00     0.032 A 
HETATM   23  C   UNL     1     -35.359  42.034 -57.567  1.00  0.00     0.019 A 
HETATM   24  C   UNL     1     -34.881  42.231 -56.268  1.00  0.00     0.030 A 
BRANCH  22  25
HETATM   25  C   UNL     1     -37.043  41.172 -59.177  1.00  0.00     0.251 C 
HETATM   26  N   UNL     1     -37.006  39.852 -59.581  1.00  0.00    -0.353 N 
HETATM   27  H   UNL     1     -36.545  39.187 -58.977  1.00  0.00     0.163 HD
HETATM   28  O   UNL     1     -37.354  42.108 -59.904  1.00  0.00    -0.268 OA
BRANCH  26  29
HETATM   29  C   UNL     1     -37.240  39.412 -60.953  1.00  0.00     0.076 C 
HETATM   30  C   UNL     1     -36.098  38.567 -61.511  1.00  0.00     0.032 C 
HETATM   31  C   UNL     1     -38.588  38.710 -61.098  1.00  0.00     0.032 C 
ENDBRANCH  26  29
ENDBRANCH  22  25
ENDBRANCH   2  19
TORSDOF 7
ENDMDL
MODEL 5
REMARK VINA RESULT:      -7.3      4.633      7.942
REMARK  7 active torsions:
REMARK  status: ('A' for Active; 'I' for Inactive)
REMARK    1  A    between atoms: C_2  and  S_3 
REMARK    2  A    between atoms: C_2  and  C_20 
REMARK    3  A    between atoms: S_3  and  C_4 
REMARK    4  A    between atoms: C_4  and  C_5 
REMARK       I    between atoms: C_5  and  N_6 
REMARK    5  A    between atoms: N_6  and  C_7 
REMARK    6  A    between atoms: C_10  and  C_11 
REMARK       I    between atoms: C_11  and  N_12 
REMARK    7  A    between atoms: N_12  and  C_13 
ROOT
HETATM    1  C   UNL     1     -44.880  57.837 -51.473  1.00  0.00     0.231 C 
HETATM    2  N   UNL     1     -43.998  57.174 -50.632  1.00  0.00    -0.327 N 
HETATM    3  O   UNL     1     -44.927  57.741 -52.696  1.00  0.00    -0.272 OA
HETATM    4  H   UNL     1     -43.991  57.467 -49.663  1.00  0.00     0.169 HD
ENDROOT
BRANCH   1   5
HETATM    5  C   UNL     1     -45.861  58.725 -50.720  1.00  0.00     0.177 C 
BRANCH   5   6
HETATM    6  S   UNL     1     -46.209  60.225 -51.697  1.00  0.00    -0.147 SA
BRANCH   6   7
HETATM    7  C   UNL     1     -44.916  61.353 -51.034  1.00  0.00     0.113 C 
HETATM    8  C   UNL     1     -44.995  62.726 -51.696  1.00  0.00     0.029 C 
BRANCH   7   9
HETATM    9  C   UNL     1     -43.552  60.740 -51.148  1.00  0.00     0.118 A 
HETATM   10  N   UNL     1     -42.655  60.603 -50.191  1.00  0.00    -0.232 NA
HETATM   11  C   UNL     1     -41.551  60.047 -50.790  1.00  0.00     0.085 A 
HETATM   12  C   UNL     1     -41.776  59.836 -52.144  1.00  0.00     0.062 A 
HETATM   13  C   UNL     1     -40.308  59.705 -50.240  1.00  0.00     0.034 A 
HETATM   14  N   UNL     1     -43.058  60.278 -52.347  1.00  0.00    -0.342 N 
HETATM   15  C   UNL     1     -40.820  59.296 -53.006  1.00  0.00     0.032 A 
HETATM   16  H   UNL     1     -43.541  60.311 -53.233  1.00  0.00     0.167 HD
HETATM   17  C   UNL     1     -39.584  58.961 -52.441  1.00  0.00     0.002 A 
HETATM   18  C   UNL     1     -39.329  59.161 -51.082  1.00  0.00     0.002 A 
ENDBRANCH   7   9
ENDBRANCH   6   7
ENDBRANCH   5   6
ENDBRANCH   1   5
BRANCH   2  19
HETATM   19  C   UNL     1     -43.120  56.126 -50.974  1.00  0.00     0.034 A 
HETATM   20  C   UNL     1     -43.541  54.864 -51.402  1.00  0.00     0.030 A 
HETATM   21  C   UNL     1     -42.614  53.842 -51.637  1.00  0.00     0.019 A 
HETATM   22  C   UNL     1     -41.250  54.068 -51.432  1.00  0.00     0.032 A 
HETATM   23  C   UNL     1     -40.818  55.344 -51.054  1.00  0.00     0.019 A 
HETATM   24  C   UNL     1     -41.747  56.364 -50.826  1.00  0.00     0.030 A 
BRANCH  22  25
HETATM   25  C   UNL     1     -40.233  52.989 -51.586  1.00  0.00     0.251 C 
HETATM   26  N   UNL     1     -40.365  52.189 -52.703  1.00  0.00    -0.353 N 
HETATM   27  H   UNL     1     -41.211  52.275 -53.247  1.00  0.00     0.163 HD
HETATM   28  O   UNL     1     -39.383  52.827 -50.717  1.00  0.00    -0.268 OA
BRANCH  26  29
HETATM   29  C   UNL     1     -39.570  50.990 -52.947  1.00  0.00     0.076 C 
HETATM   30  C   UNL     1     -39.693  49.955 -51.831  1.00  0.00     0.032 C 
HETATM   31  C   UNL     1     -39.867  50.384 -54.316  1.00  0.00     0.032 C 
ENDBRANCH  26  29
ENDBRANCH  22  25
ENDBRANCH   2  19
TORSDOF 7
ENDMDL
MODEL 6
REMARK VINA RESULT:      -7.2      3.073      6.779
REMARK  7 active torsions:
REMARK  status: ('A' for Active; 'I' for Inactive)
REMARK    1  A    between atoms: C_2  and  S_3 
REMARK    2  A    between atoms: C_2  and  C_20 
REMARK    3  A    between atoms: S_3  and  C_4 
REMARK    4  A    between atoms: C_4  and  C_5 
REMARK       I    between atoms: C_5  and  N_6 
REMARK    5  A    between atoms: N_6  and  C_7 
REMARK    6  A    between atoms: C_10  and  C_11 
REMARK       I    between atoms: C_11  and  N_12 
REMARK    7  A    between atoms: N_12  and  C_13 
ROOT
HETATM    1  C   UNL     1     -43.601  57.999 -55.267  1.00  0.00     0.231 C 
HETATM    2  N   UNL     1     -42.493  57.512 -54.588  1.00  0.00    -0.327 N 
HETATM    3  O   UNL     1     -44.319  57.362 -56.033  1.00  0.00    -0.272 OA
HETATM    4  H   UNL     1     -41.923  58.197 -54.106  1.00  0.00     0.169 HD
ENDROOT
BRANCH   1   5
HETATM    5  C   UNL     1     -43.894  59.459 -54.953  1.00  0.00     0.177 C 
BRANCH   5   6
HETATM    6  S   UNL     1     -45.159  59.565 -53.642  1.00  0.00    -0.147 SA
BRANCH   6   7
HETATM    7  C   UNL     1     -44.084  59.856 -52.177  1.00  0.00     0.113 C 
HETATM    8  C   UNL     1     -43.019  60.906 -52.480  1.00  0.00     0.029 C 
BRANCH   7   9
HETATM    9  C   UNL     1     -43.496  58.572 -51.673  1.00  0.00     0.118 A 
HETATM   10  N   UNL     1     -42.229  58.327 -51.400  1.00  0.00    -0.232 NA
HETATM   11  C   UNL     1     -42.174  57.005 -51.033  1.00  0.00     0.085 A 
HETATM   12  C   UNL     1     -43.436  56.425 -51.080  1.00  0.00     0.062 A 
HETATM   13  C   UNL     1     -41.073  56.222 -50.657  1.00  0.00     0.034 A 
HETATM   14  N   UNL     1     -44.261  57.443 -51.484  1.00  0.00    -0.342 N 
HETATM   15  C   UNL     1     -43.677  55.085 -50.773  1.00  0.00     0.032 A 
HETATM   16  H   UNL     1     -45.251  57.368 -51.664  1.00  0.00     0.167 HD
HETATM   17  C   UNL     1     -42.566  54.317 -50.401  1.00  0.00     0.002 A 
HETATM   18  C   UNL     1     -41.286  54.873 -50.343  1.00  0.00     0.002 A 
ENDBRANCH   7   9
ENDBRANCH   6   7
ENDBRANCH   5   6
ENDBRANCH   1   5
BRANCH   2  19
HETATM   19  C   UNL     1     -42.081  56.169 -54.480  1.00  0.00     0.034 A 
HETATM   20  C   UNL     1     -42.962  55.087 -54.408  1.00  0.00     0.030 A 
HETATM   21  C   UNL     1     -42.483  53.786 -54.210  1.00  0.00     0.019 A 
HETATM   22  C   UNL     1     -41.111  53.555 -54.068  1.00  0.00     0.032 A 
HETATM   23  C   UNL     1     -40.221  54.628 -54.192  1.00  0.00     0.019 A 
HETATM   24  C   UNL     1     -40.704  55.925 -54.396  1.00  0.00     0.030 A 
BRANCH  22  25
HETATM   25  C   UNL     1     -40.559  52.203 -53.771  1.00  0.00     0.251 C 
HETATM   26  N   UNL     1     -40.181  51.979 -52.462  1.00  0.00    -0.353 N 
HETATM   27  H   UNL     1     -40.150  52.772 -51.838  1.00  0.00     0.163 HD
HETATM   28  O   UNL     1     -40.416  51.393 -54.679  1.00  0.00    -0.268 OA
BRANCH  26  29
HETATM   29  C   UNL     1     -39.477  50.784 -52.010  1.00  0.00     0.076 C 
HETATM   30  C   UNL     1     -39.862  50.365 -50.593  1.00  0.00     0.032 C 
HETATM   31  C   UNL     1     -39.625  49.632 -53.000  1.00  0.00     0.032 C 
ENDBRANCH  26  29
ENDBRANCH  22  25
ENDBRANCH   2  19
TORSDOF 7
ENDMDL
MODEL 7
REMARK VINA RESULT:      -7.2      4.137      7.268
REMARK  7 active torsions:
REMARK  status: ('A' for Active; 'I' for Inactive)
REMARK    1  A    between atoms: C_2  and  S_3 
REMARK    2  A    between atoms: C_2  and  C_20 
REMARK    3  A    between atoms: S_3  and  C_4 
REMARK    4  A    between atoms: C_4  and  C_5 
REMARK       I    between atoms: C_5  and  N_6 
REMARK    5  A    between atoms: N_6  and  C_7 
REMARK    6  A    between atoms: C_10  and  C_11 
REMARK       I    between atoms: C_11  and  N_12 
REMARK    7  A    between atoms: N_12  and  C_13 
ROOT
HETATM    1  C   UNL     1     -45.890  59.623 -50.771  1.00  0.00     0.231 C 
HETATM    2  N   UNL     1     -45.297  59.329 -51.990  1.00  0.00    -0.327 N 
HETATM    3  O   UNL     1     -46.212  58.812 -49.907  1.00  0.00    -0.272 OA
HETATM    4  H   UNL     1     -45.223  60.093 -52.652  1.00  0.00     0.169 HD
ENDROOT
BRANCH   1   5
HETATM    5  C   UNL     1     -46.101  61.116 -50.559  1.00  0.00     0.177 C 
BRANCH   5   6
HETATM    6  S   UNL     1     -45.184  61.662 -49.079  1.00  0.00    -0.147 SA
BRANCH   6   7
HETATM    7  C   UNL     1     -43.734  62.467 -49.874  1.00  0.00     0.113 C 
HETATM    8  C   UNL     1     -44.162  63.688 -50.685  1.00  0.00     0.029 C 
BRANCH   7   9
HETATM    9  C   UNL     1     -42.949  61.485 -50.691  1.00  0.00     0.118 A 
HETATM   10  N   UNL     1     -42.844  61.442 -52.005  1.00  0.00    -0.232 NA
HETATM   11  C   UNL     1     -42.076  60.337 -52.283  1.00  0.00     0.085 A 
HETATM   12  C   UNL     1     -41.700  59.689 -51.114  1.00  0.00     0.062 A 
HETATM   13  C   UNL     1     -41.668  59.816 -53.519  1.00  0.00     0.034 A 
HETATM   14  N   UNL     1     -42.261  60.441 -50.114  1.00  0.00    -0.342 N 
HETATM   15  C   UNL     1     -40.928  58.526 -51.095  1.00  0.00     0.032 A 
HETATM   16  H   UNL     1     -42.223  60.237 -49.126  1.00  0.00     0.167 HD
HETATM   17  C   UNL     1     -40.530  58.017 -52.338  1.00  0.00     0.002 A 
HETATM   18  C   UNL     1     -40.892  58.649 -53.530  1.00  0.00     0.002 A 
ENDBRANCH   7   9
ENDBRANCH   6   7
ENDBRANCH   5   6
ENDBRANCH   1   5
BRANCH   2  19
HETATM   19  C   UNL     1     -44.770  58.090 -52.405  1.00  0.00     0.034 A 
HETATM   20  C   UNL     1     -44.209  57.151 -51.536  1.00  0.00     0.030 A 
HETATM   21  C   UNL     1     -43.623  55.979 -52.030  1.00  0.00     0.019 A 
HETATM   22  C   UNL     1     -43.578  55.741 -53.407  1.00  0.00     0.032 A 
HETATM   23  C   UNL     1     -44.185  56.652 -54.278  1.00  0.00     0.019 A 
HETATM   24  C   UNL     1     -44.775  57.818 -53.779  1.00  0.00     0.030 A 
BRANCH  22  25
HETATM   25  C   UNL     1     -42.890  54.552 -53.986  1.00  0.00     0.251 C 
HETATM   26  N   UNL     1     -41.875  54.010 -53.223  1.00  0.00    -0.353 N 
HETATM   27  H   UNL     1     -41.560  54.532 -52.419  1.00  0.00     0.163 HD
HETATM   28  O   UNL     1     -43.206  54.152 -55.101  1.00  0.00    -0.268 OA
BRANCH  26  29
HETATM   29  C   UNL     1     -40.984  52.951 -53.685  1.00  0.00     0.076 C 
HETATM   30  C   UNL     1     -40.121  53.373 -54.872  1.00  0.00     0.032 C 
HETATM   31  C   UNL     1     -40.142  52.384 -52.545  1.00  0.00     0.032 C 
ENDBRANCH  26  29
ENDBRANCH  22  25
ENDBRANCH   2  19
TORSDOF 7
ENDMDL
MODEL 8
REMARK VINA RESULT:      -7.2      3.056      7.227
REMARK  7 active torsions:
REMARK  status: ('A' for Active; 'I' for Inactive)
REMARK    1  A    between atoms: C_2  and  S_3 
REMARK    2  A    between atoms: C_2  and  C_20 
REMARK    3  A    between atoms: S_3  and  C_4 
REMARK    4  A    between atoms: C_4  and  C_5 
REMARK       I    between atoms: C_5  and  N_6 
REMARK    5  A    between atoms: N_6  and  C_7 
REMARK    6  A    between atoms: C_10  and  C_11 
REMARK       I    between atoms: C_11  and  N_12 
REMARK    7  A    between atoms: N_12  and  C_13 
ROOT
HETATM    1  C   UNL     1     -43.944  58.990 -52.419  1.00  0.00     0.231 C 
HETATM    2  N   UNL     1     -43.974  57.608 -52.537  1.00  0.00    -0.327 N 
HETATM    3  O   UNL     1     -43.272  59.635 -51.619  1.00  0.00    -0.272 OA
HETATM    4  H   UNL     1     -44.685  57.222 -53.147  1.00  0.00     0.169 HD
ENDROOT
BRANCH   1   5
HETATM    5  C   UNL     1     -44.837  59.690 -53.433  1.00  0.00     0.177 C 
BRANCH   5   6
HETATM    6  S   UNL     1     -43.847  60.195 -54.880  1.00  0.00    -0.147 SA
BRANCH   6   7
HETATM    7  C   UNL     1     -44.166  58.774 -56.004  1.00  0.00     0.113 C 
HETATM    8  C   UNL     1     -45.657  58.451 -56.068  1.00  0.00     0.029 C 
BRANCH   7   9
HETATM    9  C   UNL     1     -43.339  57.583 -55.620  1.00  0.00     0.118 A 
HETATM   10  N   UNL     1     -42.087  57.582 -55.204  1.00  0.00    -0.232 NA
HETATM   11  C   UNL     1     -41.750  56.260 -55.038  1.00  0.00     0.085 A 
HETATM   12  C   UNL     1     -42.819  55.433 -55.357  1.00  0.00     0.062 A 
HETATM   13  C   UNL     1     -40.538  55.688 -54.627  1.00  0.00     0.034 A 
HETATM   14  N   UNL     1     -43.820  56.297 -55.718  1.00  0.00    -0.342 N 
HETATM   15  C   UNL     1     -42.756  54.040 -55.296  1.00  0.00     0.032 A 
HETATM   16  H   UNL     1     -44.737  56.038 -56.052  1.00  0.00     0.167 HD
HETATM   17  C   UNL     1     -41.538  53.484 -54.886  1.00  0.00     0.002 A 
HETATM   18  C   UNL     1     -40.446  54.292 -54.557  1.00  0.00     0.002 A 
ENDBRANCH   7   9
ENDBRANCH   6   7
ENDBRANCH   5   6
ENDBRANCH   1   5
BRANCH   2  19
HETATM   19  C   UNL     1     -43.117  56.680 -51.913  1.00  0.00     0.034 A 
HETATM   20  C   UNL     1     -41.864  57.007 -51.388  1.00  0.00     0.030 A 
HETATM   21  C   UNL     1     -41.027  56.015 -50.863  1.00  0.00     0.019 A 
HETATM   22  C   UNL     1     -41.429  54.677 -50.872  1.00  0.00     0.032 A 
HETATM   23  C   UNL     1     -42.704  54.350 -51.349  1.00  0.00     0.019 A 
HETATM   24  C   UNL     1     -43.540  55.345 -51.866  1.00  0.00     0.030 A 
BRANCH  22  25
HETATM   25  C   UNL     1     -40.541  53.575 -50.405  1.00  0.00     0.251 C 
HETATM   26  N   UNL     1     -40.406  52.502 -51.264  1.00  0.00    -0.353 N 
HETATM   27  H   UNL     1     -41.026  52.455 -52.060  1.00  0.00     0.163 HD
HETATM   28  O   UNL     1     -40.028  53.639 -49.294  1.00  0.00    -0.268 OA
BRANCH  26  29
HETATM   29  C   UNL     1     -39.713  51.265 -50.921  1.00  0.00     0.076 C 
HETATM   30  C   UNL     1     -40.467  50.422 -49.896  1.00  0.00     0.032 C 
HETATM   31  C   UNL     1     -39.354  50.456 -52.165  1.00  0.00     0.032 C 
ENDBRANCH  26  29
ENDBRANCH  22  25
ENDBRANCH   2  19
TORSDOF 7
ENDMDL
MODEL 9
REMARK VINA RESULT:      -7.2      1.802      2.665
REMARK  7 active torsions:
REMARK  status: ('A' for Active; 'I' for Inactive)
REMARK    1  A    between atoms: C_2  and  S_3 
REMARK    2  A    between atoms: C_2  and  C_20 
REMARK    3  A    between atoms: S_3  and  C_4 
REMARK    4  A    between atoms: C_4  and  C_5 
REMARK       I    between atoms: C_5  and  N_6 
REMARK    5  A    between atoms: N_6  and  C_7 
REMARK    6  A    between atoms: C_10  and  C_11 
REMARK       I    between atoms: C_11  and  N_12 
REMARK    7  A    between atoms: N_12  and  C_13 
ROOT
HETATM    1  C   UNL     1     -41.411  59.178 -52.930  1.00  0.00     0.231 C 
HETATM    2  N   UNL     1     -41.242  58.432 -54.087  1.00  0.00    -0.327 N 
HETATM    3  O   UNL     1     -42.318  59.976 -52.707  1.00  0.00    -0.272 OA
HETATM    4  H   UNL     1     -40.369  57.926 -54.175  1.00  0.00     0.169 HD
ENDROOT
BRANCH   1   5
HETATM    5  C   UNL     1     -40.342  58.898 -51.883  1.00  0.00     0.177 C 
BRANCH   5   6
HETATM    6  S   UNL     1     -40.999  57.753 -50.623  1.00  0.00    -0.147 SA
BRANCH   6   7
HETATM    7  C   UNL     1     -42.118  56.731 -51.665  1.00  0.00     0.113 C 
HETATM    8  C   UNL     1     -43.499  56.607 -51.025  1.00  0.00     0.029 C 
BRANCH   7   9
HETATM    9  C   UNL     1     -41.506  55.396 -51.968  1.00  0.00     0.118 A 
HETATM   10  N   UNL     1     -40.948  54.560 -51.113  1.00  0.00    -0.232 NA
HETATM   11  C   UNL     1     -40.482  53.511 -51.867  1.00  0.00     0.085 A 
HETATM   12  C   UNL     1     -40.763  53.705 -53.213  1.00  0.00     0.062 A 
HETATM   13  C   UNL     1     -39.793  52.356 -51.469  1.00  0.00     0.034 A 
HETATM   14  N   UNL     1     -41.421  54.907 -53.252  1.00  0.00    -0.342 N 
HETATM   15  C   UNL     1     -40.391  52.803 -54.212  1.00  0.00     0.032 A 
HETATM   16  H   UNL     1     -41.741  55.381 -54.084  1.00  0.00     0.167 HD
HETATM   17  C   UNL     1     -39.703  51.656 -53.798  1.00  0.00     0.002 A 
HETATM   18  C   UNL     1     -39.408  51.434 -52.451  1.00  0.00     0.002 A 
ENDBRANCH   7   9
ENDBRANCH   6   7
ENDBRANCH   5   6
ENDBRANCH   1   5
BRANCH   2  19
HETATM   19  C   UNL     1     -42.157  58.286 -55.149  1.00  0.00     0.034 A 
HETATM   20  C   UNL     1     -42.983  57.171 -55.318  1.00  0.00     0.030 A 
HETATM   21  C   UNL     1     -43.802  57.053 -56.447  1.00  0.00     0.019 A 
HETATM   22  C   UNL     1     -43.794  58.047 -57.430  1.00  0.00     0.032 A 
HETATM   23  C   UNL     1     -43.010  59.190 -57.239  1.00  0.00     0.019 A 
HETATM   24  C   UNL     1     -42.197  59.306 -56.107  1.00  0.00     0.030 A 
BRANCH  22  25
HETATM   25  C   UNL     1     -44.583  57.928 -58.689  1.00  0.00     0.251 C 
HETATM   26  N   UNL     1     -44.920  56.645 -59.071  1.00  0.00    -0.353 N 
HETATM   27  H   UNL     1     -44.486  55.877 -58.579  1.00  0.00     0.163 HD
HETATM   28  O   UNL     1     -44.846  58.933 -59.339  1.00  0.00    -0.268 OA
BRANCH  26  29
HETATM   29  C   UNL     1     -45.548  56.312 -60.346  1.00  0.00     0.076 C 
HETATM   30  C   UNL     1     -44.981  55.042 -60.976  1.00  0.00     0.032 C 
HETATM   31  C   UNL     1     -47.069  56.255 -60.228  1.00  0.00     0.032 C 
ENDBRANCH  26  29
ENDBRANCH  22  25
ENDBRANCH   2  19
TORSDOF 7
ENDMDL
MODEL 10
REMARK VINA RESULT:      -7.1      2.665      8.006
REMARK  7 active torsions:
REMARK  status: ('A' for Active; 'I' for Inactive)
REMARK    1  A    between atoms: C_2  and  S_3 
REMARK    2  A    between atoms: C_2  and  C_20 
REMARK    3  A    between atoms: S_3  and  C_4 
REMARK    4  A    between atoms: C_4  and  C_5 
REMARK       I    between atoms: C_5  and  N_6 
REMARK    5  A    between atoms: N_6  and  C_7 
REMARK    6  A    between atoms: C_10  and  C_11 
REMARK       I    between atoms: C_11  and  N_12 
REMARK    7  A    between atoms: N_12  and  C_13 
ROOT
HETATM    1  C   UNL     1     -41.615  59.127 -54.111  1.00  0.00     0.231 C 
HETATM    2  N   UNL     1     -42.366  57.965 -54.211  1.00  0.00    -0.327 N 
HETATM    3  O   UNL     1     -40.469  59.215 -53.678  1.00  0.00    -0.272 OA
HETATM    4  H   UNL     1     -43.342  58.078 -54.456  1.00  0.00     0.169 HD
ENDROOT
BRANCH   1   5
HETATM    5  C   UNL     1     -42.349  60.353 -54.635  1.00  0.00     0.177 C 
BRANCH   5   6
HETATM    6  S   UNL     1     -42.280  60.380 -56.458  1.00  0.00    -0.147 SA
BRANCH   6   7
HETATM    7  C   UNL     1     -44.062  60.149 -56.854  1.00  0.00     0.113 C 
HETATM    8  C   UNL     1     -44.911  60.168 -55.585  1.00  0.00     0.029 C 
BRANCH   7   9
HETATM    9  C   UNL     1     -44.280  58.909 -57.669  1.00  0.00     0.118 A 
HETATM   10  N   UNL     1     -45.317  58.629 -58.435  1.00  0.00    -0.232 NA
HETATM   11  C   UNL     1     -45.091  57.364 -58.922  1.00  0.00     0.085 A 
HETATM   12  C   UNL     1     -43.888  56.859 -58.446  1.00  0.00     0.062 A 
HETATM   13  C   UNL     1     -45.880  56.575 -59.770  1.00  0.00     0.034 A 
HETATM   14  N   UNL     1     -43.387  57.861 -57.657  1.00  0.00    -0.342 N 
HETATM   15  C   UNL     1     -43.411  55.586 -58.765  1.00  0.00     0.032 A 
HETATM   16  H   UNL     1     -42.536  57.821 -57.115  1.00  0.00     0.167 HD
HETATM   17  C   UNL     1     -44.212  54.810 -59.612  1.00  0.00     0.002 A 
HETATM   18  C   UNL     1     -45.426  55.293 -60.106  1.00  0.00     0.002 A 
ENDBRANCH   7   9
ENDBRANCH   6   7
ENDBRANCH   5   6
ENDBRANCH   1   5
BRANCH   2  19
HETATM   19  C   UNL     1     -41.918  56.642 -54.026  1.00  0.00     0.034 A 
HETATM   20  C   UNL     1     -41.636  56.082 -52.777  1.00  0.00     0.030 A 
HETATM   21  C   UNL     1     -41.107  54.790 -52.674  1.00  0.00     0.019 A 
HETATM   22  C   UNL     1     -40.840  54.045 -53.827  1.00  0.00     0.032 A 
HETATM   23  C   UNL     1     -41.169  54.580 -55.077  1.00  0.00     0.019 A 
HETATM   24  C   UNL     1     -41.703  55.869 -55.174  1.00  0.00     0.030 A 
BRANCH  22  25
HETATM   25  C   UNL     1     -40.199  52.701 -53.774  1.00  0.00     0.251 C 
HETATM   26  N   UNL     1     -40.194  52.081 -52.540  1.00  0.00    -0.353 N 
HETATM   27  H   UNL     1     -40.471  52.628 -51.737  1.00  0.00     0.163 HD
HETATM   28  O   UNL     1     -39.673  52.240 -54.780  1.00  0.00    -0.268 OA
BRANCH  26  29
HETATM   29  C   UNL     1     -39.480  50.842 -52.252  1.00  0.00     0.076 C 
HETATM   30  C   UNL     1     -39.725  50.328 -50.836  1.00  0.00     0.032 C 
HETATM   31  C   UNL     1     -39.764  49.770 -53.301  1.00  0.00     0.032 C 
ENDBRANCH  26  29
ENDBRANCH  22  25
ENDBRANCH   2  19
TORSDOF 7
ENDMDL
