MODEL 1
REMARK VINA RESULT:      -9.1      0.000      0.000
REMARK  6 active torsions:
REMARK  status: ('A' for Active; 'I' for Inactive)
REMARK    1  A    between atoms: C_2  and  O_4 
REMARK    2  A    between atoms: O_4  and  C_5 
REMARK    3  A    between atoms: C_9  and  N_10 
REMARK    4  A    between atoms: N_10  and  C_11 
REMARK    5  A    between atoms: N_14  and  C_17 
REMARK    6  A    between atoms: C_20  and  C_23 
ROOT
HETATM    1  C   UNL     1     -42.622  56.331 -52.269  1.00  0.00     0.176 C 
HETATM    2  C   UNL     1     -43.983  57.011 -52.249  1.00  0.00     0.055 C 
HETATM    3  C   UNL     1     -44.284  57.252 -53.715  1.00  0.00     0.135 C 
HETATM    4  N   UNL     1     -42.995  57.491 -54.319  1.00  0.00    -0.316 N 
HETATM    5  C   UNL     1     -41.983  56.900 -53.543  1.00  0.00     0.247 C 
HETATM    6  O   UNL     1     -40.790  56.785 -53.796  1.00  0.00    -0.271 OA
ENDROOT
BRANCH   4   7
HETATM    7  C   UNL     1     -42.829  58.162 -55.564  1.00  0.00     0.037 A 
HETATM    8  C   UNL     1     -43.137  59.522 -55.716  1.00  0.00     0.030 A 
HETATM    9  C   UNL     1     -43.034  60.161 -56.959  1.00  0.00     0.016 A 
HETATM   10  C   UNL     1     -42.649  59.437 -58.085  1.00  0.00    -0.005 A 
HETATM   11  C   UNL     1     -42.287  58.098 -57.950  1.00  0.00     0.016 A 
HETATM   12  C   UNL     1     -42.375  57.469 -56.700  1.00  0.00     0.030 A 
BRANCH  10  13
HETATM   13  C   UNL     1     -42.565  60.082 -59.421  1.00  0.00     0.098 A 
HETATM   14  N   UNL     1     -43.401  59.663 -60.324  1.00  0.00    -0.170 NA
HETATM   15  N   UNL     1     -43.322  60.185 -61.576  1.00  0.00    -0.242 N 
HETATM   16  C   UNL     1     -42.393  61.096 -62.015  1.00  0.00     0.272 A 
HETATM   17  H   UNL     1     -43.967  59.813 -62.266  1.00  0.00     0.192 HD
HETATM   18  O   UNL     1     -42.343  61.473 -63.180  1.00  0.00    -0.266 OA
HETATM   19  C   UNL     1     -41.469  61.620 -60.998  1.00  0.00     0.046 A 
HETATM   20  C   UNL     1     -40.535  62.607 -61.339  1.00  0.00     0.018 A 
HETATM   21  C   UNL     1     -41.565  61.152 -59.689  1.00  0.00     0.011 A 
HETATM   22  C   UNL     1     -39.702  63.144 -60.359  1.00  0.00     0.001 A 
HETATM   23  C   UNL     1     -39.818  62.710 -59.039  1.00  0.00     0.001 A 
HETATM   24  C   UNL     1     -40.752  61.725 -58.701  1.00  0.00     0.015 A 
ENDBRANCH  10  13
ENDBRANCH   4   7
BRANCH   1  25
HETATM   25  N   UNL     1     -42.791  54.878 -52.362  1.00  0.00    -0.377 N 
HETATM   26  H   UNL     1     -43.443  54.588 -53.092  1.00  0.00     0.160 HD
BRANCH  25  27
HETATM   27  C   UNL     1     -41.726  53.991 -52.209  1.00  0.00     0.031 A 
HETATM   28  C   UNL     1     -41.124  53.679 -50.985  1.00  0.00     0.029 A 
HETATM   29  C   UNL     1     -40.096  52.733 -50.903  1.00  0.00     0.005 A 
HETATM   30  C   UNL     1     -39.693  52.040 -52.040  1.00  0.00     0.037 A 
HETATM   31  C   UNL     1     -40.322  52.283 -53.257  1.00  0.00     0.077 A 
HETATM   32  C   UNL     1     -41.312  53.269 -53.340  1.00  0.00     0.066 A 
BRANCH  31  33
HETATM   33  O   UNL     1     -39.884  51.527 -54.309  1.00  0.00    -0.290 OA
BRANCH  33  34
HETATM   34  C   UNL     1     -40.279  50.164 -54.254  1.00  0.00     0.505 C 
HETATM   35  F   UNL     1     -41.558  50.058 -54.689  1.00  0.00    -0.184 F 
HETATM   36  F   UNL     1     -39.509  49.484 -55.142  1.00  0.00    -0.184 F 
ENDBRANCH  33  34
ENDBRANCH  31  33
ENDBRANCH  25  27
ENDBRANCH   1  25
TORSDOF 6
ENDMDL
MODEL 2
REMARK VINA RESULT:      -9.0      6.677     10.158
REMARK  6 active torsions:
REMARK  status: ('A' for Active; 'I' for Inactive)
REMARK    1  A    between atoms: C_2  and  O_4 
REMARK    2  A    between atoms: O_4  and  C_5 
REMARK    3  A    between atoms: C_9  and  N_10 
REMARK    4  A    between atoms: N_10  and  C_11 
REMARK    5  A    between atoms: N_14  and  C_17 
REMARK    6  A    between atoms: C_20  and  C_23 
ROOT
HETATM    1  C   UNL     1     -44.425  62.004 -50.939  1.00  0.00     0.176 C 
HETATM    2  C   UNL     1     -44.930  61.907 -52.371  1.00  0.00     0.055 C 
HETATM    3  C   UNL     1     -44.889  60.420 -52.665  1.00  0.00     0.135 C 
HETATM    4  N   UNL     1     -43.762  59.928 -51.909  1.00  0.00    -0.316 N 
HETATM    5  C   UNL     1     -43.494  60.788 -50.830  1.00  0.00     0.247 C 
HETATM    6  O   UNL     1     -42.703  60.638 -49.907  1.00  0.00    -0.271 OA
ENDROOT
BRANCH   4   7
HETATM    7  C   UNL     1     -43.102  58.702 -52.201  1.00  0.00     0.037 A 
HETATM    8  C   UNL     1     -41.741  58.658 -52.541  1.00  0.00     0.030 A 
HETATM    9  C   UNL     1     -41.112  57.457 -52.893  1.00  0.00     0.016 A 
HETATM   10  C   UNL     1     -41.846  56.274 -52.941  1.00  0.00    -0.005 A 
HETATM   11  C   UNL     1     -43.186  56.281 -52.556  1.00  0.00     0.016 A 
HETATM   12  C   UNL     1     -43.805  57.484 -52.189  1.00  0.00     0.030 A 
BRANCH  10  13
HETATM   13  C   UNL     1     -41.211  54.992 -53.343  1.00  0.00     0.098 A 
HETATM   14  N   UNL     1     -41.019  54.812 -54.616  1.00  0.00    -0.170 NA
HETATM   15  N   UNL     1     -40.493  53.630 -55.033  1.00  0.00    -0.242 N 
HETATM   16  C   UNL     1     -40.183  52.556 -54.236  1.00  0.00     0.272 A 
HETATM   17  H   UNL     1     -40.386  53.509 -56.036  1.00  0.00     0.192 HD
HETATM   18  O   UNL     1     -39.772  51.496 -54.692  1.00  0.00    -0.266 OA
HETATM   19  C   UNL     1     -40.347  52.756 -52.788  1.00  0.00     0.046 A 
HETATM   20  C   UNL     1     -39.986  51.740 -51.893  1.00  0.00     0.018 A 
HETATM   21  C   UNL     1     -40.825  53.979 -52.322  1.00  0.00     0.011 A 
HETATM   22  C   UNL     1     -40.087  51.956 -50.519  1.00  0.00     0.001 A 
HETATM   23  C   UNL     1     -40.527  53.191 -50.044  1.00  0.00     0.001 A 
HETATM   24  C   UNL     1     -40.885  54.204 -50.940  1.00  0.00     0.015 A 
ENDBRANCH  10  13
ENDBRANCH   4   7
BRANCH   1  25
HETATM   25  N   UNL     1     -45.549  61.899 -50.006  1.00  0.00    -0.377 N 
HETATM   26  H   UNL     1     -46.201  61.146 -50.232  1.00  0.00     0.160 HD
BRANCH  25  27
HETATM   27  C   UNL     1     -45.399  62.083 -48.632  1.00  0.00     0.031 A 
HETATM   28  C   UNL     1     -45.245  63.328 -48.011  1.00  0.00     0.029 A 
HETATM   29  C   UNL     1     -45.158  63.439 -46.619  1.00  0.00     0.005 A 
HETATM   30  C   UNL     1     -45.282  62.307 -45.820  1.00  0.00     0.037 A 
HETATM   31  C   UNL     1     -45.503  61.065 -46.409  1.00  0.00     0.077 A 
HETATM   32  C   UNL     1     -45.535  60.957 -47.804  1.00  0.00     0.066 A 
BRANCH  31  33
HETATM   33  O   UNL     1     -45.650  60.018 -45.542  1.00  0.00    -0.290 OA
BRANCH  33  34
HETATM   34  C   UNL     1     -46.799  59.219 -45.780  1.00  0.00     0.505 C 
HETATM   35  F   UNL     1     -46.948  58.344 -44.755  1.00  0.00    -0.184 F 
HETATM   36  F   UNL     1     -47.878  60.041 -45.747  1.00  0.00    -0.184 F 
ENDBRANCH  33  34
ENDBRANCH  31  33
ENDBRANCH  25  27
ENDBRANCH   1  25
TORSDOF 6
ENDMDL
MODEL 3
REMARK VINA RESULT:      -8.9      6.932     10.680
REMARK  6 active torsions:
REMARK  status: ('A' for Active; 'I' for Inactive)
REMARK    1  A    between atoms: C_2  and  O_4 
REMARK    2  A    between atoms: O_4  and  C_5 
REMARK    3  A    between atoms: C_9  and  N_10 
REMARK    4  A    between atoms: N_10  and  C_11 
REMARK    5  A    between atoms: N_14  and  C_17 
REMARK    6  A    between atoms: C_20  and  C_23 
ROOT
HETATM    1  C   UNL     1     -43.045  60.391 -50.965  1.00  0.00     0.176 C 
HETATM    2  C   UNL     1     -44.369  59.849 -51.484  1.00  0.00     0.055 C 
HETATM    3  C   UNL     1     -44.229  58.347 -51.321  1.00  0.00     0.135 C 
HETATM    4  N   UNL     1     -42.826  58.085 -51.534  1.00  0.00    -0.316 N 
HETATM    5  C   UNL     1     -42.073  59.241 -51.264  1.00  0.00     0.247 C 
HETATM    6  O   UNL     1     -40.856  59.371 -51.214  1.00  0.00    -0.271 OA
ENDROOT
BRANCH   4   7
HETATM    7  C   UNL     1     -42.316  56.804 -51.888  1.00  0.00     0.037 A 
HETATM    8  C   UNL     1     -41.556  56.038 -50.992  1.00  0.00     0.030 A 
HETATM    9  C   UNL     1     -41.001  54.808 -51.367  1.00  0.00     0.016 A 
HETATM   10  C   UNL     1     -41.172  54.334 -52.666  1.00  0.00    -0.005 A 
HETATM   11  C   UNL     1     -41.968  55.050 -53.559  1.00  0.00     0.016 A 
HETATM   12  C   UNL     1     -42.534  56.272 -53.171  1.00  0.00     0.030 A 
BRANCH  10  13
HETATM   13  C   UNL     1     -40.567  53.048 -53.100  1.00  0.00     0.098 A 
HETATM   14  N   UNL     1     -40.285  52.935 -54.365  1.00  0.00    -0.170 NA
HETATM   15  N   UNL     1     -39.782  51.756 -54.815  1.00  0.00    -0.242 N 
HETATM   16  C   UNL     1     -39.584  50.622 -54.067  1.00  0.00     0.272 A 
HETATM   17  H   UNL     1     -39.603  51.689 -55.813  1.00  0.00     0.192 HD
HETATM   18  O   UNL     1     -39.187  49.572 -54.558  1.00  0.00    -0.266 OA
HETATM   19  C   UNL     1     -39.849  50.743 -52.626  1.00  0.00     0.046 A 
HETATM   20  C   UNL     1     -39.605  49.659 -51.772  1.00  0.00     0.018 A 
HETATM   21  C   UNL     1     -40.306  51.958 -52.120  1.00  0.00     0.011 A 
HETATM   22  C   UNL     1     -39.802  49.797 -50.399  1.00  0.00     0.001 A 
HETATM   23  C   UNL     1     -40.221  51.022 -49.880  1.00  0.00     0.001 A 
HETATM   24  C   UNL     1     -40.463  52.103 -50.734  1.00  0.00     0.015 A 
ENDBRANCH  10  13
ENDBRANCH   4   7
BRANCH   1  25
HETATM   25  N   UNL     1     -43.141  60.648 -49.526  1.00  0.00    -0.377 N 
HETATM   26  H   UNL     1     -42.240  60.834 -49.083  1.00  0.00     0.160 HD
BRANCH  25  27
HETATM   27  C   UNL     1     -44.179  61.392 -48.967  1.00  0.00     0.031 A 
HETATM   28  C   UNL     1     -44.509  62.699 -49.343  1.00  0.00     0.029 A 
HETATM   29  C   UNL     1     -45.604  63.362 -48.778  1.00  0.00     0.005 A 
HETATM   30  C   UNL     1     -46.423  62.705 -47.866  1.00  0.00     0.037 A 
HETATM   31  C   UNL     1     -46.156  61.382 -47.526  1.00  0.00     0.077 A 
HETATM   32  C   UNL     1     -45.028  60.745 -48.055  1.00  0.00     0.066 A 
BRANCH  31  33
HETATM   33  O   UNL     1     -47.038  60.808 -46.652  1.00  0.00    -0.290 OA
BRANCH  33  34
HETATM   34  C   UNL     1     -46.587  59.589 -46.083  1.00  0.00     0.505 C 
HETATM   35  F   UNL     1     -45.745  59.866 -45.056  1.00  0.00    -0.184 F 
HETATM   36  F   UNL     1     -47.668  58.971 -45.542  1.00  0.00    -0.184 F 
ENDBRANCH  33  34
ENDBRANCH  31  33
ENDBRANCH  25  27
ENDBRANCH   1  25
TORSDOF 6
ENDMDL
MODEL 4
REMARK VINA RESULT:      -8.7      6.742     10.713
REMARK  6 active torsions:
REMARK  status: ('A' for Active; 'I' for Inactive)
REMARK    1  A    between atoms: C_2  and  O_4 
REMARK    2  A    between atoms: O_4  and  C_5 
REMARK    3  A    between atoms: C_9  and  N_10 
REMARK    4  A    between atoms: N_10  and  C_11 
REMARK    5  A    between atoms: N_14  and  C_17 
REMARK    6  A    between atoms: C_20  and  C_23 
ROOT
HETATM    1  C   UNL     1     -44.192  62.072 -51.704  1.00  0.00     0.176 C 
HETATM    2  C   UNL     1     -44.655  61.483 -53.028  1.00  0.00     0.055 C 
HETATM    3  C   UNL     1     -44.726  59.994 -52.752  1.00  0.00     0.135 C 
HETATM    4  N   UNL     1     -43.670  59.747 -51.800  1.00  0.00    -0.316 N 
HETATM    5  C   UNL     1     -43.368  60.927 -51.098  1.00  0.00     0.247 C 
HETATM    6  O   UNL     1     -42.624  61.080 -50.137  1.00  0.00    -0.271 OA
ENDROOT
BRANCH   4   7
HETATM    7  C   UNL     1     -43.103  58.460 -51.580  1.00  0.00     0.037 A 
HETATM    8  C   UNL     1     -41.717  58.273 -51.468  1.00  0.00     0.030 A 
HETATM    9  C   UNL     1     -41.160  56.996 -51.318  1.00  0.00     0.016 A 
HETATM   10  C   UNL     1     -41.985  55.873 -51.309  1.00  0.00    -0.005 A 
HETATM   11  C   UNL     1     -43.368  56.036 -51.364  1.00  0.00     0.016 A 
HETATM   12  C   UNL     1     -43.919  57.318 -51.497  1.00  0.00     0.030 A 
BRANCH  10  13
HETATM   13  C   UNL     1     -41.417  54.505 -51.184  1.00  0.00     0.098 A 
HETATM   14  N   UNL     1     -41.361  54.005 -49.985  1.00  0.00    -0.170 NA
HETATM   15  N   UNL     1     -40.798  52.780 -49.818  1.00  0.00    -0.242 N 
HETATM   16  C   UNL     1     -40.218  52.015 -50.800  1.00  0.00     0.272 A 
HETATM   17  H   UNL     1     -40.739  52.432 -48.866  1.00  0.00     0.192 HD
HETATM   18  O   UNL     1     -39.669  50.946 -50.562  1.00  0.00    -0.266 OA
HETATM   19  C   UNL     1     -40.315  52.539 -52.171  1.00  0.00     0.046 A 
HETATM   20  C   UNL     1     -39.815  51.792 -53.246  1.00  0.00     0.018 A 
HETATM   21  C   UNL     1     -40.942  53.765 -52.386  1.00  0.00     0.011 A 
HETATM   22  C   UNL     1     -39.962  52.266 -54.549  1.00  0.00     0.001 A 
HETATM   23  C   UNL     1     -40.625  53.472 -54.776  1.00  0.00     0.001 A 
HETATM   24  C   UNL     1     -41.123  54.215 -53.701  1.00  0.00     0.015 A 
ENDBRANCH  10  13
ENDBRANCH   4   7
BRANCH   1  25
HETATM   25  N   UNL     1     -45.353  62.393 -50.868  1.00  0.00    -0.377 N 
HETATM   26  H   UNL     1     -46.151  61.775 -51.021  1.00  0.00     0.160 HD
BRANCH  25  27
HETATM   27  C   UNL     1     -45.227  62.788 -49.537  1.00  0.00     0.031 A 
HETATM   28  C   UNL     1     -44.522  63.918 -49.108  1.00  0.00     0.029 A 
HETATM   29  C   UNL     1     -44.490  64.285 -47.759  1.00  0.00     0.005 A 
HETATM   30  C   UNL     1     -45.213  63.556 -46.820  1.00  0.00     0.037 A 
HETATM   31  C   UNL     1     -45.978  62.468 -47.230  1.00  0.00     0.077 A 
HETATM   32  C   UNL     1     -45.961  62.077 -48.573  1.00  0.00     0.066 A 
BRANCH  31  33
HETATM   33  O   UNL     1     -46.684  61.838 -46.243  1.00  0.00    -0.290 OA
BRANCH  33  34
HETATM   34  C   UNL     1     -46.597  60.422 -46.274  1.00  0.00     0.505 C 
HETATM   35  F   UNL     1     -45.598  60.023 -45.448  1.00  0.00    -0.184 F 
HETATM   36  F   UNL     1     -47.750  59.934 -45.751  1.00  0.00    -0.184 F 
ENDBRANCH  33  34
ENDBRANCH  31  33
ENDBRANCH  25  27
ENDBRANCH   1  25
TORSDOF 6
ENDMDL
MODEL 5
REMARK VINA RESULT:      -8.6      5.374     11.046
REMARK  6 active torsions:
REMARK  status: ('A' for Active; 'I' for Inactive)
REMARK    1  A    between atoms: C_2  and  O_4 
REMARK    2  A    between atoms: O_4  and  C_5 
REMARK    3  A    between atoms: C_9  and  N_10 
REMARK    4  A    between atoms: N_10  and  C_11 
REMARK    5  A    between atoms: N_14  and  C_17 
REMARK    6  A    between atoms: C_20  and  C_23 
ROOT
HETATM    1  C   UNL     1     -44.897  57.523 -59.743  1.00  0.00     0.176 C 
HETATM    2  C   UNL     1     -43.644  56.957 -60.395  1.00  0.00     0.055 C 
HETATM    3  C   UNL     1     -43.199  55.873 -59.433  1.00  0.00     0.135 C 
HETATM    4  N   UNL     1     -43.581  56.361 -58.129  1.00  0.00    -0.316 N 
HETATM    5  C   UNL     1     -44.634  57.283 -58.250  1.00  0.00     0.247 C 
HETATM    6  O   UNL     1     -45.299  57.810 -57.366  1.00  0.00    -0.271 OA
ENDROOT
BRANCH   4   7
HETATM    7  C   UNL     1     -43.002  55.887 -56.919  1.00  0.00     0.037 A 
HETATM    8  C   UNL     1     -43.297  54.614 -56.407  1.00  0.00     0.030 A 
HETATM    9  C   UNL     1     -42.777  54.178 -55.181  1.00  0.00     0.016 A 
HETATM   10  C   UNL     1     -41.971  55.027 -54.426  1.00  0.00    -0.005 A 
HETATM   11  C   UNL     1     -41.619  56.275 -54.936  1.00  0.00     0.016 A 
HETATM   12  C   UNL     1     -42.130  56.698 -56.171  1.00  0.00     0.030 A 
BRANCH  10  13
HETATM   13  C   UNL     1     -41.434  54.602 -53.107  1.00  0.00     0.098 A 
HETATM   14  N   UNL     1     -41.611  55.422 -52.114  1.00  0.00    -0.170 NA
HETATM   15  N   UNL     1     -41.087  55.100 -50.903  1.00  0.00    -0.242 N 
HETATM   16  C   UNL     1     -40.323  53.995 -50.620  1.00  0.00     0.272 A 
HETATM   17  H   UNL     1     -41.215  55.777 -50.157  1.00  0.00     0.192 HD
HETATM   18  O   UNL     1     -39.828  53.803 -49.516  1.00  0.00    -0.266 OA
HETATM   19  C   UNL     1     -40.151  53.029 -51.716  1.00  0.00     0.046 A 
HETATM   20  C   UNL     1     -39.448  51.836 -51.498  1.00  0.00     0.018 A 
HETATM   21  C   UNL     1     -40.730  53.299 -52.954  1.00  0.00     0.011 A 
HETATM   22  C   UNL     1     -39.339  50.897 -52.523  1.00  0.00     0.001 A 
HETATM   23  C   UNL     1     -39.949  51.141 -53.753  1.00  0.00     0.001 A 
HETATM   24  C   UNL     1     -40.651  52.332 -53.967  1.00  0.00     0.015 A 
ENDBRANCH  10  13
ENDBRANCH   4   7
BRANCH   1  25
HETATM   25  N   UNL     1     -46.076  56.783 -60.202  1.00  0.00    -0.377 N 
HETATM   26  H   UNL     1     -46.426  56.108 -59.521  1.00  0.00     0.160 HD
BRANCH  25  27
HETATM   27  C   UNL     1     -47.097  57.386 -60.935  1.00  0.00     0.031 A 
HETATM   28  C   UNL     1     -47.965  56.705 -61.795  1.00  0.00     0.029 A 
HETATM   29  C   UNL     1     -49.005  57.370 -62.453  1.00  0.00     0.005 A 
HETATM   30  C   UNL     1     -49.230  58.722 -62.214  1.00  0.00     0.037 A 
HETATM   31  C   UNL     1     -48.424  59.408 -61.311  1.00  0.00     0.077 A 
HETATM   32  C   UNL     1     -47.353  58.747 -60.699  1.00  0.00     0.066 A 
BRANCH  31  33
HETATM   33  O   UNL     1     -48.746  60.722 -61.113  1.00  0.00    -0.290 OA
BRANCH  33  34
HETATM   34  C   UNL     1     -49.156  61.030 -59.789  1.00  0.00     0.505 C 
HETATM   35  F   UNL     1     -48.771  62.296 -59.492  1.00  0.00    -0.184 F 
HETATM   36  F   UNL     1     -50.513  61.024 -59.774  1.00  0.00    -0.184 F 
ENDBRANCH  33  34
ENDBRANCH  31  33
ENDBRANCH  25  27
ENDBRANCH   1  25
TORSDOF 6
ENDMDL
MODEL 6
REMARK VINA RESULT:      -8.6      3.315      9.169
REMARK  6 active torsions:
REMARK  status: ('A' for Active; 'I' for Inactive)
REMARK    1  A    between atoms: C_2  and  O_4 
REMARK    2  A    between atoms: O_4  and  C_5 
REMARK    3  A    between atoms: C_9  and  N_10 
REMARK    4  A    between atoms: N_10  and  C_11 
REMARK    5  A    between atoms: N_14  and  C_17 
REMARK    6  A    between atoms: C_20  and  C_23 
ROOT
HETATM    1  C   UNL     1     -45.209  60.155 -57.576  1.00  0.00     0.176 C 
HETATM    2  C   UNL     1     -44.694  61.246 -56.649  1.00  0.00     0.055 C 
HETATM    3  C   UNL     1     -43.567  60.570 -55.892  1.00  0.00     0.135 C 
HETATM    4  N   UNL     1     -43.981  59.192 -55.772  1.00  0.00    -0.316 N 
HETATM    5  C   UNL     1     -44.895  58.874 -56.792  1.00  0.00     0.247 C 
HETATM    6  O   UNL     1     -45.366  57.782 -57.087  1.00  0.00    -0.271 OA
ENDROOT
BRANCH   4   7
HETATM    7  C   UNL     1     -43.453  58.301 -54.797  1.00  0.00     0.037 A 
HETATM    8  C   UNL     1     -42.071  58.120 -54.633  1.00  0.00     0.030 A 
HETATM    9  C   UNL     1     -41.557  57.192 -53.717  1.00  0.00     0.016 A 
HETATM   10  C   UNL     1     -42.424  56.401 -52.967  1.00  0.00    -0.005 A 
HETATM   11  C   UNL     1     -43.799  56.598 -53.073  1.00  0.00     0.016 A 
HETATM   12  C   UNL     1     -44.306  57.540 -53.979  1.00  0.00     0.030 A 
BRANCH  10  13
HETATM   13  C   UNL     1     -41.905  55.386 -52.014  1.00  0.00     0.098 A 
HETATM   14  N   UNL     1     -42.105  55.619 -50.750  1.00  0.00    -0.170 NA
HETATM   15  N   UNL     1     -41.598  54.746 -49.840  1.00  0.00    -0.242 N 
HETATM   16  C   UNL     1     -40.831  53.642 -50.119  1.00  0.00     0.272 A 
HETATM   17  H   UNL     1     -41.743  54.974 -48.862  1.00  0.00     0.192 HD
HETATM   18  O   UNL     1     -40.352  52.936 -49.239  1.00  0.00    -0.266 OA
HETATM   19  C   UNL     1     -40.634  53.332 -51.543  1.00  0.00     0.046 A 
HETATM   20  C   UNL     1     -39.926  52.184 -51.922  1.00  0.00     0.018 A 
HETATM   21  C   UNL     1     -41.194  54.173 -52.503  1.00  0.00     0.011 A 
HETATM   22  C   UNL     1     -39.793  51.863 -53.272  1.00  0.00     0.001 A 
HETATM   23  C   UNL     1     -40.385  52.677 -54.238  1.00  0.00     0.001 A 
HETATM   24  C   UNL     1     -41.092  53.822 -53.857  1.00  0.00     0.015 A 
ENDBRANCH  10  13
ENDBRANCH   4   7
BRANCH   1  25
HETATM   25  N   UNL     1     -44.478  60.194 -58.846  1.00  0.00    -0.377 N 
HETATM   26  H   UNL     1     -44.056  61.101 -59.048  1.00  0.00     0.160 HD
BRANCH  25  27
HETATM   27  C   UNL     1     -43.698  59.128 -59.292  1.00  0.00     0.031 A 
HETATM   28  C   UNL     1     -42.345  58.950 -58.980  1.00  0.00     0.029 A 
HETATM   29  C   UNL     1     -41.642  57.822 -59.416  1.00  0.00     0.005 A 
HETATM   30  C   UNL     1     -42.298  56.822 -60.126  1.00  0.00     0.037 A 
HETATM   31  C   UNL     1     -43.660  56.942 -60.390  1.00  0.00     0.077 A 
HETATM   32  C   UNL     1     -44.342  58.098 -59.997  1.00  0.00     0.066 A 
BRANCH  31  33
HETATM   33  O   UNL     1     -44.225  55.892 -61.059  1.00  0.00    -0.290 OA
BRANCH  33  34
HETATM   34  C   UNL     1     -44.848  54.931 -60.219  1.00  0.00     0.505 C 
HETATM   35  F   UNL     1     -44.307  55.013 -58.979  1.00  0.00    -0.184 F 
HETATM   36  F   UNL     1     -46.153  55.286 -60.098  1.00  0.00    -0.184 F 
ENDBRANCH  33  34
ENDBRANCH  31  33
ENDBRANCH  25  27
ENDBRANCH   1  25
TORSDOF 6
ENDMDL
MODEL 7
REMARK VINA RESULT:      -8.5      3.885      9.623
REMARK  6 active torsions:
REMARK  status: ('A' for Active; 'I' for Inactive)
REMARK    1  A    between atoms: C_2  and  O_4 
REMARK    2  A    between atoms: O_4  and  C_5 
REMARK    3  A    between atoms: C_9  and  N_10 
REMARK    4  A    between atoms: N_10  and  C_11 
REMARK    5  A    between atoms: N_14  and  C_17 
REMARK    6  A    between atoms: C_20  and  C_23 
ROOT
HETATM    1  C   UNL     1     -43.847  60.010 -54.622  1.00  0.00     0.176 C 
HETATM    2  C   UNL     1     -42.519  60.567 -54.130  1.00  0.00     0.055 C 
HETATM    3  C   UNL     1     -41.599  59.361 -54.143  1.00  0.00     0.135 C 
HETATM    4  N   UNL     1     -42.456  58.244 -53.826  1.00  0.00    -0.316 N 
HETATM    5  C   UNL     1     -43.787  58.546 -54.162  1.00  0.00     0.247 C 
HETATM    6  O   UNL     1     -44.767  57.812 -54.155  1.00  0.00    -0.271 OA
ENDROOT
BRANCH   4   7
HETATM    7  C   UNL     1     -41.968  57.004 -53.325  1.00  0.00     0.037 A 
HETATM    8  C   UNL     1     -41.047  56.228 -54.044  1.00  0.00     0.030 A 
HETATM    9  C   UNL     1     -40.621  54.977 -53.577  1.00  0.00     0.016 A 
HETATM   10  C   UNL     1     -41.137  54.464 -52.389  1.00  0.00    -0.005 A 
HETATM   11  C   UNL     1     -42.012  55.239 -51.629  1.00  0.00     0.016 A 
HETATM   12  C   UNL     1     -42.421  56.496 -52.094  1.00  0.00     0.030 A 
BRANCH  10  13
HETATM   13  C   UNL     1     -40.727  53.127 -51.888  1.00  0.00     0.098 A 
HETATM   14  N   UNL     1     -40.696  52.973 -50.597  1.00  0.00    -0.170 NA
HETATM   15  N   UNL     1     -40.273  51.784 -50.094  1.00  0.00    -0.242 N 
HETATM   16  C   UNL     1     -39.811  50.716 -50.823  1.00  0.00     0.272 A 
HETATM   17  H   UNL     1     -40.229  51.707 -49.083  1.00  0.00     0.192 HD
HETATM   18  O   UNL     1     -39.383  49.696 -50.295  1.00  0.00    -0.266 OA
HETATM   19  C   UNL     1     -39.884  50.850 -52.286  1.00  0.00     0.046 A 
HETATM   20  C   UNL     1     -39.503  49.782 -53.110  1.00  0.00     0.018 A 
HETATM   21  C   UNL     1     -40.373  52.034 -52.835  1.00  0.00     0.011 A 
HETATM   22  C   UNL     1     -39.630  49.893 -54.493  1.00  0.00     0.001 A 
HETATM   23  C   UNL     1     -40.156  51.059 -55.049  1.00  0.00     0.001 A 
HETATM   24  C   UNL     1     -40.536  52.122 -54.224  1.00  0.00     0.015 A 
ENDBRANCH  10  13
ENDBRANCH   4   7
BRANCH   1  25
HETATM   25  N   UNL     1     -43.919  60.106 -56.083  1.00  0.00    -0.377 N 
HETATM   26  H   UNL     1     -43.011  60.248 -56.529  1.00  0.00     0.160 HD
BRANCH  25  27
HETATM   27  C   UNL     1     -44.772  59.307 -56.843  1.00  0.00     0.031 A 
HETATM   28  C   UNL     1     -46.159  59.475 -56.918  1.00  0.00     0.029 A 
HETATM   29  C   UNL     1     -46.944  58.670 -57.750  1.00  0.00     0.005 A 
HETATM   30  C   UNL     1     -46.344  57.716 -58.566  1.00  0.00     0.037 A 
HETATM   31  C   UNL     1     -44.959  57.574 -58.560  1.00  0.00     0.077 A 
HETATM   32  C   UNL     1     -44.187  58.347 -57.686  1.00  0.00     0.066 A 
BRANCH  31  33
HETATM   33  O   UNL     1     -44.458  56.639 -59.423  1.00  0.00    -0.290 OA
BRANCH  33  34
HETATM   34  C   UNL     1     -43.395  55.863 -58.892  1.00  0.00     0.505 C 
HETATM   35  F   UNL     1     -43.896  54.694 -58.421  1.00  0.00    -0.184 F 
HETATM   36  F   UNL     1     -42.572  55.545 -59.923  1.00  0.00    -0.184 F 
ENDBRANCH  33  34
ENDBRANCH  31  33
ENDBRANCH  25  27
ENDBRANCH   1  25
TORSDOF 6
ENDMDL
MODEL 8
REMARK VINA RESULT:      -8.5      3.360      9.286
REMARK  6 active torsions:
REMARK  status: ('A' for Active; 'I' for Inactive)
REMARK    1  A    between atoms: C_2  and  O_4 
REMARK    2  A    between atoms: O_4  and  C_5 
REMARK    3  A    between atoms: C_9  and  N_10 
REMARK    4  A    between atoms: N_10  and  C_11 
REMARK    5  A    between atoms: N_14  and  C_17 
REMARK    6  A    between atoms: C_20  and  C_23 
ROOT
HETATM    1  C   UNL     1     -43.988  60.300 -58.550  1.00  0.00     0.176 C 
HETATM    2  C   UNL     1     -42.562  60.822 -58.463  1.00  0.00     0.055 C 
HETATM    3  C   UNL     1     -41.784  59.648 -57.901  1.00  0.00     0.135 C 
HETATM    4  N   UNL     1     -42.717  58.976 -57.028  1.00  0.00    -0.316 N 
HETATM    5  C   UNL     1     -44.036  59.267 -57.416  1.00  0.00     0.247 C 
HETATM    6  O   UNL     1     -45.082  58.788 -56.998  1.00  0.00    -0.271 OA
ENDROOT
BRANCH   4   7
HETATM    7  C   UNL     1     -42.313  58.091 -55.988  1.00  0.00     0.037 A 
HETATM    8  C   UNL     1     -42.280  56.701 -56.173  1.00  0.00     0.030 A 
HETATM    9  C   UNL     1     -41.947  55.831 -55.127  1.00  0.00     0.016 A 
HETATM   10  C   UNL     1     -41.668  56.339 -53.860  1.00  0.00    -0.005 A 
HETATM   11  C   UNL     1     -41.641  57.719 -53.664  1.00  0.00     0.016 A 
HETATM   12  C   UNL     1     -41.960  58.584 -54.720  1.00  0.00     0.030 A 
BRANCH  10  13
HETATM   13  C   UNL     1     -41.343  55.437 -52.725  1.00  0.00     0.098 A 
HETATM   14  N   UNL     1     -41.586  55.892 -51.531  1.00  0.00    -0.170 NA
HETATM   15  N   UNL     1     -41.253  55.123 -50.462  1.00  0.00    -0.242 N 
HETATM   16  C   UNL     1     -40.620  53.905 -50.507  1.00  0.00     0.272 A 
HETATM   17  H   UNL     1     -41.425  55.521 -49.544  1.00  0.00     0.192 HD
HETATM   18  O   UNL     1     -40.291  53.298 -49.495  1.00  0.00    -0.266 OA
HETATM   19  C   UNL     1     -40.382  53.349 -51.848  1.00  0.00     0.046 A 
HETATM   20  C   UNL     1     -39.808  52.079 -51.990  1.00  0.00     0.018 A 
HETATM   21  C   UNL     1     -40.769  54.085 -52.966  1.00  0.00     0.011 A 
HETATM   22  C   UNL     1     -39.638  51.531 -53.260  1.00  0.00     0.001 A 
HETATM   23  C   UNL     1     -40.059  52.243 -54.383  1.00  0.00     0.001 A 
HETATM   24  C   UNL     1     -40.632  53.511 -54.238  1.00  0.00     0.015 A 
ENDBRANCH  10  13
ENDBRANCH   4   7
BRANCH   1  25
HETATM   25  N   UNL     1     -44.210  59.669 -59.854  1.00  0.00    -0.377 N 
HETATM   26  H   UNL     1     -43.368  59.611 -60.429  1.00  0.00     0.160 HD
BRANCH  25  27
HETATM   27  C   UNL     1     -45.049  58.568 -60.018  1.00  0.00     0.031 A 
HETATM   28  C   UNL     1     -46.445  58.639 -60.098  1.00  0.00     0.029 A 
HETATM   29  C   UNL     1     -47.218  57.496 -60.322  1.00  0.00     0.005 A 
HETATM   30  C   UNL     1     -46.602  56.265 -60.528  1.00  0.00     0.037 A 
HETATM   31  C   UNL     1     -45.213  56.179 -60.521  1.00  0.00     0.077 A 
HETATM   32  C   UNL     1     -44.449  57.318 -60.243  1.00  0.00     0.066 A 
BRANCH  31  33
HETATM   33  O   UNL     1     -44.698  54.937 -60.771  1.00  0.00    -0.290 OA
BRANCH  33  34
HETATM   34  C   UNL     1     -44.193  54.272 -59.623  1.00  0.00     0.505 C 
HETATM   35  F   UNL     1     -44.161  55.144 -58.586  1.00  0.00    -0.184 F 
HETATM   36  F   UNL     1     -45.086  53.305 -59.290  1.00  0.00    -0.184 F 
ENDBRANCH  33  34
ENDBRANCH  31  33
ENDBRANCH  25  27
ENDBRANCH   1  25
TORSDOF 6
ENDMDL
MODEL 9
REMARK VINA RESULT:      -8.5      4.135     10.783
REMARK  6 active torsions:
REMARK  status: ('A' for Active; 'I' for Inactive)
REMARK    1  A    between atoms: C_2  and  O_4 
REMARK    2  A    between atoms: O_4  and  C_5 
REMARK    3  A    between atoms: C_9  and  N_10 
REMARK    4  A    between atoms: N_10  and  C_11 
REMARK    5  A    between atoms: N_14  and  C_17 
REMARK    6  A    between atoms: C_20  and  C_23 
ROOT
HETATM    1  C   UNL     1     -43.723  58.112 -60.298  1.00  0.00     0.176 C 
HETATM    2  C   UNL     1     -45.025  57.449 -59.873  1.00  0.00     0.055 C 
HETATM    3  C   UNL     1     -44.878  57.302 -58.371  1.00  0.00     0.135 C 
HETATM    4  N   UNL     1     -43.466  57.084 -58.161  1.00  0.00    -0.316 N 
HETATM    5  C   UNL     1     -42.732  57.614 -59.237  1.00  0.00     0.247 C 
HETATM    6  O   UNL     1     -41.519  57.729 -59.355  1.00  0.00    -0.271 OA
ENDROOT
BRANCH   4   7
HETATM    7  C   UNL     1     -42.935  56.489 -56.982  1.00  0.00     0.037 A 
HETATM    8  C   UNL     1     -43.111  55.127 -56.699  1.00  0.00     0.030 A 
HETATM    9  C   UNL     1     -42.643  54.560 -55.506  1.00  0.00     0.016 A 
HETATM   10  C   UNL     1     -42.015  55.360 -54.554  1.00  0.00    -0.005 A 
HETATM   11  C   UNL     1     -41.780  56.705 -54.835  1.00  0.00     0.016 A 
HETATM   12  C   UNL     1     -42.236  57.261 -56.038  1.00  0.00     0.030 A 
BRANCH  10  13
HETATM   13  C   UNL     1     -41.540  54.791 -53.267  1.00  0.00     0.098 A 
HETATM   14  N   UNL     1     -41.775  55.493 -52.198  1.00  0.00    -0.170 NA
HETATM   15  N   UNL     1     -41.309  55.038 -51.005  1.00  0.00    -0.242 N 
HETATM   16  C   UNL     1     -40.548  53.912 -50.811  1.00  0.00     0.272 A 
HETATM   17  H   UNL     1     -41.481  55.626 -50.195  1.00  0.00     0.192 HD
HETATM   18  O   UNL     1     -40.107  53.599 -49.711  1.00  0.00    -0.266 OA
HETATM   19  C   UNL     1     -40.312  53.077 -51.998  1.00  0.00     0.046 A 
HETATM   20  C   UNL     1     -39.608  51.871 -51.881  1.00  0.00     0.018 A 
HETATM   21  C   UNL     1     -40.830  53.482 -53.227  1.00  0.00     0.011 A 
HETATM   22  C   UNL     1     -39.437  51.054 -52.998  1.00  0.00     0.001 A 
HETATM   23  C   UNL     1     -39.988  51.433 -54.223  1.00  0.00     0.001 A 
HETATM   24  C   UNL     1     -40.690  52.637 -54.336  1.00  0.00     0.015 A 
ENDBRANCH  10  13
ENDBRANCH   4   7
BRANCH   1  25
HETATM   25  N   UNL     1     -43.867  59.570 -60.250  1.00  0.00    -0.377 N 
HETATM   26  H   UNL     1     -43.774  59.960 -59.311  1.00  0.00     0.160 HD
BRANCH  25  27
HETATM   27  C   UNL     1     -43.337  60.405 -61.233  1.00  0.00     0.031 A 
HETATM   28  C   UNL     1     -44.070  60.938 -62.299  1.00  0.00     0.029 A 
HETATM   29  C   UNL     1     -43.483  61.817 -63.215  1.00  0.00     0.005 A 
HETATM   30  C   UNL     1     -42.163  62.224 -63.045  1.00  0.00     0.037 A 
HETATM   31  C   UNL     1     -41.433  61.762 -61.954  1.00  0.00     0.077 A 
HETATM   32  C   UNL     1     -42.011  60.841 -61.074  1.00  0.00     0.066 A 
BRANCH  31  33
HETATM   33  O   UNL     1     -40.159  62.246 -61.850  1.00  0.00    -0.290 OA
BRANCH  33  34
HETATM   34  C   UNL     1     -39.975  63.188 -60.803  1.00  0.00     0.505 C 
HETATM   35  F   UNL     1     -39.423  62.560 -59.736  1.00  0.00    -0.184 F 
HETATM   36  F   UNL     1     -39.064  64.098 -61.233  1.00  0.00    -0.184 F 
ENDBRANCH  33  34
ENDBRANCH  31  33
ENDBRANCH  25  27
ENDBRANCH   1  25
TORSDOF 6
ENDMDL
MODEL 10
REMARK VINA RESULT:      -8.4      4.040     10.520
REMARK  6 active torsions:
REMARK  status: ('A' for Active; 'I' for Inactive)
REMARK    1  A    between atoms: C_2  and  O_4 
REMARK    2  A    between atoms: O_4  and  C_5 
REMARK    3  A    between atoms: C_9  and  N_10 
REMARK    4  A    between atoms: N_10  and  C_11 
REMARK    5  A    between atoms: N_14  and  C_17 
REMARK    6  A    between atoms: C_20  and  C_23 
ROOT
HETATM    1  C   UNL     1     -44.723  58.474 -58.190  1.00  0.00     0.176 C 
HETATM    2  C   UNL     1     -45.787  58.442 -57.103  1.00  0.00     0.055 C 
HETATM    3  C   UNL     1     -45.006  58.109 -55.847  1.00  0.00     0.135 C 
HETATM    4  N   UNL     1     -43.933  57.256 -56.298  1.00  0.00    -0.316 N 
HETATM    5  C   UNL     1     -43.674  57.487 -57.660  1.00  0.00     0.247 C 
HETATM    6  O   UNL     1     -42.765  57.047 -58.354  1.00  0.00    -0.271 OA
ENDROOT
BRANCH   4   7
HETATM    7  C   UNL     1     -43.216  56.381 -55.434  1.00  0.00     0.037 A 
HETATM    8  C   UNL     1     -41.824  56.464 -55.288  1.00  0.00     0.030 A 
HETATM    9  C   UNL     1     -41.115  55.559 -54.488  1.00  0.00     0.016 A 
HETATM   10  C   UNL     1     -41.789  54.526 -53.840  1.00  0.00    -0.005 A 
HETATM   11  C   UNL     1     -43.179  54.454 -53.925  1.00  0.00     0.016 A 
HETATM   12  C   UNL     1     -43.883  55.373 -54.714  1.00  0.00     0.030 A 
BRANCH  10  13
HETATM   13  C   UNL     1     -41.058  53.533 -53.012  1.00  0.00     0.098 A 
HETATM   14  N   UNL     1     -40.530  52.525 -53.643  1.00  0.00    -0.170 NA
HETATM   15  N   UNL     1     -39.900  51.563 -52.919  1.00  0.00    -0.242 N 
HETATM   16  C   UNL     1     -39.805  51.512 -51.550  1.00  0.00     0.272 A 
HETATM   17  H   UNL     1     -39.528  50.774 -53.438  1.00  0.00     0.192 HD
HETATM   18  O   UNL     1     -39.277  50.576 -50.963  1.00  0.00    -0.266 OA
HETATM   19  C   UNL     1     -40.352  52.666 -50.820  1.00  0.00     0.046 A 
HETATM   20  C   UNL     1     -40.234  52.735 -49.425  1.00  0.00     0.018 A 
HETATM   21  C   UNL     1     -40.949  53.701 -51.537  1.00  0.00     0.011 A 
HETATM   22  C   UNL     1     -40.701  53.858 -48.744  1.00  0.00     0.001 A 
HETATM   23  C   UNL     1     -41.263  54.916 -49.457  1.00  0.00     0.001 A 
HETATM   24  C   UNL     1     -41.378  54.845 -50.849  1.00  0.00     0.015 A 
ENDBRANCH  10  13
ENDBRANCH   4   7
BRANCH   1  25
HETATM   25  N   UNL     1     -44.170  59.826 -58.306  1.00  0.00    -0.377 N 
HETATM   26  H   UNL     1     -43.871  60.225 -57.415  1.00  0.00     0.160 HD
BRANCH  25  27
HETATM   27  C   UNL     1     -43.351  60.209 -59.368  1.00  0.00     0.031 A 
HETATM   28  C   UNL     1     -43.442  59.694 -60.666  1.00  0.00     0.029 A 
HETATM   29  C   UNL     1     -42.623  60.171 -61.695  1.00  0.00     0.005 A 
HETATM   30  C   UNL     1     -41.735  61.214 -61.454  1.00  0.00     0.037 A 
HETATM   31  C   UNL     1     -41.673  61.790 -60.188  1.00  0.00     0.077 A 
HETATM   32  C   UNL     1     -42.457  61.271 -59.152  1.00  0.00     0.066 A 
BRANCH  31  33
HETATM   33  O   UNL     1     -40.800  62.834 -60.057  1.00  0.00    -0.290 OA
BRANCH  33  34
HETATM   34  C   UNL     1     -39.938  62.738 -58.933  1.00  0.00     0.505 C 
HETATM   35  F   UNL     1     -38.663  62.964 -59.334  1.00  0.00    -0.184 F 
HETATM   36  F   UNL     1     -40.263  63.749 -58.088  1.00  0.00    -0.184 F 
ENDBRANCH  33  34
ENDBRANCH  31  33
ENDBRANCH  25  27
ENDBRANCH   1  25
TORSDOF 6
ENDMDL
