MODEL 1
REMARK VINA RESULT:      -8.5      0.000      0.000
REMARK  5 active torsions:
REMARK  status: ('A' for Active; 'I' for Inactive)
REMARK    1  A    between atoms: O_2  and  C_3 
REMARK    2  A    between atoms: C_4  and  N_5 
REMARK       I    between atoms: N_5  and  C_6 
REMARK    3  A    between atoms: C_6  and  C_7 
REMARK    4  A    between atoms: C_7  and  N_8 
REMARK    5  A    between atoms: N_8  and  C_9 
ROOT
HETATM    1  C   UNL     1     -41.627  56.055 -55.015  1.00  0.00     0.195 C 
ENDROOT
BRANCH   1   2
HETATM    2  C   UNL     1     -42.768  56.175 -56.036  1.00  0.00     0.235 C 
HETATM    3  N   UNL     1     -42.446  55.636 -57.264  1.00  0.00    -0.324 N 
HETATM    4  H   UNL     1     -41.517  55.221 -57.336  1.00  0.00     0.169 HD
HETATM    5  O   UNL     1     -43.849  56.663 -55.716  1.00  0.00    -0.272 OA
BRANCH   3   6
HETATM    6  C   UNL     1     -43.189  55.669 -58.461  1.00  0.00     0.068 A 
HETATM    7  C   UNL     1     -43.095  56.830 -59.251  1.00  0.00     0.095 A 
HETATM    8  C   UNL     1     -43.870  56.957 -60.409  1.00  0.00     0.039 A 
HETATM    9  C   UNL     1     -44.712  55.917 -60.801  1.00  0.00     0.003 A 
HETATM   10  C   UNL     1     -44.783  54.753 -60.039  1.00  0.00     0.002 A 
HETATM   11  C   UNL     1     -44.023  54.628 -58.873  1.00  0.00     0.032 A 
BRANCH   7  12
HETATM   12  O   UNL     1     -42.241  57.817 -58.813  1.00  0.00    -0.354 OA
HETATM   13  C   UNL     1     -42.156  58.933 -59.696  1.00  0.00     0.210 C 
ENDBRANCH   7  12
ENDBRANCH   3   6
ENDBRANCH   1   2
BRANCH   1  14
HETATM   14  N   UNL     1     -40.693  54.951 -55.317  1.00  0.00    -0.284 NA
HETATM   15  H   UNL     1     -40.956  54.472 -56.177  1.00  0.00     0.128 HD
BRANCH  14  16
HETATM   16  C   UNL     1     -40.420  54.009 -54.307  1.00  0.00     0.009 A 
HETATM   17  C   UNL     1     -40.169  52.652 -54.552  1.00  0.00     0.035 A 
HETATM   18  C   UNL     1     -39.979  51.725 -53.509  1.00  0.00    -0.024 A 
HETATM   19  C   UNL     1     -40.064  52.163 -52.171  1.00  0.00    -0.026 A 
HETATM   20  C   UNL     1     -39.712  50.371 -53.772  1.00  0.00     0.012 A 
HETATM   21  C   UNL     1     -40.355  53.509 -51.916  1.00  0.00     0.014 A 
HETATM   22  C   UNL     1     -39.869  51.238 -51.131  1.00  0.00     0.012 A 
HETATM   23  C   UNL     1     -40.548  54.409 -52.972  1.00  0.00     0.024 A 
HETATM   24  C   UNL     1     -39.599  49.897 -51.409  1.00  0.00     0.001 A 
HETATM   25  C   UNL     1     -39.523  49.464 -52.729  1.00  0.00     0.001 A 
ENDBRANCH  14  16
ENDBRANCH   1  14
TORSDOF 5
ENDMDL
MODEL 2
REMARK VINA RESULT:      -8.4      1.159      2.462
REMARK  5 active torsions:
REMARK  status: ('A' for Active; 'I' for Inactive)
REMARK    1  A    between atoms: O_2  and  C_3 
REMARK    2  A    between atoms: C_4  and  N_5 
REMARK       I    between atoms: N_5  and  C_6 
REMARK    3  A    between atoms: C_6  and  C_7 
REMARK    4  A    between atoms: C_7  and  N_8 
REMARK    5  A    between atoms: N_8  and  C_9 
ROOT
HETATM    1  C   UNL     1     -42.587  55.309 -55.974  1.00  0.00     0.195 C 
ENDROOT
BRANCH   1   2
HETATM    2  C   UNL     1     -42.980  56.602 -56.702  1.00  0.00     0.235 C 
HETATM    3  N   UNL     1     -42.095  56.942 -57.703  1.00  0.00    -0.324 N 
HETATM    4  H   UNL     1     -41.315  56.300 -57.842  1.00  0.00     0.169 HD
HETATM    5  O   UNL     1     -44.014  57.197 -56.411  1.00  0.00    -0.272 OA
BRANCH   3   6
HETATM    6  C   UNL     1     -42.068  58.109 -58.493  1.00  0.00     0.068 A 
HETATM    7  C   UNL     1     -42.292  57.963 -59.875  1.00  0.00     0.095 A 
HETATM    8  C   UNL     1     -42.199  59.071 -60.724  1.00  0.00     0.039 A 
HETATM    9  C   UNL     1     -41.917  60.331 -60.196  1.00  0.00     0.003 A 
HETATM   10  C   UNL     1     -41.727  60.484 -58.824  1.00  0.00     0.002 A 
HETATM   11  C   UNL     1     -41.803  59.378 -57.975  1.00  0.00     0.032 A 
BRANCH   7  12
HETATM   12  O   UNL     1     -42.572  56.695 -60.332  1.00  0.00    -0.354 OA
HETATM   13  C   UNL     1     -43.965  56.438 -60.488  1.00  0.00     0.210 C 
ENDBRANCH   7  12
ENDBRANCH   3   6
ENDBRANCH   1   2
BRANCH   1  14
HETATM   14  N   UNL     1     -41.173  55.289 -55.549  1.00  0.00    -0.284 NA
HETATM   15  H   UNL     1     -40.549  55.247 -56.354  1.00  0.00     0.128 HD
BRANCH  14  16
HETATM   16  C   UNL     1     -40.776  54.343 -54.585  1.00  0.00     0.009 A 
HETATM   17  C   UNL     1     -40.506  52.998 -54.874  1.00  0.00     0.035 A 
HETATM   18  C   UNL     1     -40.188  52.065 -53.868  1.00  0.00    -0.024 A 
HETATM   19  C   UNL     1     -40.160  52.482 -52.521  1.00  0.00    -0.026 A 
HETATM   20  C   UNL     1     -39.904  50.725 -54.177  1.00  0.00     0.012 A 
HETATM   21  C   UNL     1     -40.468  53.815 -52.219  1.00  0.00     0.014 A 
HETATM   22  C   UNL     1     -39.838  51.551 -51.520  1.00  0.00     0.012 A 
HETATM   23  C   UNL     1     -40.789  54.722 -53.237  1.00  0.00     0.024 A 
HETATM   24  C   UNL     1     -39.553  50.224 -51.843  1.00  0.00     0.001 A 
HETATM   25  C   UNL     1     -39.588  49.811 -53.172  1.00  0.00     0.001 A 
ENDBRANCH  14  16
ENDBRANCH   1  14
TORSDOF 5
ENDMDL
MODEL 3
REMARK VINA RESULT:      -8.3      1.769      2.765
REMARK  5 active torsions:
REMARK  status: ('A' for Active; 'I' for Inactive)
REMARK    1  A    between atoms: O_2  and  C_3 
REMARK    2  A    between atoms: C_4  and  N_5 
REMARK       I    between atoms: N_5  and  C_6 
REMARK    3  A    between atoms: C_6  and  C_7 
REMARK    4  A    between atoms: C_7  and  N_8 
REMARK    5  A    between atoms: N_8  and  C_9 
ROOT
HETATM    1  C   UNL     1     -44.376  56.661 -54.401  1.00  0.00     0.195 C 
ENDROOT
BRANCH   1   2
HETATM    2  C   UNL     1     -43.403  57.212 -55.453  1.00  0.00     0.235 C 
HETATM    3  N   UNL     1     -43.937  57.213 -56.726  1.00  0.00    -0.324 N 
HETATM    4  H   UNL     1     -44.894  56.870 -56.805  1.00  0.00     0.169 HD
HETATM    5  O   UNL     1     -42.300  57.639 -55.126  1.00  0.00    -0.272 OA
BRANCH   3   6
HETATM    6  C   UNL     1     -43.304  57.532 -57.943  1.00  0.00     0.068 A 
HETATM    7  C   UNL     1     -43.110  56.488 -58.867  1.00  0.00     0.095 A 
HETATM    8  C   UNL     1     -42.416  56.723 -60.059  1.00  0.00     0.039 A 
HETATM    9  C   UNL     1     -41.945  58.004 -60.350  1.00  0.00     0.003 A 
HETATM   10  C   UNL     1     -42.164  59.046 -59.452  1.00  0.00     0.002 A 
HETATM   11  C   UNL     1     -42.842  58.812 -58.253  1.00  0.00     0.032 A 
BRANCH   7  12
HETATM   12  O   UNL     1     -43.604  55.250 -58.524  1.00  0.00    -0.354 OA
HETATM   13  C   UNL     1     -44.292  54.594 -59.586  1.00  0.00     0.210 C 
ENDBRANCH   7  12
ENDBRANCH   3   6
ENDBRANCH   1   2
BRANCH   1  14
HETATM   14  N   UNL     1     -44.363  55.186 -54.314  1.00  0.00    -0.284 NA
HETATM   15  H   UNL     1     -45.238  54.833 -53.929  1.00  0.00     0.128 HD
BRANCH  14  16
HETATM   16  C   UNL     1     -43.273  54.563 -53.676  1.00  0.00     0.009 A 
HETATM   17  C   UNL     1     -42.377  53.701 -54.324  1.00  0.00     0.035 A 
HETATM   18  C   UNL     1     -41.347  53.035 -53.633  1.00  0.00    -0.024 A 
HETATM   19  C   UNL     1     -41.217  53.217 -52.241  1.00  0.00    -0.026 A 
HETATM   20  C   UNL     1     -40.447  52.188 -54.301  1.00  0.00     0.012 A 
HETATM   21  C   UNL     1     -42.133  54.043 -51.578  1.00  0.00     0.014 A 
HETATM   22  C   UNL     1     -40.186  52.554 -51.554  1.00  0.00     0.012 A 
HETATM   23  C   UNL     1     -43.154  54.689 -52.287  1.00  0.00     0.024 A 
HETATM   24  C   UNL     1     -39.296  51.720 -52.233  1.00  0.00     0.001 A 
HETATM   25  C   UNL     1     -39.429  51.535 -53.606  1.00  0.00     0.001 A 
ENDBRANCH  14  16
ENDBRANCH   1  14
TORSDOF 5
ENDMDL
MODEL 4
REMARK VINA RESULT:      -8.1      1.740      2.754
REMARK  5 active torsions:
REMARK  status: ('A' for Active; 'I' for Inactive)
REMARK    1  A    between atoms: O_2  and  C_3 
REMARK    2  A    between atoms: C_4  and  N_5 
REMARK       I    between atoms: N_5  and  C_6 
REMARK    3  A    between atoms: C_6  and  C_7 
REMARK    4  A    between atoms: C_7  and  N_8 
REMARK    5  A    between atoms: N_8  and  C_9 
ROOT
HETATM    1  C   UNL     1     -42.633  55.537 -56.492  1.00  0.00     0.195 C 
ENDROOT
BRANCH   1   2
HETATM    2  C   UNL     1     -43.005  56.643 -57.489  1.00  0.00     0.235 C 
HETATM    3  N   UNL     1     -41.902  57.280 -58.019  1.00  0.00    -0.324 N 
HETATM    4  H   UNL     1     -40.996  56.935 -57.701  1.00  0.00     0.169 HD
HETATM    5  O   UNL     1     -44.179  56.856 -57.783  1.00  0.00    -0.272 OA
BRANCH   3   6
HETATM    6  C   UNL     1     -41.859  58.407 -58.864  1.00  0.00     0.068 A 
HETATM    7  C   UNL     1     -41.766  59.672 -58.255  1.00  0.00     0.095 A 
HETATM    8  C   UNL     1     -41.801  60.832 -59.035  1.00  0.00     0.039 A 
HETATM    9  C   UNL     1     -41.892  60.736 -60.423  1.00  0.00     0.003 A 
HETATM   10  C   UNL     1     -41.951  59.484 -61.032  1.00  0.00     0.002 A 
HETATM   11  C   UNL     1     -41.933  58.323 -60.255  1.00  0.00     0.032 A 
BRANCH   7  12
HETATM   12  O   UNL     1     -41.672  59.699 -56.882  1.00  0.00    -0.354 OA
HETATM   13  C   UNL     1     -42.492  60.693 -56.271  1.00  0.00     0.210 C 
ENDBRANCH   7  12
ENDBRANCH   3   6
ENDBRANCH   1   2
BRANCH   1  14
HETATM   14  N   UNL     1     -41.377  55.811 -55.764  1.00  0.00    -0.284 NA
HETATM   15  H   UNL     1     -40.607  55.977 -56.411  1.00  0.00     0.128 HD
BRANCH  14  16
HETATM   16  C   UNL     1     -40.975  54.911 -54.759  1.00  0.00     0.009 A 
HETATM   17  C   UNL     1     -40.602  53.582 -55.005  1.00  0.00     0.035 A 
HETATM   18  C   UNL     1     -40.282  52.690 -53.963  1.00  0.00    -0.024 A 
HETATM   19  C   UNL     1     -40.356  53.132 -52.626  1.00  0.00    -0.026 A 
HETATM   20  C   UNL     1     -39.894  51.366 -54.227  1.00  0.00     0.012 A 
HETATM   21  C   UNL     1     -40.768  54.446 -52.370  1.00  0.00     0.014 A 
HETATM   22  C   UNL     1     -40.033  52.242 -51.588  1.00  0.00     0.012 A 
HETATM   23  C   UNL     1     -41.088  55.312 -53.423  1.00  0.00     0.024 A 
HETATM   24  C   UNL     1     -39.643  50.931 -51.867  1.00  0.00     0.001 A 
HETATM   25  C   UNL     1     -39.577  50.493 -53.186  1.00  0.00     0.001 A 
ENDBRANCH  14  16
ENDBRANCH   1  14
TORSDOF 5
ENDMDL
MODEL 5
REMARK VINA RESULT:      -8.0      1.551      1.962
REMARK  5 active torsions:
REMARK  status: ('A' for Active; 'I' for Inactive)
REMARK    1  A    between atoms: O_2  and  C_3 
REMARK    2  A    between atoms: C_4  and  N_5 
REMARK       I    between atoms: N_5  and  C_6 
REMARK    3  A    between atoms: C_6  and  C_7 
REMARK    4  A    between atoms: C_7  and  N_8 
REMARK    5  A    between atoms: N_8  and  C_9 
ROOT
HETATM    1  C   UNL     1     -42.740  56.054 -52.978  1.00  0.00     0.195 C 
ENDROOT
BRANCH   1   2
HETATM    2  C   UNL     1     -43.374  56.262 -54.360  1.00  0.00     0.235 C 
HETATM    3  N   UNL     1     -42.446  56.251 -55.381  1.00  0.00    -0.324 N 
HETATM    4  H   UNL     1     -41.479  56.095 -55.099  1.00  0.00     0.169 HD
HETATM    5  O   UNL     1     -44.591  56.369 -54.484  1.00  0.00    -0.272 OA
BRANCH   3   6
HETATM    6  C   UNL     1     -42.642  56.526 -56.749  1.00  0.00     0.068 A 
HETATM    7  C   UNL     1     -42.439  57.849 -57.182  1.00  0.00     0.095 A 
HETATM    8  C   UNL     1     -42.695  58.202 -58.511  1.00  0.00     0.039 A 
HETATM    9  C   UNL     1     -43.119  57.233 -59.420  1.00  0.00     0.003 A 
HETATM   10  C   UNL     1     -43.290  55.914 -59.002  1.00  0.00     0.002 A 
HETATM   11  C   UNL     1     -43.051  55.561 -57.672  1.00  0.00     0.032 A 
BRANCH   7  12
HETATM   12  O   UNL     1     -42.014  58.757 -56.239  1.00  0.00    -0.354 OA
HETATM   13  C   UNL     1     -42.929  59.828 -56.022  1.00  0.00     0.210 C 
ENDBRANCH   7  12
ENDBRANCH   3   6
ENDBRANCH   1   2
BRANCH   1  14
HETATM   14  N   UNL     1     -41.282  55.825 -53.037  1.00  0.00    -0.284 NA
HETATM   15  H   UNL     1     -40.890  56.177 -53.909  1.00  0.00     0.128 HD
BRANCH  14  16
HETATM   16  C   UNL     1     -40.796  54.528 -52.782  1.00  0.00     0.009 A 
HETATM   17  C   UNL     1     -40.747  53.510 -53.744  1.00  0.00     0.035 A 
HETATM   18  C   UNL     1     -40.327  52.202 -53.429  1.00  0.00    -0.024 A 
HETATM   19  C   UNL     1     -39.965  51.893 -52.102  1.00  0.00    -0.026 A 
HETATM   20  C   UNL     1     -40.267  51.197 -54.409  1.00  0.00     0.012 A 
HETATM   21  C   UNL     1     -40.051  52.894 -51.126  1.00  0.00     0.014 A 
HETATM   22  C   UNL     1     -39.543  50.589 -51.790  1.00  0.00     0.012 A 
HETATM   23  C   UNL     1     -40.478  54.184 -51.463  1.00  0.00     0.024 A 
HETATM   24  C   UNL     1     -39.483  49.603 -52.777  1.00  0.00     0.001 A 
HETATM   25  C   UNL     1     -39.848  49.907 -54.085  1.00  0.00     0.001 A 
ENDBRANCH  14  16
ENDBRANCH   1  14
TORSDOF 5
ENDMDL
MODEL 6
REMARK VINA RESULT:      -8.0      1.844      3.246
REMARK  5 active torsions:
REMARK  status: ('A' for Active; 'I' for Inactive)
REMARK    1  A    between atoms: O_2  and  C_3 
REMARK    2  A    between atoms: C_4  and  N_5 
REMARK       I    between atoms: N_5  and  C_6 
REMARK    3  A    between atoms: C_6  and  C_7 
REMARK    4  A    between atoms: C_7  and  N_8 
REMARK    5  A    between atoms: N_8  and  C_9 
ROOT
HETATM    1  C   UNL     1     -44.336  57.008 -54.359  1.00  0.00     0.195 C 
ENDROOT
BRANCH   1   2
HETATM    2  C   UNL     1     -44.376  57.534 -55.801  1.00  0.00     0.235 C 
HETATM    3  N   UNL     1     -43.210  57.280 -56.495  1.00  0.00    -0.324 N 
HETATM    4  H   UNL     1     -42.490  56.774 -55.980  1.00  0.00     0.169 HD
HETATM    5  O   UNL     1     -45.387  58.068 -56.248  1.00  0.00    -0.272 OA
BRANCH   3   6
HETATM    6  C   UNL     1     -42.844  57.712 -57.785  1.00  0.00     0.068 A 
HETATM    7  C   UNL     1     -42.947  56.781 -58.836  1.00  0.00     0.095 A 
HETATM    8  C   UNL     1     -42.523  57.125 -60.123  1.00  0.00     0.039 A 
HETATM    9  C   UNL     1     -42.029  58.404 -60.377  1.00  0.00     0.003 A 
HETATM   10  C   UNL     1     -41.957  59.339 -59.346  1.00  0.00     0.002 A 
HETATM   11  C   UNL     1     -42.364  58.995 -58.054  1.00  0.00     0.032 A 
BRANCH   7  12
HETATM   12  O   UNL     1     -43.448  55.539 -58.522  1.00  0.00    -0.354 OA
HETATM   13  C   UNL     1     -44.116  54.900 -59.608  1.00  0.00     0.210 C 
ENDBRANCH   7  12
ENDBRANCH   3   6
ENDBRANCH   1   2
BRANCH   1  14
HETATM   14  N   UNL     1     -44.577  55.554 -54.265  1.00  0.00    -0.284 NA
HETATM   15  H   UNL     1     -45.386  55.353 -53.679  1.00  0.00     0.128 HD
BRANCH  14  16
HETATM   16  C   UNL     1     -43.502  54.720 -53.901  1.00  0.00     0.009 A 
HETATM   17  C   UNL     1     -43.054  54.553 -52.584  1.00  0.00     0.035 A 
HETATM   18  C   UNL     1     -41.925  53.771 -52.270  1.00  0.00    -0.024 A 
HETATM   19  C   UNL     1     -41.204  53.149 -53.310  1.00  0.00    -0.026 A 
HETATM   20  C   UNL     1     -41.499  53.601 -50.943  1.00  0.00     0.012 A 
HETATM   21  C   UNL     1     -41.621  53.344 -54.633  1.00  0.00     0.014 A 
HETATM   22  C   UNL     1     -40.081  52.366 -52.996  1.00  0.00     0.012 A 
HETATM   23  C   UNL     1     -42.742  54.133 -54.920  1.00  0.00     0.024 A 
HETATM   24  C   UNL     1     -39.673  52.201 -51.671  1.00  0.00     0.001 A 
HETATM   25  C   UNL     1     -40.381  52.821 -50.645  1.00  0.00     0.001 A 
ENDBRANCH  14  16
ENDBRANCH   1  14
TORSDOF 5
ENDMDL
MODEL 7
REMARK VINA RESULT:      -7.9      1.561      1.900
REMARK  5 active torsions:
REMARK  status: ('A' for Active; 'I' for Inactive)
REMARK    1  A    between atoms: O_2  and  C_3 
REMARK    2  A    between atoms: C_4  and  N_5 
REMARK       I    between atoms: N_5  and  C_6 
REMARK    3  A    between atoms: C_6  and  C_7 
REMARK    4  A    between atoms: C_7  and  N_8 
REMARK    5  A    between atoms: N_8  and  C_9 
ROOT
HETATM    1  C   UNL     1     -42.138  56.925 -55.818  1.00  0.00     0.195 C 
ENDROOT
BRANCH   1   2
HETATM    2  C   UNL     1     -42.636  57.075 -57.263  1.00  0.00     0.235 C 
HETATM    3  N   UNL     1     -43.744  56.297 -57.530  1.00  0.00    -0.324 N 
HETATM    4  H   UNL     1     -44.094  55.742 -56.749  1.00  0.00     0.169 HD
HETATM    5  O   UNL     1     -42.096  57.861 -58.036  1.00  0.00    -0.272 OA
BRANCH   3   6
HETATM    6  C   UNL     1     -44.395  56.089 -58.762  1.00  0.00     0.068 A 
HETATM    7  C   UNL     1     -45.399  57.004 -59.129  1.00  0.00     0.095 A 
HETATM    8  C   UNL     1     -46.137  56.807 -60.300  1.00  0.00     0.039 A 
HETATM    9  C   UNL     1     -45.854  55.720 -61.128  1.00  0.00     0.003 A 
HETATM   10  C   UNL     1     -44.838  54.830 -60.784  1.00  0.00     0.002 A 
HETATM   11  C   UNL     1     -44.109  55.014 -59.606  1.00  0.00     0.032 A 
BRANCH   7  12
HETATM   12  O   UNL     1     -45.625  58.058 -58.274  1.00  0.00    -0.354 OA
HETATM   13  C   UNL     1     -45.545  59.335 -58.905  1.00  0.00     0.210 C 
ENDBRANCH   7  12
ENDBRANCH   3   6
ENDBRANCH   1   2
BRANCH   1  14
HETATM   14  N   UNL     1     -42.814  55.838 -55.082  1.00  0.00    -0.284 NA
HETATM   15  H   UNL     1     -43.590  56.197 -54.528  1.00  0.00     0.128 HD
BRANCH  14  16
HETATM   16  C   UNL     1     -42.028  54.970 -54.299  1.00  0.00     0.009 A 
HETATM   17  C   UNL     1     -41.584  53.713 -54.734  1.00  0.00     0.035 A 
HETATM   18  C   UNL     1     -40.866  52.841 -53.892  1.00  0.00    -0.024 A 
HETATM   19  C   UNL     1     -40.601  53.225 -52.562  1.00  0.00    -0.026 A 
HETATM   20  C   UNL     1     -40.414  51.592 -54.349  1.00  0.00     0.012 A 
HETATM   21  C   UNL     1     -41.077  54.462 -52.107  1.00  0.00     0.014 A 
HETATM   22  C   UNL     1     -39.882  52.356 -51.725  1.00  0.00     0.012 A 
HETATM   23  C   UNL     1     -41.795  55.308 -52.961  1.00  0.00     0.024 A 
HETATM   24  C   UNL     1     -39.433  51.120 -52.195  1.00  0.00     0.001 A 
HETATM   25  C   UNL     1     -39.702  50.738 -53.506  1.00  0.00     0.001 A 
ENDBRANCH  14  16
ENDBRANCH   1  14
TORSDOF 5
ENDMDL
MODEL 8
REMARK VINA RESULT:      -7.8      1.714      2.590
REMARK  5 active torsions:
REMARK  status: ('A' for Active; 'I' for Inactive)
REMARK    1  A    between atoms: O_2  and  C_3 
REMARK    2  A    between atoms: C_4  and  N_5 
REMARK       I    between atoms: N_5  and  C_6 
REMARK    3  A    between atoms: C_6  and  C_7 
REMARK    4  A    between atoms: C_7  and  N_8 
REMARK    5  A    between atoms: N_8  and  C_9 
ROOT
HETATM    1  C   UNL     1     -42.139  57.146 -55.712  1.00  0.00     0.195 C 
ENDROOT
BRANCH   1   2
HETATM    2  C   UNL     1     -42.625  57.234 -57.165  1.00  0.00     0.235 C 
HETATM    3  N   UNL     1     -43.735  56.450 -57.406  1.00  0.00    -0.324 N 
HETATM    4  H   UNL     1     -44.094  55.933 -56.604  1.00  0.00     0.169 HD
HETATM    5  O   UNL     1     -42.075  57.982 -57.968  1.00  0.00    -0.272 OA
BRANCH   3   6
HETATM    6  C   UNL     1     -44.377  56.191 -58.633  1.00  0.00     0.068 A 
HETATM    7  C   UNL     1     -45.441  57.036 -59.001  1.00  0.00     0.095 A 
HETATM    8  C   UNL     1     -46.170  56.782 -60.167  1.00  0.00     0.039 A 
HETATM    9  C   UNL     1     -45.822  55.709 -60.987  1.00  0.00     0.003 A 
HETATM   10  C   UNL     1     -44.749  54.890 -60.643  1.00  0.00     0.002 A 
HETATM   11  C   UNL     1     -44.027  55.130 -59.471  1.00  0.00     0.032 A 
BRANCH   7  12
HETATM   12  O   UNL     1     -45.731  58.080 -58.152  1.00  0.00    -0.354 OA
HETATM   13  C   UNL     1     -47.083  58.092 -57.701  1.00  0.00     0.210 C 
ENDBRANCH   7  12
ENDBRANCH   3   6
ENDBRANCH   1   2
BRANCH   1  14
HETATM   14  N   UNL     1     -42.851  56.120 -54.923  1.00  0.00    -0.284 NA
HETATM   15  H   UNL     1     -43.407  56.547 -54.183  1.00  0.00     0.128 HD
BRANCH  14  16
HETATM   16  C   UNL     1     -42.111  55.041 -54.404  1.00  0.00     0.009 A 
HETATM   17  C   UNL     1     -42.039  54.727 -53.039  1.00  0.00     0.035 A 
HETATM   18  C   UNL     1     -41.224  53.687 -52.552  1.00  0.00    -0.024 A 
HETATM   19  C   UNL     1     -40.435  52.945 -53.456  1.00  0.00    -0.026 A 
HETATM   20  C   UNL     1     -41.176  53.374 -51.184  1.00  0.00     0.012 A 
HETATM   21  C   UNL     1     -40.469  53.279 -54.816  1.00  0.00     0.014 A 
HETATM   22  C   UNL     1     -39.626  51.905 -52.969  1.00  0.00     0.012 A 
HETATM   23  C   UNL     1     -41.282  54.323 -55.274  1.00  0.00     0.024 A 
HETATM   24  C   UNL     1     -39.594  51.603 -51.606  1.00  0.00     0.001 A 
HETATM   25  C   UNL     1     -40.367  52.340 -50.714  1.00  0.00     0.001 A 
ENDBRANCH  14  16
ENDBRANCH   1  14
TORSDOF 5
ENDMDL
MODEL 9
REMARK VINA RESULT:      -7.6      4.348      6.053
REMARK  5 active torsions:
REMARK  status: ('A' for Active; 'I' for Inactive)
REMARK    1  A    between atoms: O_2  and  C_3 
REMARK    2  A    between atoms: C_4  and  N_5 
REMARK       I    between atoms: N_5  and  C_6 
REMARK    3  A    between atoms: C_6  and  C_7 
REMARK    4  A    between atoms: C_7  and  N_8 
REMARK    5  A    between atoms: N_8  and  C_9 
ROOT
HETATM    1  C   UNL     1     -42.046  56.300 -51.175  1.00  0.00     0.195 C 
ENDROOT
BRANCH   1   2
HETATM    2  C   UNL     1     -41.829  57.809 -50.997  1.00  0.00     0.235 C 
HETATM    3  N   UNL     1     -42.982  58.542 -51.189  1.00  0.00    -0.324 N 
HETATM    4  H   UNL     1     -43.819  58.001 -51.406  1.00  0.00     0.169 HD
HETATM    5  O   UNL     1     -40.732  58.252 -50.667  1.00  0.00    -0.272 OA
BRANCH   3   6
HETATM    6  C   UNL     1     -43.138  59.941 -51.224  1.00  0.00     0.068 A 
HETATM    7  C   UNL     1     -43.168  60.561 -52.487  1.00  0.00     0.095 A 
HETATM    8  C   UNL     1     -43.240  61.954 -52.586  1.00  0.00     0.039 A 
HETATM    9  C   UNL     1     -43.317  62.732 -51.431  1.00  0.00     0.003 A 
HETATM   10  C   UNL     1     -43.321  62.120 -50.179  1.00  0.00     0.002 A 
HETATM   11  C   UNL     1     -43.233  60.729 -50.075  1.00  0.00     0.032 A 
BRANCH   7  12
HETATM   12  O   UNL     1     -43.095  59.738 -53.588  1.00  0.00    -0.354 OA
HETATM   13  C   UNL     1     -41.868  59.850 -54.306  1.00  0.00     0.210 C 
ENDBRANCH   7  12
ENDBRANCH   3   6
ENDBRANCH   1   2
BRANCH   1  14
HETATM   14  N   UNL     1     -41.358  55.750 -52.361  1.00  0.00    -0.284 NA
HETATM   15  H   UNL     1     -41.928  55.857 -53.198  1.00  0.00     0.128 HD
BRANCH  14  16
HETATM   16  C   UNL     1     -40.848  54.440 -52.292  1.00  0.00     0.009 A 
HETATM   17  C   UNL     1     -40.804  53.561 -53.383  1.00  0.00     0.035 A 
HETATM   18  C   UNL     1     -40.359  52.231 -53.255  1.00  0.00    -0.024 A 
HETATM   19  C   UNL     1     -39.963  51.752 -51.989  1.00  0.00    -0.026 A 
HETATM   20  C   UNL     1     -40.305  51.367 -54.362  1.00  0.00     0.012 A 
HETATM   21  C   UNL     1     -40.043  52.611 -50.886  1.00  0.00     0.014 A 
HETATM   22  C   UNL     1     -39.515  50.426 -51.864  1.00  0.00     0.012 A 
HETATM   23  C   UNL     1     -40.496  53.928 -51.037  1.00  0.00     0.024 A 
HETATM   24  C   UNL     1     -39.462  49.582 -52.974  1.00  0.00     0.001 A 
HETATM   25  C   UNL     1     -39.860  50.053 -54.222  1.00  0.00     0.001 A 
ENDBRANCH  14  16
ENDBRANCH   1  14
TORSDOF 5
ENDMDL
MODEL 10
REMARK VINA RESULT:      -7.6     13.737     16.958
REMARK  5 active torsions:
REMARK  status: ('A' for Active; 'I' for Inactive)
REMARK    1  A    between atoms: O_2  and  C_3 
REMARK    2  A    between atoms: C_4  and  N_5 
REMARK       I    between atoms: N_5  and  C_6 
REMARK    3  A    between atoms: C_6  and  C_7 
REMARK    4  A    between atoms: C_7  and  N_8 
REMARK    5  A    between atoms: N_8  and  C_9 
ROOT
HETATM    1  C   UNL     1     -37.394  41.215 -54.330  1.00  0.00     0.195 C 
ENDROOT
BRANCH   1   2
HETATM    2  C   UNL     1     -36.134  41.538 -53.514  1.00  0.00     0.235 C 
HETATM    3  N   UNL     1     -35.426  40.409 -53.156  1.00  0.00    -0.324 N 
HETATM    4  H   UNL     1     -35.810  39.523 -53.482  1.00  0.00     0.169 HD
HETATM    5  O   UNL     1     -35.816  42.701 -53.283  1.00  0.00    -0.272 OA
BRANCH   3   6
HETATM    6  C   UNL     1     -34.298  40.310 -52.316  1.00  0.00     0.068 A 
HETATM    7  C   UNL     1     -33.128  39.751 -52.863  1.00  0.00     0.095 A 
HETATM    8  C   UNL     1     -32.001  39.551 -52.059  1.00  0.00     0.039 A 
HETATM    9  C   UNL     1     -32.024  39.939 -50.720  1.00  0.00     0.003 A 
HETATM   10  C   UNL     1     -33.170  40.523 -50.183  1.00  0.00     0.002 A 
HETATM   11  C   UNL     1     -34.303  40.709 -50.979  1.00  0.00     0.032 A 
BRANCH   7  12
HETATM   12  O   UNL     1     -33.168  39.395 -54.192  1.00  0.00    -0.354 OA
HETATM   13  C   UNL     1     -32.456  40.289 -55.046  1.00  0.00     0.210 C 
ENDBRANCH   7  12
ENDBRANCH   3   6
ENDBRANCH   1   2
BRANCH   1  14
HETATM   14  N   UNL     1     -37.604  42.139 -55.463  1.00  0.00    -0.284 NA
HETATM   15  H   UNL     1     -38.417  42.733 -55.306  1.00  0.00     0.128 HD
BRANCH  14  16
HETATM   16  C   UNL     1     -37.644  41.605 -56.765  1.00  0.00     0.009 A 
HETATM   17  C   UNL     1     -38.111  40.319 -57.068  1.00  0.00     0.035 A 
HETATM   18  C   UNL     1     -38.062  39.792 -58.373  1.00  0.00    -0.024 A 
HETATM   19  C   UNL     1     -37.506  40.568 -59.412  1.00  0.00    -0.026 A 
HETATM   20  C   UNL     1     -38.550  38.507 -58.662  1.00  0.00     0.012 A 
HETATM   21  C   UNL     1     -37.000  41.838 -59.110  1.00  0.00     0.014 A 
HETATM   22  C   UNL     1     -37.461  40.042 -60.714  1.00  0.00     0.012 A 
HETATM   23  C   UNL     1     -37.053  42.337 -57.803  1.00  0.00     0.024 A 
HETATM   24  C   UNL     1     -37.956  38.765 -60.987  1.00  0.00     0.001 A 
HETATM   25  C   UNL     1     -38.497  37.997 -59.960  1.00  0.00     0.001 A 
ENDBRANCH  14  16
ENDBRANCH   1  14
TORSDOF 5
ENDMDL
