MODEL 1
REMARK VINA RESULT:      -6.8      0.000      0.000
REMARK  5 active torsions:
REMARK  status: ('A' for Active; 'I' for Inactive)
REMARK    1  A    between atoms: C_7  and  C_8 
REMARK    2  A    between atoms: C_8  and  N_9 
REMARK    3  A    between atoms: C_12  and  C_13 
REMARK    4  A    between atoms: C_13  and  C_14 
REMARK    5  A    between atoms: C_14  and  O_15 
ROOT
HETATM    1  C   UNL     1     -40.284  52.251 -50.152  1.00  0.00     0.020 A 
HETATM    2  C   UNL     1     -40.668  53.570 -50.061  1.00  0.00     0.117 A 
HETATM    3  N   UNL     1     -40.867  54.371 -51.135  1.00  0.00    -0.260 NA
HETATM    4  C   UNL     1     -40.645  53.856 -52.366  1.00  0.00     0.076 A 
HETATM    5  C   UNL     1     -40.264  52.510 -52.574  1.00  0.00     0.011 A 
HETATM    6  C   UNL     1     -40.088  51.718 -51.420  1.00  0.00     0.016 A 
HETATM    7  C   UNL     1     -40.827  54.695 -53.470  1.00  0.00    -0.003 A 
HETATM    8  C   UNL     1     -40.638  54.220 -54.777  1.00  0.00     0.012 A 
HETATM    9  C   UNL     1     -40.276  52.897 -54.991  1.00  0.00     0.020 A 
HETATM   10  C   UNL     1     -40.086  52.046 -53.903  1.00  0.00     0.023 A 
HETATM   11 BR   UNL     1     -39.592  50.252 -54.303  1.00  0.00    -0.050 Br
ENDROOT
BRANCH   7  12
HETATM   12  C   UNL     1     -41.192  56.144 -53.255  1.00  0.00     0.275 C 
BRANCH  12  13
HETATM   13  N   UNL     1     -42.615  56.361 -52.809  1.00  0.00    -0.067 N 
HETATM   14  H   UNL     1     -42.637  55.878 -51.889  1.00  0.00     0.280 HD
HETATM   15  C   UNL     1     -43.673  55.723 -53.674  1.00  0.00     0.240 C 
HETATM   16  C   UNL     1     -44.407  56.893 -54.323  1.00  0.00     0.015 C 
HETATM   17  C   UNL     1     -44.382  57.926 -53.197  1.00  0.00     0.034 C 
HETATM   18  C   UNL     1     -42.987  57.805 -52.603  1.00  0.00     0.235 C 
BRANCH  16  19
HETATM   19  C   UNL     1     -43.730  57.424 -55.597  1.00  0.00     0.032 C 
BRANCH  19  20
HETATM   20  C   UNL     1     -43.150  56.329 -56.487  1.00  0.00     0.164 C 
BRANCH  20  21
HETATM   21  O   UNL     1     -42.020  56.854 -57.164  1.00  0.00    -0.401 OA
HETATM   22  H   UNL     1     -41.580  56.122 -57.633  1.00  0.00     0.209 HD
ENDBRANCH  20  21
ENDBRANCH  19  20
ENDBRANCH  16  19
ENDBRANCH  12  13
ENDBRANCH   7  12
TORSDOF 5
ENDMDL
MODEL 2
REMARK VINA RESULT:      -6.8      2.372      3.166
REMARK  5 active torsions:
REMARK  status: ('A' for Active; 'I' for Inactive)
REMARK    1  A    between atoms: C_7  and  C_8 
REMARK    2  A    between atoms: C_8  and  N_9 
REMARK    3  A    between atoms: C_12  and  C_13 
REMARK    4  A    between atoms: C_13  and  C_14 
REMARK    5  A    between atoms: C_14  and  O_15 
ROOT
HETATM    1  C   UNL     1     -39.824  53.919 -49.829  1.00  0.00     0.020 A 
HETATM    2  C   UNL     1     -40.616  55.045 -49.823  1.00  0.00     0.117 A 
HETATM    3  N   UNL     1     -41.385  55.428 -50.870  1.00  0.00    -0.260 NA
HETATM    4  C   UNL     1     -41.350  54.681 -51.996  1.00  0.00     0.076 A 
HETATM    5  C   UNL     1     -40.583  53.497 -52.105  1.00  0.00     0.011 A 
HETATM    6  C   UNL     1     -39.815  53.137 -50.977  1.00  0.00     0.016 A 
HETATM    7  C   UNL     1     -42.126  55.095 -53.083  1.00  0.00    -0.003 A 
HETATM    8  C   UNL     1     -42.156  54.354 -54.274  1.00  0.00     0.012 A 
HETATM    9  C   UNL     1     -41.416  53.185 -54.385  1.00  0.00     0.020 A 
HETATM   10  C   UNL     1     -40.633  52.756 -53.314  1.00  0.00     0.023 A 
HETATM   11 BR   UNL     1     -39.658  51.141 -53.565  1.00  0.00    -0.050 Br
ENDROOT
BRANCH   7  12
HETATM   12  C   UNL     1     -42.914  56.380 -52.992  1.00  0.00     0.275 C 
BRANCH  12  13
HETATM   13  N   UNL     1     -42.364  57.500 -53.838  1.00  0.00    -0.067 N 
HETATM   14  H   UNL     1     -42.618  57.199 -54.799  1.00  0.00     0.280 HD
HETATM   15  C   UNL     1     -40.865  57.667 -53.803  1.00  0.00     0.240 C 
HETATM   16  C   UNL     1     -40.635  58.995 -53.087  1.00  0.00     0.015 C 
HETATM   17  C   UNL     1     -41.823  59.817 -53.588  1.00  0.00     0.034 C 
HETATM   18  C   UNL     1     -42.991  58.843 -53.572  1.00  0.00     0.235 C 
BRANCH  16  19
HETATM   19  C   UNL     1     -40.627  58.884 -51.554  1.00  0.00     0.032 C 
BRANCH  19  20
HETATM   20  C   UNL     1     -39.293  59.262 -50.917  1.00  0.00     0.164 C 
BRANCH  20  21
HETATM   21  O   UNL     1     -38.367  59.545 -51.952  1.00  0.00    -0.401 OA
HETATM   22  H   UNL     1     -37.482  59.634 -51.552  1.00  0.00     0.209 HD
ENDBRANCH  20  21
ENDBRANCH  19  20
ENDBRANCH  16  19
ENDBRANCH  12  13
ENDBRANCH   7  12
TORSDOF 5
ENDMDL
MODEL 3
REMARK VINA RESULT:      -6.7      1.868      2.490
REMARK  5 active torsions:
REMARK  status: ('A' for Active; 'I' for Inactive)
REMARK    1  A    between atoms: C_7  and  C_8 
REMARK    2  A    between atoms: C_8  and  N_9 
REMARK    3  A    between atoms: C_12  and  C_13 
REMARK    4  A    between atoms: C_13  and  C_14 
REMARK    5  A    between atoms: C_14  and  O_15 
ROOT
HETATM    1  C   UNL     1     -40.472  52.958 -50.031  1.00  0.00     0.020 A 
HETATM    2  C   UNL     1     -40.815  54.289 -50.097  1.00  0.00     0.117 A 
HETATM    3  N   UNL     1     -40.942  54.977 -51.257  1.00  0.00    -0.260 NA
HETATM    4  C   UNL     1     -40.686  54.328 -52.415  1.00  0.00     0.076 A 
HETATM    5  C   UNL     1     -40.341  52.957 -52.463  1.00  0.00     0.011 A 
HETATM    6  C   UNL     1     -40.240  52.287 -51.225  1.00  0.00     0.016 A 
HETATM    7  C   UNL     1     -40.793  55.049 -53.608  1.00  0.00    -0.003 A 
HETATM    8  C   UNL     1     -40.565  54.433 -54.848  1.00  0.00     0.012 A 
HETATM    9  C   UNL     1     -40.238  53.085 -54.905  1.00  0.00     0.020 A 
HETATM   10  C   UNL     1     -40.123  52.349 -53.727  1.00  0.00     0.023 A 
HETATM   11 BR   UNL     1     -39.672  50.509 -53.913  1.00  0.00    -0.050 Br
ENDROOT
BRANCH   7  12
HETATM   12  C   UNL     1     -41.118  56.523 -53.564  1.00  0.00     0.275 C 
BRANCH  12  13
HETATM   13  N   UNL     1     -42.336  56.909 -54.362  1.00  0.00    -0.067 N 
HETATM   14  H   UNL     1     -42.035  56.716 -55.338  1.00  0.00     0.280 HD
HETATM   15  C   UNL     1     -42.726  58.364 -54.294  1.00  0.00     0.240 C 
HETATM   16  C   UNL     1     -44.047  58.382 -53.531  1.00  0.00     0.015 C 
HETATM   17  C   UNL     1     -44.698  57.091 -54.025  1.00  0.00     0.034 C 
HETATM   18  C   UNL     1     -43.560  56.083 -54.063  1.00  0.00     0.235 C 
BRANCH  16  19
HETATM   19  C   UNL     1     -43.884  58.386 -52.002  1.00  0.00     0.032 C 
BRANCH  19  20
HETATM   20  C   UNL     1     -45.146  57.978 -51.248  1.00  0.00     0.164 C 
BRANCH  20  21
HETATM   21  O   UNL     1     -44.880  56.771 -50.552  1.00  0.00    -0.401 OA
HETATM   22  H   UNL     1     -45.108  56.906 -49.613  1.00  0.00     0.209 HD
ENDBRANCH  20  21
ENDBRANCH  19  20
ENDBRANCH  16  19
ENDBRANCH  12  13
ENDBRANCH   7  12
TORSDOF 5
ENDMDL
MODEL 4
REMARK VINA RESULT:      -6.5      2.400      3.715
REMARK  5 active torsions:
REMARK  status: ('A' for Active; 'I' for Inactive)
REMARK    1  A    between atoms: C_7  and  C_8 
REMARK    2  A    between atoms: C_8  and  N_9 
REMARK    3  A    between atoms: C_12  and  C_13 
REMARK    4  A    between atoms: C_13  and  C_14 
REMARK    5  A    between atoms: C_14  and  O_15 
ROOT
HETATM    1  C   UNL     1     -40.204  52.811 -54.824  1.00  0.00     0.020 A 
HETATM    2  C   UNL     1     -40.576  54.133 -54.729  1.00  0.00     0.117 A 
HETATM    3  N   UNL     1     -40.793  54.771 -53.553  1.00  0.00    -0.260 NA
HETATM    4  C   UNL     1     -40.669  54.061 -52.409  1.00  0.00     0.076 A 
HETATM    5  C   UNL     1     -40.277  52.701 -52.392  1.00  0.00     0.011 A 
HETATM    6  C   UNL     1     -40.047  52.094 -53.645  1.00  0.00     0.016 A 
HETATM    7  C   UNL     1     -40.919  54.716 -51.200  1.00  0.00    -0.003 A 
HETATM    8  C   UNL     1     -40.785  54.047 -49.974  1.00  0.00     0.012 A 
HETATM    9  C   UNL     1     -40.390  52.717 -49.947  1.00  0.00     0.020 A 
HETATM   10  C   UNL     1     -40.138  52.044 -51.142  1.00  0.00     0.023 A 
HETATM   11 BR   UNL     1     -39.600  50.224 -50.997  1.00  0.00    -0.050 Br
ENDROOT
BRANCH   7  12
HETATM   12  C   UNL     1     -41.380  56.154 -51.211  1.00  0.00     0.275 C 
BRANCH  12  13
HETATM   13  N   UNL     1     -42.719  56.366 -51.870  1.00  0.00    -0.067 N 
HETATM   14  H   UNL     1     -42.807  55.524 -52.472  1.00  0.00     0.280 HD
HETATM   15  C   UNL     1     -42.818  57.572 -52.771  1.00  0.00     0.240 C 
HETATM   16  C   UNL     1     -43.774  58.520 -52.053  1.00  0.00     0.015 C 
HETATM   17  C   UNL     1     -44.756  57.535 -51.420  1.00  0.00     0.034 C 
HETATM   18  C   UNL     1     -43.881  56.399 -50.914  1.00  0.00     0.235 C 
BRANCH  16  19
HETATM   19  C   UNL     1     -43.096  59.405 -50.994  1.00  0.00     0.032 C 
BRANCH  19  20
HETATM   20  C   UNL     1     -41.715  59.907 -51.405  1.00  0.00     0.164 C 
BRANCH  20  21
HETATM   21  O   UNL     1     -40.791  59.556 -50.388  1.00  0.00    -0.401 OA
HETATM   22  H   UNL     1     -40.246  60.341 -50.190  1.00  0.00     0.209 HD
ENDBRANCH  20  21
ENDBRANCH  19  20
ENDBRANCH  16  19
ENDBRANCH  12  13
ENDBRANCH   7  12
TORSDOF 5
ENDMDL
MODEL 5
REMARK VINA RESULT:      -6.4      2.467      3.508
REMARK  5 active torsions:
REMARK  status: ('A' for Active; 'I' for Inactive)
REMARK    1  A    between atoms: C_7  and  C_8 
REMARK    2  A    between atoms: C_8  and  N_9 
REMARK    3  A    between atoms: C_12  and  C_13 
REMARK    4  A    between atoms: C_13  and  C_14 
REMARK    5  A    between atoms: C_14  and  O_15 
ROOT
HETATM    1  C   UNL     1     -39.483  51.656 -52.635  1.00  0.00     0.020 A 
HETATM    2  C   UNL     1     -40.158  51.966 -53.793  1.00  0.00     0.117 A 
HETATM    3  N   UNL     1     -41.148  52.888 -53.863  1.00  0.00    -0.260 NA
HETATM    4  C   UNL     1     -41.515  53.518 -52.725  1.00  0.00     0.076 A 
HETATM    5  C   UNL     1     -40.877  53.288 -51.483  1.00  0.00     0.011 A 
HETATM    6  C   UNL     1     -39.842  52.329 -51.473  1.00  0.00     0.016 A 
HETATM    7  C   UNL     1     -42.555  54.451 -52.797  1.00  0.00    -0.003 A 
HETATM    8  C   UNL     1     -42.971  55.159 -51.659  1.00  0.00     0.012 A 
HETATM    9  C   UNL     1     -42.342  54.947 -50.440  1.00  0.00     0.020 A 
HETATM   10  C   UNL     1     -41.306  54.020 -50.346  1.00  0.00     0.023 A 
HETATM   11 BR   UNL     1     -40.510  53.805 -48.631  1.00  0.00    -0.050 Br
ENDROOT
BRANCH   7  12
HETATM   12  C   UNL     1     -43.270  54.671 -54.108  1.00  0.00     0.275 C 
BRANCH  12  13
HETATM   13  N   UNL     1     -42.471  55.452 -55.121  1.00  0.00    -0.067 N 
HETATM   14  H   UNL     1     -41.537  55.000 -55.066  1.00  0.00     0.280 HD
HETATM   15  C   UNL     1     -42.279  56.916 -54.810  1.00  0.00     0.240 C 
HETATM   16  C   UNL     1     -43.087  57.652 -55.875  1.00  0.00     0.015 C 
HETATM   17  C   UNL     1     -42.879  56.748 -57.090  1.00  0.00     0.034 C 
HETATM   18  C   UNL     1     -42.980  55.336 -56.533  1.00  0.00     0.235 C 
BRANCH  16  19
HETATM   19  C   UNL     1     -44.577  57.807 -55.531  1.00  0.00     0.032 C 
BRANCH  19  20
HETATM   20  C   UNL     1     -45.447  58.194 -56.723  1.00  0.00     0.164 C 
BRANCH  20  21
HETATM   21  O   UNL     1     -46.764  57.724 -56.487  1.00  0.00    -0.401 OA
HETATM   22  H   UNL     1     -47.101  57.336 -57.316  1.00  0.00     0.209 HD
ENDBRANCH  20  21
ENDBRANCH  19  20
ENDBRANCH  16  19
ENDBRANCH  12  13
ENDBRANCH   7  12
TORSDOF 5
ENDMDL
MODEL 6
REMARK VINA RESULT:      -6.4     14.491     15.778
REMARK  5 active torsions:
REMARK  status: ('A' for Active; 'I' for Inactive)
REMARK    1  A    between atoms: C_7  and  C_8 
REMARK    2  A    between atoms: C_8  and  N_9 
REMARK    3  A    between atoms: C_12  and  C_13 
REMARK    4  A    between atoms: C_13  and  C_14 
REMARK    5  A    between atoms: C_14  and  O_15 
ROOT
HETATM    1  C   UNL     1     -31.534  39.046 -54.372  1.00  0.00     0.020 A 
HETATM    2  C   UNL     1     -32.073  39.497 -55.556  1.00  0.00     0.117 A 
HETATM    3  N   UNL     1     -33.165  40.295 -55.629  1.00  0.00    -0.260 NA
HETATM    4  C   UNL     1     -33.781  40.641 -54.476  1.00  0.00     0.076 A 
HETATM    5  C   UNL     1     -33.303  40.246 -53.205  1.00  0.00     0.011 A 
HETATM    6  C   UNL     1     -32.152  39.430 -53.188  1.00  0.00     0.016 A 
HETATM    7  C   UNL     1     -34.924  41.444 -54.559  1.00  0.00    -0.003 A 
HETATM    8  C   UNL     1     -35.599  41.861 -53.401  1.00  0.00     0.012 A 
HETATM    9  C   UNL     1     -35.129  41.488 -52.149  1.00  0.00     0.020 A 
HETATM   10  C   UNL     1     -33.994  40.685 -52.046  1.00  0.00     0.023 A 
HETATM   11 BR   UNL     1     -33.432  40.230 -50.285  1.00  0.00    -0.050 Br
ENDROOT
BRANCH   7  12
HETATM   12  C   UNL     1     -35.466  41.834 -55.912  1.00  0.00     0.275 C 
BRANCH  12  13
HETATM   13  N   UNL     1     -36.250  40.746 -56.598  1.00  0.00    -0.067 N 
HETATM   14  H   UNL     1     -36.009  39.907 -56.035  1.00  0.00     0.280 HD
HETATM   15  C   UNL     1     -35.853  40.456 -58.024  1.00  0.00     0.240 C 
HETATM   16  C   UNL     1     -37.041  40.916 -58.864  1.00  0.00     0.015 C 
HETATM   17  C   UNL     1     -38.213  40.552 -57.953  1.00  0.00     0.034 C 
HETATM   18  C   UNL     1     -37.743  40.939 -56.559  1.00  0.00     0.235 C 
BRANCH  16  19
HETATM   19  C   UNL     1     -37.025  42.416 -59.198  1.00  0.00     0.032 C 
BRANCH  19  20
HETATM   20  C   UNL     1     -37.504  42.738 -60.610  1.00  0.00     0.164 C 
BRANCH  20  21
HETATM   21  O   UNL     1     -36.725  43.810 -61.114  1.00  0.00    -0.401 OA
HETATM   22  H   UNL     1     -37.260  44.624 -61.063  1.00  0.00     0.209 HD
ENDBRANCH  20  21
ENDBRANCH  19  20
ENDBRANCH  16  19
ENDBRANCH  12  13
ENDBRANCH   7  12
TORSDOF 5
ENDMDL
MODEL 7
REMARK VINA RESULT:      -6.4      2.432      3.611
REMARK  5 active torsions:
REMARK  status: ('A' for Active; 'I' for Inactive)
REMARK    1  A    between atoms: C_7  and  C_8 
REMARK    2  A    between atoms: C_8  and  N_9 
REMARK    3  A    between atoms: C_12  and  C_13 
REMARK    4  A    between atoms: C_13  and  C_14 
REMARK    5  A    between atoms: C_14  and  O_15 
ROOT
HETATM    1  C   UNL     1     -40.120  52.220 -53.360  1.00  0.00     0.020 A 
HETATM    2  C   UNL     1     -40.243  52.883 -54.561  1.00  0.00     0.117 A 
HETATM    3  N   UNL     1     -40.647  54.171 -54.671  1.00  0.00    -0.260 NA
HETATM    4  C   UNL     1     -40.980  54.835 -53.541  1.00  0.00     0.076 A 
HETATM    5  C   UNL     1     -40.876  54.255 -52.255  1.00  0.00     0.011 A 
HETATM    6  C   UNL     1     -40.433  52.916 -52.199  1.00  0.00     0.016 A 
HETATM    7  C   UNL     1     -41.422  56.156 -53.662  1.00  0.00    -0.003 A 
HETATM    8  C   UNL     1     -41.761  56.911 -52.529  1.00  0.00     0.012 A 
HETATM    9  C   UNL     1     -41.650  56.354 -51.263  1.00  0.00     0.020 A 
HETATM   10  C   UNL     1     -41.214  55.037 -51.121  1.00  0.00     0.023 A 
HETATM   11 BR   UNL     1     -41.096  54.368 -49.343  1.00  0.00    -0.050 Br
ENDROOT
BRANCH   7  12
HETATM   12  C   UNL     1     -41.577  56.768 -55.034  1.00  0.00     0.275 C 
BRANCH  12  13
HETATM   13  N   UNL     1     -42.928  56.536 -55.661  1.00  0.00    -0.067 N 
HETATM   14  H   UNL     1     -43.398  55.927 -54.963  1.00  0.00     0.280 HD
HETATM   15  C   UNL     1     -42.917  55.788 -56.971  1.00  0.00     0.240 C 
HETATM   16  C   UNL     1     -43.355  56.814 -58.013  1.00  0.00     0.015 C 
HETATM   17  C   UNL     1     -44.375  57.630 -57.220  1.00  0.00     0.034 C 
HETATM   18  C   UNL     1     -43.749  57.785 -55.843  1.00  0.00     0.235 C 
BRANCH  16  19
HETATM   19  C   UNL     1     -42.211  57.693 -58.542  1.00  0.00     0.032 C 
BRANCH  19  20
HETATM   20  C   UNL     1     -42.038  57.632 -60.056  1.00  0.00     0.164 C 
BRANCH  20  21
HETATM   21  O   UNL     1     -41.254  56.492 -60.372  1.00  0.00    -0.401 OA
HETATM   22  H   UNL     1     -40.318  56.717 -60.221  1.00  0.00     0.209 HD
ENDBRANCH  20  21
ENDBRANCH  19  20
ENDBRANCH  16  19
ENDBRANCH  12  13
ENDBRANCH   7  12
TORSDOF 5
ENDMDL
MODEL 8
REMARK VINA RESULT:      -6.3      1.892      3.181
REMARK  5 active torsions:
REMARK  status: ('A' for Active; 'I' for Inactive)
REMARK    1  A    between atoms: C_7  and  C_8 
REMARK    2  A    between atoms: C_8  and  N_9 
REMARK    3  A    between atoms: C_12  and  C_13 
REMARK    4  A    between atoms: C_13  and  C_14 
REMARK    5  A    between atoms: C_14  and  O_15 
ROOT
HETATM    1  C   UNL     1     -40.588  53.388 -54.584  1.00  0.00     0.020 A 
HETATM    2  C   UNL     1     -40.806  54.748 -54.603  1.00  0.00     0.117 A 
HETATM    3  N   UNL     1     -40.926  55.505 -53.487  1.00  0.00    -0.260 NA
HETATM    4  C   UNL     1     -40.860  54.887 -52.285  1.00  0.00     0.076 A 
HETATM    5  C   UNL     1     -40.624  53.499 -52.151  1.00  0.00     0.011 A 
HETATM    6  C   UNL     1     -40.490  52.763 -53.348  1.00  0.00     0.016 A 
HETATM    7  C   UNL     1     -41.011  55.670 -51.137  1.00  0.00    -0.003 A 
HETATM    8  C   UNL     1     -40.930  55.099 -49.857  1.00  0.00     0.012 A 
HETATM    9  C   UNL     1     -40.686  53.739 -49.717  1.00  0.00     0.020 A 
HETATM   10  C   UNL     1     -40.536  52.941 -50.850  1.00  0.00     0.023 A 
HETATM   11 BR   UNL     1     -40.204  51.091 -50.550  1.00  0.00    -0.050 Br
ENDROOT
BRANCH   7  12
HETATM   12  C   UNL     1     -41.306  57.145 -51.271  1.00  0.00     0.275 C 
BRANCH  12  13
HETATM   13  N   UNL     1     -42.665  57.549 -50.759  1.00  0.00    -0.067 N 
HETATM   14  H   UNL     1     -42.582  57.370 -49.738  1.00  0.00     0.280 HD
HETATM   15  C   UNL     1     -43.823  56.724 -51.264  1.00  0.00     0.240 C 
HETATM   16  C   UNL     1     -44.619  57.672 -52.157  1.00  0.00     0.015 C 
HETATM   17  C   UNL     1     -44.453  58.997 -51.413  1.00  0.00     0.034 C 
HETATM   18  C   UNL     1     -42.999  59.002 -50.968  1.00  0.00     0.235 C 
BRANCH  16  19
HETATM   19  C   UNL     1     -44.093  57.760 -53.598  1.00  0.00     0.032 C 
BRANCH  19  20
HETATM   20  C   UNL     1     -44.996  57.083 -54.625  1.00  0.00     0.164 C 
BRANCH  20  21
HETATM   21  O   UNL     1     -44.851  55.679 -54.491  1.00  0.00    -0.401 OA
HETATM   22  H   UNL     1     -44.431  55.338 -55.303  1.00  0.00     0.209 HD
ENDBRANCH  20  21
ENDBRANCH  19  20
ENDBRANCH  16  19
ENDBRANCH  12  13
ENDBRANCH   7  12
TORSDOF 5
ENDMDL
MODEL 9
REMARK VINA RESULT:      -6.2      1.997      3.635
REMARK  5 active torsions:
REMARK  status: ('A' for Active; 'I' for Inactive)
REMARK    1  A    between atoms: C_7  and  C_8 
REMARK    2  A    between atoms: C_8  and  N_9 
REMARK    3  A    between atoms: C_12  and  C_13 
REMARK    4  A    between atoms: C_13  and  C_14 
REMARK    5  A    between atoms: C_14  and  O_15 
ROOT
HETATM    1  C   UNL     1     -40.395  54.074 -55.282  1.00  0.00     0.020 A 
HETATM    2  C   UNL     1     -41.136  55.225 -55.130  1.00  0.00     0.117 A 
HETATM    3  N   UNL     1     -41.652  55.636 -53.948  1.00  0.00    -0.260 NA
HETATM    4  C   UNL     1     -41.458  54.857 -52.860  1.00  0.00     0.076 A 
HETATM    5  C   UNL     1     -40.699  53.664 -52.900  1.00  0.00     0.011 A 
HETATM    6  C   UNL     1     -40.171  53.293 -54.155  1.00  0.00     0.016 A 
HETATM    7  C   UNL     1     -42.015  55.273 -51.647  1.00  0.00    -0.003 A 
HETATM    8  C   UNL     1     -41.832  54.526 -50.473  1.00  0.00     0.012 A 
HETATM    9  C   UNL     1     -41.079  53.360 -50.502  1.00  0.00     0.020 A 
HETATM   10  C   UNL     1     -40.518  52.926 -51.702  1.00  0.00     0.023 A 
HETATM   11 BR   UNL     1     -39.503  51.317 -51.634  1.00  0.00    -0.050 Br
ENDROOT
BRANCH   7  12
HETATM   12  C   UNL     1     -42.862  56.523 -51.604  1.00  0.00     0.275 C 
BRANCH  12  13
HETATM   13  N   UNL     1     -42.255  57.650 -50.808  1.00  0.00    -0.067 N 
HETATM   14  H   UNL     1     -42.578  57.441 -49.842  1.00  0.00     0.280 HD
HETATM   15  C   UNL     1     -42.749  59.032 -51.155  1.00  0.00     0.240 C 
HETATM   16  C   UNL     1     -41.548  59.729 -51.790  1.00  0.00     0.015 C 
HETATM   17  C   UNL     1     -40.395  59.145 -50.976  1.00  0.00     0.034 C 
HETATM   18  C   UNL     1     -40.749  57.674 -50.817  1.00  0.00     0.235 C 
BRANCH  16  19
HETATM   19  C   UNL     1     -41.385  59.444 -53.292  1.00  0.00     0.032 C 
BRANCH  19  20
HETATM   20  C   UNL     1     -42.695  59.487 -54.073  1.00  0.00     0.164 C 
BRANCH  20  21
HETATM   21  O   UNL     1     -42.853  58.251 -54.750  1.00  0.00    -0.401 OA
HETATM   22  H   UNL     1     -42.039  57.730 -54.624  1.00  0.00     0.209 HD
ENDBRANCH  20  21
ENDBRANCH  19  20
ENDBRANCH  16  19
ENDBRANCH  12  13
ENDBRANCH   7  12
TORSDOF 5
ENDMDL
MODEL 10
REMARK VINA RESULT:      -6.2      2.751      4.292
REMARK  5 active torsions:
REMARK  status: ('A' for Active; 'I' for Inactive)
REMARK    1  A    between atoms: C_7  and  C_8 
REMARK    2  A    between atoms: C_8  and  N_9 
REMARK    3  A    between atoms: C_12  and  C_13 
REMARK    4  A    between atoms: C_13  and  C_14 
REMARK    5  A    between atoms: C_14  and  O_15 
ROOT
HETATM    1  C   UNL     1     -42.362  53.364 -55.083  1.00  0.00     0.020 A 
HETATM    2  C   UNL     1     -43.056  54.510 -54.765  1.00  0.00     0.117 A 
HETATM    3  N   UNL     1     -42.919  55.171 -53.591  1.00  0.00    -0.260 NA
HETATM    4  C   UNL     1     -42.077  54.659 -52.665  1.00  0.00     0.076 A 
HETATM    5  C   UNL     1     -41.304  53.496 -52.893  1.00  0.00     0.011 A 
HETATM    6  C   UNL     1     -41.475  52.859 -54.141  1.00  0.00     0.016 A 
HETATM    7  C   UNL     1     -41.958  55.330 -51.444  1.00  0.00    -0.003 A 
HETATM    8  C   UNL     1     -41.085  54.869 -50.447  1.00  0.00     0.012 A 
HETATM    9  C   UNL     1     -40.314  53.736 -50.668  1.00  0.00     0.020 A 
HETATM   10  C   UNL     1     -40.420  53.050 -51.877  1.00  0.00     0.023 A 
HETATM   11 BR   UNL     1     -39.320  51.510 -52.081  1.00  0.00    -0.050 Br
ENDROOT
BRANCH   7  12
HETATM   12  C   UNL     1     -42.811  56.547 -51.175  1.00  0.00     0.275 C 
BRANCH  12  13
HETATM   13  N   UNL     1     -42.598  57.675 -52.151  1.00  0.00    -0.067 N 
HETATM   14  H   UNL     1     -43.129  57.353 -52.984  1.00  0.00     0.280 HD
HETATM   15  C   UNL     1     -41.172  57.899 -52.587  1.00  0.00     0.240 C 
HETATM   16  C   UNL     1     -40.782  59.243 -51.980  1.00  0.00     0.015 C 
HETATM   17  C   UNL     1     -42.098  60.014 -52.083  1.00  0.00     0.034 C 
HETATM   18  C   UNL     1     -43.163  58.997 -51.702  1.00  0.00     0.235 C 
BRANCH  16  19
HETATM   19  C   UNL     1     -40.290  59.152 -50.526  1.00  0.00     0.032 C 
BRANCH  19  20
HETATM   20  C   UNL     1     -39.017  59.948 -50.256  1.00  0.00     0.164 C 
BRANCH  20  21
HETATM   21  O   UNL     1     -38.032  59.549 -51.196  1.00  0.00    -0.401 OA
HETATM   22  H   UNL     1     -37.906  58.586 -51.113  1.00  0.00     0.209 HD
ENDBRANCH  20  21
ENDBRANCH  19  20
ENDBRANCH  16  19
ENDBRANCH  12  13
ENDBRANCH   7  12
TORSDOF 5
ENDMDL
