MODEL 1
REMARK VINA RESULT:      -8.3      0.000      0.000
REMARK  7 active torsions:
REMARK  status: ('A' for Active; 'I' for Inactive)
REMARK    1  A    between atoms: C_6  and  N_7 
REMARK       I    between atoms: N_7  and  C_8 
REMARK       I    between atoms: C_8  and  N_9 
REMARK    2  A    between atoms: N_9  and  C_10 
REMARK    3  A    between atoms: C_10  and  C_11 
REMARK    4  A    between atoms: C_11  and  C_12 
REMARK    5  A    between atoms: C_12  and  C_13 
REMARK    6  A    between atoms: C_13  and  O_14 
REMARK    7  A    between atoms: O_14  and  C_15 
ROOT
HETATM    1  C   UNL     1     -43.047  59.089 -51.542  1.00  0.00     0.219 C 
ENDROOT
BRANCH   1   2
HETATM    2  N   UNL     1     -42.953  57.655 -51.532  1.00  0.00    -0.332 N 
HETATM    3  C   UNL     1     -44.059  56.900 -51.294  1.00  0.00     0.321 C 
HETATM    4  N   UNL     1     -43.916  55.547 -51.331  1.00  0.00    -0.309 N 
HETATM    5  O   UNL     1     -45.153  57.380 -51.001  1.00  0.00    -0.247 OA
HETATM    6  H   UNL     1     -44.708  55.083 -50.903  1.00  0.00     0.170 HD
HETATM    7  H   UNL     1     -42.066  57.236 -51.295  1.00  0.00     0.165 HD
BRANCH   4   8
HETATM    8  C   UNL     1     -43.002  54.719 -52.005  1.00  0.00     0.036 A 
HETATM    9  C   UNL     1     -41.951  54.044 -51.383  1.00  0.00     0.037 A 
HETATM   10  C   UNL     1     -41.025  53.289 -52.130  1.00  0.00    -0.054 A 
HETATM   11  C   UNL     1     -41.173  53.195 -53.526  1.00  0.00    -0.056 A 
HETATM   12  C   UNL     1     -39.907  52.586 -51.408  1.00  0.00     0.049 C 
HETATM   13  C   UNL     1     -40.209  52.411 -54.372  1.00  0.00     0.049 C 
HETATM   14  C   UNL     1     -42.217  53.894 -54.147  1.00  0.00     0.009 A 
HETATM   15  C   UNL     1     -43.115  54.653 -53.395  1.00  0.00     0.030 A 
ENDBRANCH   4   8
ENDBRANCH   1   2
BRANCH   1  16
HETATM   16  C   UNL     1     -42.935  59.653 -52.949  1.00  0.00    -0.085 C 
BRANCH  16  17
HETATM   17  C   UNL     1     -42.839  60.136 -54.156  1.00  0.00    -0.078 C 
BRANCH  17  18
HETATM   18  C   UNL     1     -42.726  60.701 -55.564  1.00  0.00     0.269 C 
BRANCH  18  19
HETATM   19  O   UNL     1     -41.660  60.042 -56.238  1.00  0.00    -0.337 OA
BRANCH  19  20
HETATM   20  C   UNL     1     -41.931  59.482 -57.469  1.00  0.00     0.099 A 
HETATM   21  C   UNL     1     -42.346  58.160 -57.742  1.00  0.00     0.100 A 
HETATM   22  C   UNL     1     -42.557  57.818 -59.100  1.00  0.00    -0.005 A 
HETATM   23  N   UNL     1     -42.544  57.229 -56.774  1.00  0.00    -0.257 NA
HETATM   24  C   UNL     1     -42.967  56.514 -59.417  1.00  0.00     0.015 A 
HETATM   25  C   UNL     1     -42.362  58.756 -60.126  1.00  0.00     0.014 A 
HETATM   26  C   UNL     1     -43.162  55.580 -58.412  1.00  0.00     0.020 A 
HETATM   27  C   UNL     1     -42.939  55.982 -57.116  1.00  0.00     0.117 A 
HETATM   28  C   UNL     1     -41.955  60.050 -59.832  1.00  0.00     0.004 A 
HETATM   29  C   UNL     1     -41.741  60.409 -58.509  1.00  0.00     0.039 A 
ENDBRANCH  19  20
ENDBRANCH  18  19
ENDBRANCH  17  18
ENDBRANCH  16  17
ENDBRANCH   1  16
TORSDOF 7
ENDMDL
MODEL 2
REMARK VINA RESULT:      -8.3      2.338      4.203
REMARK  7 active torsions:
REMARK  status: ('A' for Active; 'I' for Inactive)
REMARK    1  A    between atoms: C_6  and  N_7 
REMARK       I    between atoms: N_7  and  C_8 
REMARK       I    between atoms: C_8  and  N_9 
REMARK    2  A    between atoms: N_9  and  C_10 
REMARK    3  A    between atoms: C_10  and  C_11 
REMARK    4  A    between atoms: C_11  and  C_12 
REMARK    5  A    between atoms: C_12  and  C_13 
REMARK    6  A    between atoms: C_13  and  O_14 
REMARK    7  A    between atoms: O_14  and  C_15 
ROOT
HETATM    1  C   UNL     1     -41.076  56.147 -49.832  1.00  0.00     0.219 C 
ENDROOT
BRANCH   1   2
HETATM    2  N   UNL     1     -40.569  54.840 -50.148  1.00  0.00    -0.332 N 
HETATM    3  C   UNL     1     -40.706  53.820 -49.257  1.00  0.00     0.321 C 
HETATM    4  N   UNL     1     -40.238  52.597 -49.625  1.00  0.00    -0.309 N 
HETATM    5  O   UNL     1     -41.183  53.968 -48.133  1.00  0.00    -0.247 OA
HETATM    6  H   UNL     1     -40.155  51.982 -48.826  1.00  0.00     0.170 HD
HETATM    7  H   UNL     1     -39.794  54.770 -50.791  1.00  0.00     0.165 HD
BRANCH   4   8
HETATM    8  C   UNL     1     -40.049  52.006 -50.887  1.00  0.00     0.036 A 
HETATM    9  C   UNL     1     -40.178  52.687 -52.098  1.00  0.00     0.037 A 
HETATM   10  C   UNL     1     -40.049  52.015 -53.329  1.00  0.00    -0.054 A 
HETATM   11  C   UNL     1     -39.765  50.637 -53.341  1.00  0.00    -0.056 A 
HETATM   12  C   UNL     1     -40.202  52.798 -54.606  1.00  0.00     0.049 C 
HETATM   13  C   UNL     1     -39.626  49.869 -54.626  1.00  0.00     0.049 C 
HETATM   14  C   UNL     1     -39.660  49.954 -52.122  1.00  0.00     0.009 A 
HETATM   15  C   UNL     1     -39.809  50.630 -50.910  1.00  0.00     0.030 A 
ENDBRANCH   4   8
ENDBRANCH   1   2
BRANCH   1  16
HETATM   16  C   UNL     1     -42.203  56.557 -50.766  1.00  0.00    -0.085 C 
BRANCH  16  17
HETATM   17  C   UNL     1     -43.169  56.909 -51.569  1.00  0.00    -0.078 C 
BRANCH  17  18
HETATM   18  C   UNL     1     -44.296  57.318 -52.503  1.00  0.00     0.269 C 
BRANCH  18  19
HETATM   19  O   UNL     1     -43.734  57.780 -53.726  1.00  0.00    -0.337 OA
BRANCH  19  20
HETATM   20  C   UNL     1     -43.507  56.848 -54.718  1.00  0.00     0.099 A 
HETATM   21  C   UNL     1     -43.241  57.092 -56.083  1.00  0.00     0.100 A 
HETATM   22  C   UNL     1     -43.045  55.962 -56.914  1.00  0.00    -0.005 A 
HETATM   23  N   UNL     1     -43.168  58.339 -56.616  1.00  0.00    -0.257 NA
HETATM   24  C   UNL     1     -42.782  56.157 -58.278  1.00  0.00     0.015 A 
HETATM   25  C   UNL     1     -43.113  54.658 -56.397  1.00  0.00     0.014 A 
HETATM   26  C   UNL     1     -42.713  57.439 -58.799  1.00  0.00     0.020 A 
HETATM   27  C   UNL     1     -42.911  58.490 -57.934  1.00  0.00     0.117 A 
HETATM   28  C   UNL     1     -43.374  54.444 -55.051  1.00  0.00     0.004 A 
HETATM   29  C   UNL     1     -43.570  55.536 -54.217  1.00  0.00     0.039 A 
ENDBRANCH  19  20
ENDBRANCH  18  19
ENDBRANCH  17  18
ENDBRANCH  16  17
ENDBRANCH   1  16
TORSDOF 7
ENDMDL
MODEL 3
REMARK VINA RESULT:      -8.2      1.913      6.730
REMARK  7 active torsions:
REMARK  status: ('A' for Active; 'I' for Inactive)
REMARK    1  A    between atoms: C_6  and  N_7 
REMARK       I    between atoms: N_7  and  C_8 
REMARK       I    between atoms: C_8  and  N_9 
REMARK    2  A    between atoms: N_9  and  C_10 
REMARK    3  A    between atoms: C_10  and  C_11 
REMARK    4  A    between atoms: C_11  and  C_12 
REMARK    5  A    between atoms: C_12  and  C_13 
REMARK    6  A    between atoms: C_13  and  O_14 
REMARK    7  A    between atoms: O_14  and  C_15 
ROOT
HETATM    1  C   UNL     1     -40.454  58.763 -52.446  1.00  0.00     0.219 C 
ENDROOT
BRANCH   1   2
HETATM    2  N   UNL     1     -41.335  58.670 -53.579  1.00  0.00    -0.332 N 
HETATM    3  C   UNL     1     -42.385  59.526 -53.698  1.00  0.00     0.321 C 
HETATM    4  N   UNL     1     -43.164  59.413 -54.808  1.00  0.00    -0.309 N 
HETATM    5  O   UNL     1     -42.686  60.349 -52.836  1.00  0.00    -0.247 OA
HETATM    6  H   UNL     1     -44.042  59.903 -54.691  1.00  0.00     0.170 HD
HETATM    7  H   UNL     1     -41.431  57.776 -54.037  1.00  0.00     0.165 HD
BRANCH   4   8
HETATM    8  C   UNL     1     -42.891  58.928 -56.100  1.00  0.00     0.036 A 
HETATM    9  C   UNL     1     -43.237  57.652 -56.546  1.00  0.00     0.037 A 
HETATM   10  C   UNL     1     -42.867  57.203 -57.829  1.00  0.00    -0.054 A 
HETATM   11  C   UNL     1     -42.155  58.063 -58.686  1.00  0.00    -0.056 A 
HETATM   12  C   UNL     1     -43.262  55.815 -58.257  1.00  0.00     0.049 C 
HETATM   13  C   UNL     1     -41.728  57.632 -60.061  1.00  0.00     0.049 C 
HETATM   14  C   UNL     1     -41.791  59.334 -58.223  1.00  0.00     0.009 A 
HETATM   15  C   UNL     1     -42.149  59.758 -56.942  1.00  0.00     0.030 A 
ENDBRANCH   4   8
ENDBRANCH   1   2
BRANCH   1  16
HETATM   16  C   UNL     1     -40.767  57.709 -51.397  1.00  0.00    -0.085 C 
BRANCH  16  17
HETATM   17  C   UNL     1     -41.037  56.803 -50.498  1.00  0.00    -0.078 C 
BRANCH  17  18
HETATM   18  C   UNL     1     -41.351  55.747 -49.451  1.00  0.00     0.269 C 
BRANCH  18  19
HETATM   19  O   UNL     1     -42.153  54.734 -50.047  1.00  0.00    -0.337 OA
BRANCH  19  20
HETATM   20  C   UNL     1     -41.626  54.053 -51.125  1.00  0.00     0.099 A 
HETATM   21  C   UNL     1     -42.068  54.089 -52.465  1.00  0.00     0.100 A 
HETATM   22  C   UNL     1     -41.363  53.291 -53.399  1.00  0.00    -0.005 A 
HETATM   23  N   UNL     1     -43.120  54.840 -52.882  1.00  0.00    -0.257 NA
HETATM   24  C   UNL     1     -41.770  53.292 -54.741  1.00  0.00     0.015 A 
HETATM   25  C   UNL     1     -40.271  52.502 -53.003  1.00  0.00     0.014 A 
HETATM   26  C   UNL     1     -42.846  54.068 -55.143  1.00  0.00     0.020 A 
HETATM   27  C   UNL     1     -43.484  54.818 -54.183  1.00  0.00     0.117 A 
HETATM   28  C   UNL     1     -39.854  52.485 -51.679  1.00  0.00     0.004 A 
HETATM   29  C   UNL     1     -40.530  53.258 -50.746  1.00  0.00     0.039 A 
ENDBRANCH  19  20
ENDBRANCH  18  19
ENDBRANCH  17  18
ENDBRANCH  16  17
ENDBRANCH   1  16
TORSDOF 7
ENDMDL
MODEL 4
REMARK VINA RESULT:      -8.0      2.705      3.662
REMARK  7 active torsions:
REMARK  status: ('A' for Active; 'I' for Inactive)
REMARK    1  A    between atoms: C_6  and  N_7 
REMARK       I    between atoms: N_7  and  C_8 
REMARK       I    between atoms: C_8  and  N_9 
REMARK    2  A    between atoms: N_9  and  C_10 
REMARK    3  A    between atoms: C_10  and  C_11 
REMARK    4  A    between atoms: C_11  and  C_12 
REMARK    5  A    between atoms: C_12  and  C_13 
REMARK    6  A    between atoms: C_13  and  O_14 
REMARK    7  A    between atoms: O_14  and  C_15 
ROOT
HETATM    1  C   UNL     1     -44.053  56.437 -53.227  1.00  0.00     0.219 C 
ENDROOT
BRANCH   1   2
HETATM    2  N   UNL     1     -42.835  55.678 -53.139  1.00  0.00    -0.332 N 
HETATM    3  C   UNL     1     -41.962  55.905 -52.121  1.00  0.00     0.321 C 
HETATM    4  N   UNL     1     -40.843  55.132 -52.070  1.00  0.00    -0.309 N 
HETATM    5  O   UNL     1     -42.114  56.797 -51.289  1.00  0.00    -0.247 OA
HETATM    6  H   UNL     1     -40.151  55.531 -51.448  1.00  0.00     0.170 HD
HETATM    7  H   UNL     1     -42.443  55.303 -53.990  1.00  0.00     0.165 HD
BRANCH   4   8
HETATM    8  C   UNL     1     -40.574  53.838 -52.549  1.00  0.00     0.036 A 
HETATM    9  C   UNL     1     -40.194  52.767 -51.740  1.00  0.00     0.037 A 
HETATM   10  C   UNL     1     -39.865  51.514 -52.294  1.00  0.00    -0.054 A 
HETATM   11  C   UNL     1     -39.942  51.331 -53.688  1.00  0.00    -0.056 A 
HETATM   12  C   UNL     1     -39.457  50.395 -51.374  1.00  0.00     0.049 C 
HETATM   13  C   UNL     1     -39.594  50.019 -54.333  1.00  0.00     0.049 C 
HETATM   14  C   UNL     1     -40.301  52.417 -54.496  1.00  0.00     0.009 A 
HETATM   15  C   UNL     1     -40.606  53.658 -53.933  1.00  0.00     0.030 A 
ENDBRANCH   4   8
ENDBRANCH   1   2
BRANCH   1  16
HETATM   16  C   UNL     1     -44.156  57.191 -54.543  1.00  0.00    -0.085 C 
BRANCH  16  17
HETATM   17  C   UNL     1     -44.244  57.840 -55.671  1.00  0.00    -0.078 C 
BRANCH  17  18
HETATM   18  C   UNL     1     -44.346  58.595 -56.986  1.00  0.00     0.269 C 
BRANCH  18  19
HETATM   19  O   UNL     1     -43.583  57.907 -57.970  1.00  0.00    -0.337 OA
BRANCH  19  20
HETATM   20  C   UNL     1     -44.239  56.986 -58.761  1.00  0.00     0.099 A 
HETATM   21  C   UNL     1     -45.382  57.200 -59.563  1.00  0.00     0.100 A 
HETATM   22  C   UNL     1     -45.879  56.088 -60.286  1.00  0.00    -0.005 A 
HETATM   23  N   UNL     1     -46.006  58.401 -59.663  1.00  0.00    -0.257 NA
HETATM   24  C   UNL     1     -47.014  56.253 -61.093  1.00  0.00     0.015 A 
HETATM   25  C   UNL     1     -45.258  54.831 -60.207  1.00  0.00     0.014 A 
HETATM   26  C   UNL     1     -47.635  57.489 -61.179  1.00  0.00     0.020 A 
HETATM   27  C   UNL     1     -47.098  58.525 -60.451  1.00  0.00     0.117 A 
HETATM   28  C   UNL     1     -44.134  54.647 -59.413  1.00  0.00     0.004 A 
HETATM   29  C   UNL     1     -43.629  55.721 -58.694  1.00  0.00     0.039 A 
ENDBRANCH  19  20
ENDBRANCH  18  19
ENDBRANCH  17  18
ENDBRANCH  16  17
ENDBRANCH   1  16
TORSDOF 7
ENDMDL
MODEL 5
REMARK VINA RESULT:      -7.9      2.191      5.158
REMARK  7 active torsions:
REMARK  status: ('A' for Active; 'I' for Inactive)
REMARK    1  A    between atoms: C_6  and  N_7 
REMARK       I    between atoms: N_7  and  C_8 
REMARK       I    between atoms: C_8  and  N_9 
REMARK    2  A    between atoms: N_9  and  C_10 
REMARK    3  A    between atoms: C_10  and  C_11 
REMARK    4  A    between atoms: C_11  and  C_12 
REMARK    5  A    between atoms: C_12  and  C_13 
REMARK    6  A    between atoms: C_13  and  O_14 
REMARK    7  A    between atoms: O_14  and  C_15 
ROOT
HETATM    1  C   UNL     1     -42.231  58.074 -57.396  1.00  0.00     0.219 C 
ENDROOT
BRANCH   1   2
HETATM    2  N   UNL     1     -42.495  56.939 -56.554  1.00  0.00    -0.332 N 
HETATM    3  C   UNL     1     -42.935  55.773 -57.098  1.00  0.00     0.321 C 
HETATM    4  N   UNL     1     -43.135  54.723 -56.256  1.00  0.00    -0.309 N 
HETATM    5  O   UNL     1     -43.204  55.645 -58.291  1.00  0.00    -0.247 OA
HETATM    6  H   UNL     1     -43.688  54.000 -56.698  1.00  0.00     0.170 HD
HETATM    7  H   UNL     1     -42.747  57.108 -55.591  1.00  0.00     0.165 HD
BRANCH   4   8
HETATM    8  C   UNL     1     -42.566  54.396 -55.012  1.00  0.00     0.036 A 
HETATM    9  C   UNL     1     -43.257  54.434 -53.801  1.00  0.00     0.037 A 
HETATM   10  C   UNL     1     -42.606  54.167 -52.581  1.00  0.00    -0.054 A 
HETATM   11  C   UNL     1     -41.238  53.835 -52.583  1.00  0.00    -0.056 A 
HETATM   12  C   UNL     1     -43.399  54.226 -51.303  1.00  0.00     0.049 C 
HETATM   13  C   UNL     1     -40.492  53.550 -51.310  1.00  0.00     0.049 C 
HETATM   14  C   UNL     1     -40.544  53.822 -53.800  1.00  0.00     0.009 A 
HETATM   15  C   UNL     1     -41.200  54.107 -54.999  1.00  0.00     0.030 A 
ENDBRANCH   4   8
ENDBRANCH   1   2
BRANCH   1  16
HETATM   16  C   UNL     1     -42.662  59.376 -56.743  1.00  0.00    -0.085 C 
BRANCH  16  17
HETATM   17  C   UNL     1     -43.033  60.494 -56.183  1.00  0.00    -0.078 C 
BRANCH  17  18
HETATM   18  C   UNL     1     -43.465  61.797 -55.528  1.00  0.00     0.269 C 
BRANCH  18  19
HETATM   19  O   UNL     1     -42.997  61.812 -54.185  1.00  0.00    -0.337 OA
BRANCH  19  20
HETATM   20  C   UNL     1     -43.329  60.743 -53.379  1.00  0.00     0.099 A 
HETATM   21  C   UNL     1     -42.470  59.734 -52.891  1.00  0.00     0.100 A 
HETATM   22  C   UNL     1     -43.051  58.729 -52.079  1.00  0.00    -0.005 A 
HETATM   23  N   UNL     1     -41.140  59.692 -53.165  1.00  0.00    -0.257 NA
HETATM   24  C   UNL     1     -42.235  57.705 -51.575  1.00  0.00     0.015 A 
HETATM   25  C   UNL     1     -44.421  58.741 -51.775  1.00  0.00     0.014 A 
HETATM   26  C   UNL     1     -40.881  57.683 -51.869  1.00  0.00     0.020 A 
HETATM   27  C   UNL     1     -40.385  58.691 -52.662  1.00  0.00     0.117 A 
HETATM   28  C   UNL     1     -45.245  59.745 -52.266  1.00  0.00     0.004 A 
HETATM   29  C   UNL     1     -44.699  60.740 -53.064  1.00  0.00     0.039 A 
ENDBRANCH  19  20
ENDBRANCH  18  19
ENDBRANCH  17  18
ENDBRANCH  16  17
ENDBRANCH   1  16
TORSDOF 7
ENDMDL
MODEL 6
REMARK VINA RESULT:      -7.8      1.965      3.159
REMARK  7 active torsions:
REMARK  status: ('A' for Active; 'I' for Inactive)
REMARK    1  A    between atoms: C_6  and  N_7 
REMARK       I    between atoms: N_7  and  C_8 
REMARK       I    between atoms: C_8  and  N_9 
REMARK    2  A    between atoms: N_9  and  C_10 
REMARK    3  A    between atoms: C_10  and  C_11 
REMARK    4  A    between atoms: C_11  and  C_12 
REMARK    5  A    between atoms: C_12  and  C_13 
REMARK    6  A    between atoms: C_13  and  O_14 
REMARK    7  A    between atoms: O_14  and  C_15 
ROOT
HETATM    1  C   UNL     1     -43.673  56.274 -51.763  1.00  0.00     0.219 C 
ENDROOT
BRANCH   1   2
HETATM    2  N   UNL     1     -42.499  55.449 -51.849  1.00  0.00    -0.332 N 
HETATM    3  C   UNL     1     -41.619  55.404 -50.813  1.00  0.00     0.321 C 
HETATM    4  N   UNL     1     -40.544  54.580 -50.936  1.00  0.00    -0.309 N 
HETATM    5  O   UNL     1     -41.726  56.104 -49.807  1.00  0.00    -0.247 OA
HETATM    6  H   UNL     1     -39.834  54.798 -50.249  1.00  0.00     0.170 HD
HETATM    7  H   UNL     1     -42.124  55.245 -52.764  1.00  0.00     0.165 HD
BRANCH   4   8
HETATM    8  C   UNL     1     -40.343  53.406 -51.685  1.00  0.00     0.036 A 
HETATM    9  C   UNL     1     -40.020  52.168 -51.127  1.00  0.00     0.037 A 
HETATM   10  C   UNL     1     -39.758  51.048 -51.941  1.00  0.00    -0.054 A 
HETATM   11  C   UNL     1     -39.844  51.172 -53.340  1.00  0.00    -0.056 A 
HETATM   12  C   UNL     1     -39.409  49.738 -51.286  1.00  0.00     0.049 C 
HETATM   13  C   UNL     1     -39.567  50.012 -54.255  1.00  0.00     0.049 C 
HETATM   14  C   UNL     1     -40.146  52.423 -53.894  1.00  0.00     0.009 A 
HETATM   15  C   UNL     1     -40.385  53.528 -53.075  1.00  0.00     0.030 A 
ENDBRANCH   4   8
ENDBRANCH   1   2
BRANCH   1  16
HETATM   16  C   UNL     1     -44.047  56.867 -53.112  1.00  0.00    -0.085 C 
BRANCH  16  17
HETATM   17  C   UNL     1     -44.368  57.377 -54.268  1.00  0.00    -0.078 C 
BRANCH  17  18
HETATM   18  C   UNL     1     -44.742  57.972 -55.616  1.00  0.00     0.269 C 
BRANCH  18  19
HETATM   19  O   UNL     1     -43.577  58.533 -56.210  1.00  0.00    -0.337 OA
BRANCH  19  20
HETATM   20  C   UNL     1     -43.201  58.062 -57.450  1.00  0.00     0.099 A 
HETATM   21  C   UNL     1     -42.750  58.815 -58.557  1.00  0.00     0.100 A 
HETATM   22  C   UNL     1     -42.425  58.098 -59.735  1.00  0.00    -0.005 A 
HETATM   23  N   UNL     1     -42.621  60.166 -58.534  1.00  0.00    -0.257 NA
HETATM   24  C   UNL     1     -41.976  58.805 -60.860  1.00  0.00     0.015 A 
HETATM   25  C   UNL     1     -42.546  56.701 -59.793  1.00  0.00     0.014 A 
HETATM   26  C   UNL     1     -41.852  60.185 -60.813  1.00  0.00     0.020 A 
HETATM   27  C   UNL     1     -42.184  60.815 -59.636  1.00  0.00     0.117 A 
HETATM   28  C   UNL     1     -42.990  55.983 -58.691  1.00  0.00     0.004 A 
HETATM   29  C   UNL     1     -43.316  56.663 -57.526  1.00  0.00     0.039 A 
ENDBRANCH  19  20
ENDBRANCH  18  19
ENDBRANCH  17  18
ENDBRANCH  16  17
ENDBRANCH   1  16
TORSDOF 7
ENDMDL
MODEL 7
REMARK VINA RESULT:      -7.8      2.590      7.182
REMARK  7 active torsions:
REMARK  status: ('A' for Active; 'I' for Inactive)
REMARK    1  A    between atoms: C_6  and  N_7 
REMARK       I    between atoms: N_7  and  C_8 
REMARK       I    between atoms: C_8  and  N_9 
REMARK    2  A    between atoms: N_9  and  C_10 
REMARK    3  A    between atoms: C_10  and  C_11 
REMARK    4  A    between atoms: C_11  and  C_12 
REMARK    5  A    between atoms: C_12  and  C_13 
REMARK    6  A    between atoms: C_13  and  O_14 
REMARK    7  A    between atoms: O_14  and  C_15 
ROOT
HETATM    1  C   UNL     1     -45.199  59.392 -54.354  1.00  0.00     0.219 C 
ENDROOT
BRANCH   1   2
HETATM    2  N   UNL     1     -45.528  58.999 -55.697  1.00  0.00    -0.332 N 
HETATM    3  C   UNL     1     -45.727  59.943 -56.656  1.00  0.00     0.321 C 
HETATM    4  N   UNL     1     -46.000  59.511 -57.916  1.00  0.00    -0.309 N 
HETATM    5  O   UNL     1     -45.720  61.151 -56.424  1.00  0.00    -0.247 OA
HETATM    6  H   UNL     1     -46.374  60.258 -58.487  1.00  0.00     0.170 HD
HETATM    7  H   UNL     1     -45.995  58.115 -55.836  1.00  0.00     0.165 HD
BRANCH   4   8
HETATM    8  C   UNL     1     -45.682  58.317 -58.589  1.00  0.00     0.036 A 
HETATM    9  C   UNL     1     -44.382  57.840 -58.765  1.00  0.00     0.037 A 
HETATM   10  C   UNL     1     -44.128  56.675 -59.514  1.00  0.00    -0.054 A 
HETATM   11  C   UNL     1     -45.204  55.965 -60.078  1.00  0.00    -0.056 A 
HETATM   12  C   UNL     1     -42.706  56.209 -59.676  1.00  0.00     0.049 C 
HETATM   13  C   UNL     1     -44.990  54.721 -60.894  1.00  0.00     0.049 C 
HETATM   14  C   UNL     1     -46.505  56.461 -59.917  1.00  0.00     0.009 A 
HETATM   15  C   UNL     1     -46.739  57.628 -59.187  1.00  0.00     0.030 A 
ENDBRANCH   4   8
ENDBRANCH   1   2
BRANCH   1  16
HETATM   16  C   UNL     1     -44.497  58.278 -53.594  1.00  0.00    -0.085 C 
BRANCH  16  17
HETATM   17  C   UNL     1     -43.896  57.323 -52.942  1.00  0.00    -0.078 C 
BRANCH  17  18
HETATM   18  C   UNL     1     -43.194  56.210 -52.181  1.00  0.00     0.269 C 
BRANCH  18  19
HETATM   19  O   UNL     1     -41.803  56.257 -52.477  1.00  0.00    -0.337 OA
BRANCH  19  20
HETATM   20  C   UNL     1     -41.238  55.150 -53.076  1.00  0.00     0.099 A 
HETATM   21  C   UNL     1     -40.783  53.970 -52.449  1.00  0.00     0.100 A 
HETATM   22  C   UNL     1     -40.232  52.967 -53.284  1.00  0.00    -0.005 A 
HETATM   23  N   UNL     1     -40.853  53.766 -51.108  1.00  0.00    -0.257 NA
HETATM   24  C   UNL     1     -39.764  51.779 -52.702  1.00  0.00     0.015 A 
HETATM   25  C   UNL     1     -40.145  53.144 -54.673  1.00  0.00     0.014 A 
HETATM   26  C   UNL     1     -39.845  51.594 -51.331  1.00  0.00     0.020 A 
HETATM   27  C   UNL     1     -40.393  52.609 -50.582  1.00  0.00     0.117 A 
HETATM   28  C   UNL     1     -40.600  54.313 -55.267  1.00  0.00     0.004 A 
HETATM   29  C   UNL     1     -41.144  55.310 -54.470  1.00  0.00     0.039 A 
ENDBRANCH  19  20
ENDBRANCH  18  19
ENDBRANCH  17  18
ENDBRANCH  16  17
ENDBRANCH   1  16
TORSDOF 7
ENDMDL
MODEL 8
REMARK VINA RESULT:      -7.8      3.745      8.135
REMARK  7 active torsions:
REMARK  status: ('A' for Active; 'I' for Inactive)
REMARK    1  A    between atoms: C_6  and  N_7 
REMARK       I    between atoms: N_7  and  C_8 
REMARK       I    between atoms: C_8  and  N_9 
REMARK    2  A    between atoms: N_9  and  C_10 
REMARK    3  A    between atoms: C_10  and  C_11 
REMARK    4  A    between atoms: C_11  and  C_12 
REMARK    5  A    between atoms: C_12  and  C_13 
REMARK    6  A    between atoms: C_13  and  O_14 
REMARK    7  A    between atoms: O_14  and  C_15 
ROOT
HETATM    1  C   UNL     1     -40.710  59.055 -51.534  1.00  0.00     0.219 C 
ENDROOT
BRANCH   1   2
HETATM    2  N   UNL     1     -41.695  60.041 -51.183  1.00  0.00    -0.332 N 
HETATM    3  C   UNL     1     -42.782  60.233 -51.978  1.00  0.00     0.321 C 
HETATM    4  N   UNL     1     -43.698  61.156 -51.577  1.00  0.00    -0.309 N 
HETATM    5  O   UNL     1     -42.943  59.654 -53.051  1.00  0.00    -0.247 OA
HETATM    6  H   UNL     1     -44.321  61.406 -52.334  1.00  0.00     0.170 HD
HETATM    7  H   UNL     1     -41.403  60.830 -50.625  1.00  0.00     0.165 HD
BRANCH   4   8
HETATM    8  C   UNL     1     -44.038  61.648 -50.304  1.00  0.00     0.036 A 
HETATM    9  C   UNL     1     -44.690  60.899 -49.324  1.00  0.00     0.037 A 
HETATM   10  C   UNL     1     -45.070  61.477 -48.097  1.00  0.00    -0.054 A 
HETATM   11  C   UNL     1     -44.767  62.828 -47.844  1.00  0.00    -0.056 A 
HETATM   12  C   UNL     1     -45.775  60.624 -47.077  1.00  0.00     0.049 C 
HETATM   13  C   UNL     1     -45.157  63.497 -46.555  1.00  0.00     0.049 C 
HETATM   14  C   UNL     1     -44.133  63.581 -48.841  1.00  0.00     0.009 A 
HETATM   15  C   UNL     1     -43.780  62.999 -50.060  1.00  0.00     0.030 A 
ENDBRANCH   4   8
ENDBRANCH   1   2
BRANCH   1  16
HETATM   16  C   UNL     1     -40.919  57.753 -50.778  1.00  0.00    -0.085 C 
BRANCH  16  17
HETATM   17  C   UNL     1     -41.099  56.636 -50.129  1.00  0.00    -0.078 C 
BRANCH  17  18
HETATM   18  C   UNL     1     -41.309  55.335 -49.372  1.00  0.00     0.269 C 
BRANCH  18  19
HETATM   19  O   UNL     1     -42.021  54.428 -50.206  1.00  0.00    -0.337 OA
BRANCH  19  20
HETATM   20  C   UNL     1     -41.294  53.695 -51.121  1.00  0.00     0.099 A 
HETATM   21  C   UNL     1     -41.181  53.920 -52.510  1.00  0.00     0.100 A 
HETATM   22  C   UNL     1     -40.373  53.019 -53.246  1.00  0.00    -0.005 A 
HETATM   23  N   UNL     1     -41.803  54.943 -53.151  1.00  0.00    -0.257 NA
HETATM   24  C   UNL     1     -40.235  53.203 -54.630  1.00  0.00     0.015 A 
HETATM   25  C   UNL     1     -39.715  51.951 -52.617  1.00  0.00     0.014 A 
HETATM   26  C   UNL     1     -40.880  54.254 -55.262  1.00  0.00     0.020 A 
HETATM   27  C   UNL     1     -41.647  55.091 -54.485  1.00  0.00     0.117 A 
HETATM   28  C   UNL     1     -39.841  51.751 -51.249  1.00  0.00     0.004 A 
HETATM   29  C   UNL     1     -40.628  52.620 -50.506  1.00  0.00     0.039 A 
ENDBRANCH  19  20
ENDBRANCH  18  19
ENDBRANCH  17  18
ENDBRANCH  16  17
ENDBRANCH   1  16
TORSDOF 7
ENDMDL
MODEL 9
REMARK VINA RESULT:      -7.7      2.145      5.248
REMARK  7 active torsions:
REMARK  status: ('A' for Active; 'I' for Inactive)
REMARK    1  A    between atoms: C_6  and  N_7 
REMARK       I    between atoms: N_7  and  C_8 
REMARK       I    between atoms: C_8  and  N_9 
REMARK    2  A    between atoms: N_9  and  C_10 
REMARK    3  A    between atoms: C_10  and  C_11 
REMARK    4  A    between atoms: C_11  and  C_12 
REMARK    5  A    between atoms: C_12  and  C_13 
REMARK    6  A    between atoms: C_13  and  O_14 
REMARK    7  A    between atoms: O_14  and  C_15 
ROOT
HETATM    1  C   UNL     1     -43.097  58.296 -57.284  1.00  0.00     0.219 C 
ENDROOT
BRANCH   1   2
HETATM    2  N   UNL     1     -43.080  57.041 -56.582  1.00  0.00    -0.332 N 
HETATM    3  C   UNL     1     -43.188  55.873 -57.269  1.00  0.00     0.321 C 
HETATM    4  N   UNL     1     -43.131  54.716 -56.555  1.00  0.00    -0.309 N 
HETATM    5  O   UNL     1     -43.382  55.820 -58.482  1.00  0.00    -0.247 OA
HETATM    6  H   UNL     1     -43.466  53.932 -57.101  1.00  0.00     0.170 HD
HETATM    7  H   UNL     1     -43.393  57.027 -55.622  1.00  0.00     0.165 HD
BRANCH   4   8
HETATM    8  C   UNL     1     -42.531  54.403 -55.323  1.00  0.00     0.036 A 
HETATM    9  C   UNL     1     -43.226  54.297 -54.118  1.00  0.00     0.037 A 
HETATM   10  C   UNL     1     -42.551  54.054 -52.905  1.00  0.00    -0.054 A 
HETATM   11  C   UNL     1     -41.153  53.894 -52.910  1.00  0.00    -0.056 A 
HETATM   12  C   UNL     1     -43.351  53.954 -51.634  1.00  0.00     0.049 C 
HETATM   13  C   UNL     1     -40.382  53.642 -51.644  1.00  0.00     0.049 C 
HETATM   14  C   UNL     1     -40.458  54.025 -54.120  1.00  0.00     0.009 A 
HETATM   15  C   UNL     1     -41.140  54.284 -55.310  1.00  0.00     0.030 A 
ENDBRANCH   4   8
ENDBRANCH   1   2
BRANCH   1  16
HETATM   16  C   UNL     1     -43.091  59.478 -56.329  1.00  0.00    -0.085 C 
BRANCH  16  17
HETATM   17  C   UNL     1     -43.087  60.493 -55.509  1.00  0.00    -0.078 C 
BRANCH  17  18
HETATM   18  C   UNL     1     -43.083  61.674 -54.553  1.00  0.00     0.269 C 
BRANCH  18  19
HETATM   19  O   UNL     1     -42.253  61.361 -53.440  1.00  0.00    -0.337 OA
BRANCH  19  20
HETATM   20  C   UNL     1     -42.272  60.062 -52.974  1.00  0.00     0.099 A 
HETATM   21  C   UNL     1     -43.325  59.405 -52.300  1.00  0.00     0.100 A 
HETATM   22  C   UNL     1     -43.103  58.061 -51.912  1.00  0.00    -0.005 A 
HETATM   23  N   UNL     1     -44.513  59.999 -52.017  1.00  0.00    -0.257 NA
HETATM   24  C   UNL     1     -44.121  57.370 -51.237  1.00  0.00     0.015 A 
HETATM   25  C   UNL     1     -41.888  57.415 -52.189  1.00  0.00     0.014 A 
HETATM   26  C   UNL     1     -45.324  57.998 -50.959  1.00  0.00     0.020 A 
HETATM   27  C   UNL     1     -45.471  59.304 -51.366  1.00  0.00     0.117 A 
HETATM   28  C   UNL     1     -40.868  58.082 -52.854  1.00  0.00     0.004 A 
HETATM   29  C   UNL     1     -41.062  59.400 -53.243  1.00  0.00     0.039 A 
ENDBRANCH  19  20
ENDBRANCH  18  19
ENDBRANCH  17  18
ENDBRANCH  16  17
ENDBRANCH   1  16
TORSDOF 7
ENDMDL
MODEL 10
REMARK VINA RESULT:      -7.6      4.000      7.975
REMARK  7 active torsions:
REMARK  status: ('A' for Active; 'I' for Inactive)
REMARK    1  A    between atoms: C_6  and  N_7 
REMARK       I    between atoms: N_7  and  C_8 
REMARK       I    between atoms: C_8  and  N_9 
REMARK    2  A    between atoms: N_9  and  C_10 
REMARK    3  A    between atoms: C_10  and  C_11 
REMARK    4  A    between atoms: C_11  and  C_12 
REMARK    5  A    between atoms: C_12  and  C_13 
REMARK    6  A    between atoms: C_13  and  O_14 
REMARK    7  A    between atoms: O_14  and  C_15 
ROOT
HETATM    1  C   UNL     1     -40.364  58.809 -51.370  1.00  0.00     0.219 C 
ENDROOT
BRANCH   1   2
HETATM    2  N   UNL     1     -41.364  59.830 -51.218  1.00  0.00    -0.332 N 
HETATM    3  C   UNL     1     -42.334  59.981 -52.159  1.00  0.00     0.321 C 
HETATM    4  N   UNL     1     -43.274  60.941 -51.944  1.00  0.00    -0.309 N 
HETATM    5  O   UNL     1     -42.367  59.333 -53.203  1.00  0.00    -0.247 OA
HETATM    6  H   UNL     1     -43.789  61.146 -52.791  1.00  0.00     0.170 HD
HETATM    7  H   UNL     1     -41.130  60.651 -50.679  1.00  0.00     0.165 HD
BRANCH   4   8
HETATM    8  C   UNL     1     -43.767  61.523 -50.762  1.00  0.00     0.036 A 
HETATM    9  C   UNL     1     -43.446  62.811 -50.331  1.00  0.00     0.037 A 
HETATM   10  C   UNL     1     -43.915  63.306 -49.098  1.00  0.00    -0.054 A 
HETATM   11  C   UNL     1     -44.740  62.496 -48.295  1.00  0.00    -0.056 A 
HETATM   12  C   UNL     1     -43.533  64.700 -48.681  1.00  0.00     0.049 C 
HETATM   13  C   UNL     1     -45.260  62.970 -46.967  1.00  0.00     0.049 C 
HETATM   14  C   UNL     1     -45.039  61.196 -48.722  1.00  0.00     0.009 A 
HETATM   15  C   UNL     1     -44.551  60.713 -49.938  1.00  0.00     0.030 A 
ENDBRANCH   4   8
ENDBRANCH   1   2
BRANCH   1  16
HETATM   16  C   UNL     1     -40.795  57.495 -50.740  1.00  0.00    -0.085 C 
BRANCH  16  17
HETATM   17  C   UNL     1     -41.166  56.368 -50.199  1.00  0.00    -0.078 C 
BRANCH  17  18
HETATM   18  C   UNL     1     -41.598  55.053 -49.569  1.00  0.00     0.269 C 
BRANCH  18  19
HETATM   19  O   UNL     1     -42.639  54.487 -50.356  1.00  0.00    -0.337 OA
BRANCH  19  20
HETATM   20  C   UNL     1     -42.348  54.167 -51.666  1.00  0.00     0.099 A 
HETATM   21  C   UNL     1     -41.345  53.291 -52.136  1.00  0.00     0.100 A 
HETATM   22  C   UNL     1     -41.238  53.128 -53.539  1.00  0.00    -0.005 A 
HETATM   23  N   UNL     1     -40.501  52.616 -51.314  1.00  0.00    -0.257 NA
HETATM   24  C   UNL     1     -40.253  52.270 -54.052  1.00  0.00     0.015 A 
HETATM   25  C   UNL     1     -42.094  53.809 -54.419  1.00  0.00     0.014 A 
HETATM   26  C   UNL     1     -39.403  51.592 -53.193  1.00  0.00     0.020 A 
HETATM   27  C   UNL     1     -39.565  51.797 -51.842  1.00  0.00     0.117 A 
HETATM   28  C   UNL     1     -43.073  54.664 -53.932  1.00  0.00     0.004 A 
HETATM   29  C   UNL     1     -43.197  54.841 -52.561  1.00  0.00     0.039 A 
ENDBRANCH  19  20
ENDBRANCH  18  19
ENDBRANCH  17  18
ENDBRANCH  16  17
ENDBRANCH   1  16
TORSDOF 7
ENDMDL
