MODEL 1
REMARK VINA RESULT:      -8.6      0.000      0.000
REMARK  9 active torsions:
REMARK  status: ('A' for Active; 'I' for Inactive)
REMARK    1  A    between atoms: C_2  and  C_3 
REMARK    2  A    between atoms: C_8  and  O_9 
REMARK    3  A    between atoms: C_10  and  C_11 
REMARK    4  A    between atoms: C_11  and  N_12 
REMARK       I    between atoms: N_12  and  C_13 
REMARK    5  A    between atoms: N_12  and  C_23 
REMARK       I    between atoms: C_13  and  N_14 
REMARK    6  A    between atoms: N_14  and  C_15 
REMARK    7  A    between atoms: C_23  and  C_24 
REMARK    8  A    between atoms: C_24  and  C_25 
REMARK    9  A    between atoms: C_25  and  N_26 
ROOT
HETATM    1  N   UNL     1     -42.072  56.716 -54.211  1.00  0.00    -0.330 N 
HETATM    2  C   UNL     1     -42.105  55.343 -53.923  1.00  0.00     0.323 C 
HETATM    3  N   UNL     1     -40.858  54.807 -53.674  1.00  0.00    -0.309 N 
HETATM    4  O   UNL     1     -43.150  54.707 -53.971  1.00  0.00    -0.247 OA
HETATM    5  H   UNL     1     -40.081  55.404 -53.882  1.00  0.00     0.170 HD
ENDROOT
BRANCH   1   6
HETATM    6  C   UNL     1     -43.216  57.272 -54.954  1.00  0.00     0.170 C 
BRANCH   6   7
HETATM    7  C   UNL     1     -42.890  57.511 -56.403  1.00  0.00     0.013 A 
HETATM    8  C   UNL     1     -43.011  56.541 -57.378  1.00  0.00     0.170 A 
HETATM    9  N   UNL     1     -42.811  56.712 -58.696  1.00  0.00    -0.224 NA
HETATM   10  C   UNL     1     -42.451  57.942 -59.112  1.00  0.00     0.070 A 
HETATM   11  C   UNL     1     -42.258  59.010 -58.215  1.00  0.00    -0.006 A 
HETATM   12  C   UNL     1     -42.262  58.190 -60.466  1.00  0.00     0.033 A 
HETATM   13  C   UNL     1     -41.870  60.279 -58.683  1.00  0.00     0.021 A 
HETATM   14  C   UNL     1     -42.477  58.768 -56.852  1.00  0.00     0.027 A 
HETATM   15  C   UNL     1     -41.684  60.511 -60.050  1.00  0.00    -0.058 A 
HETATM   16  C   UNL     1     -41.888  59.453 -60.939  1.00  0.00     0.009 A 
BRANCH   8  17
HETATM   17  O   UNL     1     -43.345  55.258 -57.086  1.00  0.00    -0.344 OA
HETATM   18  H   UNL     1     -42.827  55.183 -56.258  1.00  0.00     0.219 HD
ENDBRANCH   8  17
BRANCH  15  19
HETATM   19  C   UNL     1     -41.264  61.870 -60.550  1.00  0.00     0.034 C 
HETATM   20  C   UNL     1     -40.297  62.557 -59.596  1.00  0.00     0.010 C 
ENDBRANCH  15  19
ENDBRANCH   6   7
ENDBRANCH   1   6
BRANCH   1  21
HETATM   21  C   UNL     1     -41.144  57.648 -53.570  1.00  0.00     0.129 C 
BRANCH  21  22
HETATM   22  C   UNL     1     -41.825  58.574 -52.563  1.00  0.00     0.048 C 
BRANCH  22  23
HETATM   23  C   UNL     1     -41.355  58.353 -51.127  1.00  0.00     0.236 C 
BRANCH  23  24
HETATM   24  N   UNL     1     -42.071  57.218 -50.424  1.00  0.00    -0.067 N 
HETATM   25  H   UNL     1     -42.308  57.498 -49.464  1.00  0.00     0.280 HD
HETATM   26  C   UNL     1     -43.397  56.907 -51.137  1.00  0.00     0.261 C 
HETATM   27  C   UNL     1     -44.098  55.725 -50.463  1.00  0.00     0.195 C 
HETATM   28  O   UNL     1     -43.253  54.573 -50.453  1.00  0.00    -0.388 OA
HETATM   29  C   UNL     1     -42.054  54.807 -49.710  1.00  0.00     0.195 C 
HETATM   30  C   UNL     1     -41.230  55.937 -50.335  1.00  0.00     0.261 C 
ENDBRANCH  23  24
ENDBRANCH  22  23
ENDBRANCH  21  22
ENDBRANCH   1  21
BRANCH   3  31
HETATM   31  C   UNL     1     -40.530  53.442 -53.525  1.00  0.00     0.036 A 
HETATM   32  C   UNL     1     -40.132  53.024 -52.246  1.00  0.00     0.031 A 
HETATM   33  C   UNL     1     -39.731  51.703 -52.018  1.00  0.00     0.026 A 
HETATM   34  C   UNL     1     -39.734  50.792 -53.068  1.00  0.00     0.034 A 
HETATM   35 CL   UNL     1     -39.222  49.174 -52.796  1.00  0.00    -0.084 Cl
HETATM   36  C   UNL     1     -40.145  51.188 -54.338  1.00  0.00     0.026 A 
HETATM   37  C   UNL     1     -40.547  52.510 -54.563  1.00  0.00     0.031 A 
ENDBRANCH   3  31
TORSDOF 9
ENDMDL
MODEL 2
REMARK VINA RESULT:      -8.5      1.495      1.883
REMARK  9 active torsions:
REMARK  status: ('A' for Active; 'I' for Inactive)
REMARK    1  A    between atoms: C_2  and  C_3 
REMARK    2  A    between atoms: C_8  and  O_9 
REMARK    3  A    between atoms: C_10  and  C_11 
REMARK    4  A    between atoms: C_11  and  N_12 
REMARK       I    between atoms: N_12  and  C_13 
REMARK    5  A    between atoms: N_12  and  C_23 
REMARK       I    between atoms: C_13  and  N_14 
REMARK    6  A    between atoms: N_14  and  C_15 
REMARK    7  A    between atoms: C_23  and  C_24 
REMARK    8  A    between atoms: C_24  and  C_25 
REMARK    9  A    between atoms: C_25  and  N_26 
ROOT
HETATM    1  N   UNL     1     -41.894  57.097 -54.081  1.00  0.00    -0.330 N 
HETATM    2  C   UNL     1     -41.991  55.734 -53.759  1.00  0.00     0.323 C 
HETATM    3  N   UNL     1     -40.766  55.132 -53.556  1.00  0.00    -0.309 N 
HETATM    4  O   UNL     1     -43.072  55.159 -53.743  1.00  0.00    -0.247 OA
HETATM    5  H   UNL     1     -39.967  55.678 -53.814  1.00  0.00     0.170 HD
ENDROOT
BRANCH   1   6
HETATM    6  C   UNL     1     -43.038  57.702 -54.783  1.00  0.00     0.170 C 
BRANCH   6   7
HETATM    7  C   UNL     1     -42.788  57.847 -56.260  1.00  0.00     0.013 A 
HETATM    8  C   UNL     1     -43.002  56.832 -57.170  1.00  0.00     0.170 A 
HETATM    9  N   UNL     1     -42.872  56.922 -58.504  1.00  0.00    -0.224 NA
HETATM   10  C   UNL     1     -42.489  58.111 -59.009  1.00  0.00     0.070 A 
HETATM   11  C   UNL     1     -42.202  59.217 -58.186  1.00  0.00    -0.006 A 
HETATM   12  C   UNL     1     -42.368  58.277 -60.383  1.00  0.00     0.033 A 
HETATM   13  C   UNL     1     -41.792  60.441 -58.746  1.00  0.00     0.021 A 
HETATM   14  C   UNL     1     -42.352  59.059 -56.801  1.00  0.00     0.027 A 
HETATM   15  C   UNL     1     -41.676  60.590 -60.132  1.00  0.00    -0.058 A 
HETATM   16  C   UNL     1     -41.972  59.495 -60.947  1.00  0.00     0.009 A 
BRANCH   8  17
HETATM   17  O   UNL     1     -43.368  55.581 -56.787  1.00  0.00    -0.344 OA
HETATM   18  H   UNL     1     -42.956  55.601 -55.900  1.00  0.00     0.219 HD
ENDBRANCH   8  17
BRANCH  15  19
HETATM   19  C   UNL     1     -41.232  61.901 -60.731  1.00  0.00     0.034 C 
HETATM   20  C   UNL     1     -40.297  62.666 -59.806  1.00  0.00     0.010 C 
ENDBRANCH  15  19
ENDBRANCH   6   7
ENDBRANCH   1   6
BRANCH   1  21
HETATM   21  C   UNL     1     -40.884  57.987 -53.508  1.00  0.00     0.129 C 
BRANCH  21  22
HETATM   22  C   UNL     1     -41.437  59.365 -53.146  1.00  0.00     0.048 C 
BRANCH  22  23
HETATM   23  C   UNL     1     -41.920  59.461 -51.701  1.00  0.00     0.236 C 
BRANCH  23  24
HETATM   24  N   UNL     1     -43.428  59.492 -51.568  1.00  0.00    -0.067 N 
HETATM   25  H   UNL     1     -43.848  59.802 -52.453  1.00  0.00     0.280 HD
HETATM   26  C   UNL     1     -43.964  58.078 -51.293  1.00  0.00     0.261 C 
HETATM   27  C   UNL     1     -45.483  58.112 -51.104  1.00  0.00     0.195 C 
HETATM   28  O   UNL     1     -45.841  58.999 -50.043  1.00  0.00    -0.388 OA
HETATM   29  C   UNL     1     -45.440  60.343 -50.321  1.00  0.00     0.195 C 
HETATM   30  C   UNL     1     -43.917  60.444 -50.468  1.00  0.00     0.261 C 
ENDBRANCH  23  24
ENDBRANCH  22  23
ENDBRANCH  21  22
ENDBRANCH   1  21
BRANCH   3  31
HETATM   31  C   UNL     1     -40.509  53.754 -53.389  1.00  0.00     0.036 A 
HETATM   32  C   UNL     1     -40.247  53.313 -52.083  1.00  0.00     0.031 A 
HETATM   33  C   UNL     1     -39.924  51.976 -51.831  1.00  0.00     0.026 A 
HETATM   34  C   UNL     1     -39.869  51.070 -52.885  1.00  0.00     0.034 A 
HETATM   35 CL   UNL     1     -39.452  49.431 -52.580  1.00  0.00    -0.084 Cl
HETATM   36  C   UNL     1     -40.147  51.490 -54.183  1.00  0.00     0.026 A 
HETATM   37  C   UNL     1     -40.471  52.828 -54.432  1.00  0.00     0.031 A 
ENDBRANCH   3  31
TORSDOF 9
ENDMDL
MODEL 3
REMARK VINA RESULT:      -8.0      2.515      3.589
REMARK  9 active torsions:
REMARK  status: ('A' for Active; 'I' for Inactive)
REMARK    1  A    between atoms: C_2  and  C_3 
REMARK    2  A    between atoms: C_8  and  O_9 
REMARK    3  A    between atoms: C_10  and  C_11 
REMARK    4  A    between atoms: C_11  and  N_12 
REMARK       I    between atoms: N_12  and  C_13 
REMARK    5  A    between atoms: N_12  and  C_23 
REMARK       I    between atoms: C_13  and  N_14 
REMARK    6  A    between atoms: N_14  and  C_15 
REMARK    7  A    between atoms: C_23  and  C_24 
REMARK    8  A    between atoms: C_24  and  C_25 
REMARK    9  A    between atoms: C_25  and  N_26 
ROOT
HETATM    1  N   UNL     1     -42.083  57.366 -53.176  1.00  0.00    -0.330 N 
HETATM    2  C   UNL     1     -42.151  55.965 -53.155  1.00  0.00     0.323 C 
HETATM    3  N   UNL     1     -40.921  55.360 -52.993  1.00  0.00    -0.309 N 
HETATM    4  O   UNL     1     -43.209  55.376 -53.340  1.00  0.00    -0.247 OA
HETATM    5  H   UNL     1     -40.128  55.966 -53.071  1.00  0.00     0.170 HD
ENDROOT
BRANCH   1   6
HETATM    6  C   UNL     1     -43.199  58.082 -53.817  1.00  0.00     0.170 C 
BRANCH   6   7
HETATM    7  C   UNL     1     -43.007  58.218 -55.304  1.00  0.00     0.013 A 
HETATM    8  C   UNL     1     -42.195  59.174 -55.880  1.00  0.00     0.170 A 
HETATM    9  N   UNL     1     -41.922  59.298 -57.190  1.00  0.00    -0.224 NA
HETATM   10  C   UNL     1     -42.498  58.413 -58.028  1.00  0.00     0.070 A 
HETATM   11  C   UNL     1     -43.376  57.412 -57.572  1.00  0.00    -0.006 A 
HETATM   12  C   UNL     1     -42.228  58.470 -59.389  1.00  0.00     0.033 A 
HETATM   13  C   UNL     1     -43.969  56.512 -58.477  1.00  0.00     0.021 A 
HETATM   14  C   UNL     1     -43.625  57.337 -56.195  1.00  0.00     0.027 A 
HETATM   15  C   UNL     1     -43.686  56.583 -59.844  1.00  0.00    -0.058 A 
HETATM   16  C   UNL     1     -42.806  57.570 -60.293  1.00  0.00     0.009 A 
BRANCH   8  17
HETATM   17  O   UNL     1     -41.576  60.136 -55.148  1.00  0.00    -0.344 OA
HETATM   18  H   UNL     1     -40.807  60.263 -55.740  1.00  0.00     0.219 HD
ENDBRANCH   8  17
BRANCH  15  19
HETATM   19  C   UNL     1     -44.326  55.620 -60.813  1.00  0.00     0.034 C 
HETATM   20  C   UNL     1     -44.945  54.423 -60.107  1.00  0.00     0.010 C 
ENDBRANCH  15  19
ENDBRANCH   6   7
ENDBRANCH   1   6
BRANCH   1  21
HETATM   21  C   UNL     1     -41.149  58.136 -52.355  1.00  0.00     0.129 C 
BRANCH  21  22
HETATM   22  C   UNL     1     -41.746  58.573 -51.018  1.00  0.00     0.048 C 
BRANCH  22  23
HETATM   23  C   UNL     1     -41.955  60.082 -50.915  1.00  0.00     0.236 C 
BRANCH  23  24
HETATM   24  N   UNL     1     -43.412  60.494 -50.937  1.00  0.00    -0.067 N 
HETATM   25  H   UNL     1     -43.639  60.918 -51.845  1.00  0.00     0.280 HD
HETATM   26  C   UNL     1     -44.314  59.257 -50.786  1.00  0.00     0.261 C 
HETATM   27  C   UNL     1     -45.786  59.674 -50.754  1.00  0.00     0.195 C 
HETATM   28  O   UNL     1     -46.027  60.602 -49.694  1.00  0.00    -0.388 OA
HETATM   29  C   UNL     1     -45.272  61.804 -49.865  1.00  0.00     0.195 C 
HETATM   30  C   UNL     1     -43.767  61.516 -49.849  1.00  0.00     0.261 C 
ENDBRANCH  23  24
ENDBRANCH  22  23
ENDBRANCH  21  22
ENDBRANCH   1  21
BRANCH   3  31
HETATM   31  C   UNL     1     -40.626  53.984 -53.101  1.00  0.00     0.036 A 
HETATM   32  C   UNL     1     -40.230  53.328 -51.926  1.00  0.00     0.031 A 
HETATM   33  C   UNL     1     -39.861  51.979 -51.949  1.00  0.00     0.026 A 
HETATM   34  C   UNL     1     -39.893  51.277 -53.149  1.00  0.00     0.034 A 
HETATM   35 CL   UNL     1     -39.419  49.625 -53.185  1.00  0.00    -0.084 Cl
HETATM   36  C   UNL     1     -40.303  51.910 -54.319  1.00  0.00     0.026 A 
HETATM   37  C   UNL     1     -40.673  53.260 -54.293  1.00  0.00     0.031 A 
ENDBRANCH   3  31
TORSDOF 9
ENDMDL
MODEL 4
REMARK VINA RESULT:      -7.8      3.847      8.139
REMARK  9 active torsions:
REMARK  status: ('A' for Active; 'I' for Inactive)
REMARK    1  A    between atoms: C_2  and  C_3 
REMARK    2  A    between atoms: C_8  and  O_9 
REMARK    3  A    between atoms: C_10  and  C_11 
REMARK    4  A    between atoms: C_11  and  N_12 
REMARK       I    between atoms: N_12  and  C_13 
REMARK    5  A    between atoms: N_12  and  C_23 
REMARK       I    between atoms: C_13  and  N_14 
REMARK    6  A    between atoms: N_14  and  C_15 
REMARK    7  A    between atoms: C_23  and  C_24 
REMARK    8  A    between atoms: C_24  and  C_25 
REMARK    9  A    between atoms: C_25  and  N_26 
ROOT
HETATM    1  N   UNL     1     -42.868  58.090 -53.397  1.00  0.00    -0.330 N 
HETATM    2  C   UNL     1     -42.395  58.713 -54.562  1.00  0.00     0.323 C 
HETATM    3  N   UNL     1     -43.034  58.286 -55.709  1.00  0.00    -0.309 N 
HETATM    4  O   UNL     1     -41.455  59.497 -54.528  1.00  0.00    -0.247 OA
HETATM    5  H   UNL     1     -43.629  57.488 -55.601  1.00  0.00     0.170 HD
ENDROOT
BRANCH   1   6
HETATM    6  C   UNL     1     -41.971  58.083 -52.230  1.00  0.00     0.170 C 
BRANCH   6   7
HETATM    7  C   UNL     1     -41.439  56.708 -51.930  1.00  0.00     0.013 A 
HETATM    8  C   UNL     1     -41.164  56.262 -50.652  1.00  0.00     0.170 A 
HETATM    9  N   UNL     1     -40.763  55.025 -50.313  1.00  0.00    -0.224 NA
HETATM   10  C   UNL     1     -40.604  54.132 -51.310  1.00  0.00     0.070 A 
HETATM   11  C   UNL     1     -40.816  54.470 -52.660  1.00  0.00    -0.006 A 
HETATM   12  C   UNL     1     -40.223  52.828 -51.019  1.00  0.00     0.033 A 
HETATM   13  C   UNL     1     -40.629  53.514 -53.676  1.00  0.00     0.021 A 
HETATM   14  C   UNL     1     -41.229  55.777 -52.951  1.00  0.00     0.027 A 
HETATM   15  C   UNL     1     -40.246  52.206 -53.366  1.00  0.00    -0.058 A 
HETATM   16  C   UNL     1     -40.047  51.870 -52.024  1.00  0.00     0.009 A 
BRANCH   8  17
HETATM   17  O   UNL     1     -41.262  57.070 -49.566  1.00  0.00    -0.344 OA
HETATM   18  H   UNL     1     -41.551  56.384 -48.930  1.00  0.00     0.219 HD
ENDBRANCH   8  17
BRANCH  15  19
HETATM   19  C   UNL     1     -40.041  51.185 -54.456  1.00  0.00     0.034 C 
HETATM   20  C   UNL     1     -39.620  49.831 -53.903  1.00  0.00     0.010 C 
ENDBRANCH  15  19
ENDBRANCH   6   7
ENDBRANCH   1   6
BRANCH   1  21
HETATM   21  C   UNL     1     -44.272  57.730 -53.194  1.00  0.00     0.129 C 
BRANCH  21  22
HETATM   22  C   UNL     1     -44.871  58.348 -51.931  1.00  0.00     0.048 C 
BRANCH  22  23
HETATM   23  C   UNL     1     -45.108  59.852 -52.049  1.00  0.00     0.236 C 
BRANCH  23  24
HETATM   24  N   UNL     1     -45.419  60.521 -50.726  1.00  0.00    -0.067 N 
HETATM   25  H   UNL     1     -45.874  59.849 -50.096  1.00  0.00     0.280 HD
HETATM   26  C   UNL     1     -44.117  60.964 -50.039  1.00  0.00     0.261 C 
HETATM   27  C   UNL     1     -44.428  61.688 -48.727  1.00  0.00     0.195 C 
HETATM   28  O   UNL     1     -45.280  62.813 -48.959  1.00  0.00    -0.388 OA
HETATM   29  C   UNL     1     -46.538  62.415 -49.508  1.00  0.00     0.195 C 
HETATM   30  C   UNL     1     -46.355  61.729 -50.866  1.00  0.00     0.261 C 
ENDBRANCH  23  24
ENDBRANCH  22  23
ENDBRANCH  21  22
ENDBRANCH   1  21
BRANCH   3  31
HETATM   31  C   UNL     1     -42.683  58.583 -57.043  1.00  0.00     0.036 A 
HETATM   32  C   UNL     1     -42.883  59.905 -57.470  1.00  0.00     0.031 A 
HETATM   33  C   UNL     1     -42.618  60.277 -58.792  1.00  0.00     0.026 A 
HETATM   34  C   UNL     1     -42.145  59.329 -59.693  1.00  0.00     0.034 A 
HETATM   35 CL   UNL     1     -41.840  59.779 -61.323  1.00  0.00    -0.084 Cl
HETATM   36  C   UNL     1     -41.923  58.019 -59.277  1.00  0.00     0.026 A 
HETATM   37  C   UNL     1     -42.187  57.649 -57.953  1.00  0.00     0.031 A 
ENDBRANCH   3  31
TORSDOF 9
ENDMDL
MODEL 5
REMARK VINA RESULT:      -7.8     15.929     18.488
REMARK  9 active torsions:
REMARK  status: ('A' for Active; 'I' for Inactive)
REMARK    1  A    between atoms: C_2  and  C_3 
REMARK    2  A    between atoms: C_8  and  O_9 
REMARK    3  A    between atoms: C_10  and  C_11 
REMARK    4  A    between atoms: C_11  and  N_12 
REMARK       I    between atoms: N_12  and  C_13 
REMARK    5  A    between atoms: N_12  and  C_23 
REMARK       I    between atoms: C_13  and  N_14 
REMARK    6  A    between atoms: N_14  and  C_15 
REMARK    7  A    between atoms: C_23  and  C_24 
REMARK    8  A    between atoms: C_24  and  C_25 
REMARK    9  A    between atoms: C_25  and  N_26 
ROOT
HETATM    1  N   UNL     1     -36.194  39.781 -51.479  1.00  0.00    -0.330 N 
HETATM    2  C   UNL     1     -35.014  40.037 -50.763  1.00  0.00     0.323 C 
HETATM    3  N   UNL     1     -34.579  38.958 -50.022  1.00  0.00    -0.309 N 
HETATM    4  O   UNL     1     -34.496  41.147 -50.767  1.00  0.00    -0.247 OA
HETATM    5  H   UNL     1     -35.222  38.194 -49.951  1.00  0.00     0.170 HD
ENDROOT
BRANCH   1   6
HETATM    6  C   UNL     1     -36.997  40.946 -51.886  1.00  0.00     0.170 C 
BRANCH   6   7
HETATM    7  C   UNL     1     -36.764  41.323 -53.324  1.00  0.00     0.013 A 
HETATM    8  C   UNL     1     -35.826  42.254 -53.723  1.00  0.00     0.170 A 
HETATM    9  N   UNL     1     -35.518  42.576 -54.991  1.00  0.00    -0.224 NA
HETATM   10  C   UNL     1     -36.189  41.939 -55.971  1.00  0.00     0.070 A 
HETATM   11  C   UNL     1     -37.197  40.995 -55.698  1.00  0.00    -0.006 A 
HETATM   12  C   UNL     1     -35.892  42.205 -57.302  1.00  0.00     0.033 A 
HETATM   13  C   UNL     1     -37.886  40.358 -56.747  1.00  0.00     0.021 A 
HETATM   14  C   UNL     1     -37.476  40.705 -54.356  1.00  0.00     0.027 A 
HETATM   15  C   UNL     1     -37.574  40.637 -58.081  1.00  0.00    -0.058 A 
HETATM   16  C   UNL     1     -36.566  41.567 -58.349  1.00  0.00     0.009 A 
BRANCH   8  17
HETATM   17  O   UNL     1     -35.101  42.979 -52.833  1.00  0.00    -0.344 OA
HETATM   18  H   UNL     1     -34.659  42.223 -52.394  1.00  0.00     0.219 HD
ENDBRANCH   8  17
BRANCH  15  19
HETATM   19  C   UNL     1     -38.316  39.957 -59.204  1.00  0.00     0.034 C 
HETATM   20  C   UNL     1     -38.582  38.489 -58.908  1.00  0.00     0.010 C 
ENDBRANCH  15  19
ENDBRANCH   6   7
ENDBRANCH   1   6
BRANCH   1  21
HETATM   21  C   UNL     1     -36.498  38.485 -52.085  1.00  0.00     0.129 C 
BRANCH  21  22
HETATM   22  C   UNL     1     -35.267  37.791 -52.666  1.00  0.00     0.048 C 
BRANCH  22  23
HETATM   23  C   UNL     1     -35.091  38.027 -54.164  1.00  0.00     0.236 C 
BRANCH  23  24
HETATM   24  N   UNL     1     -34.162  39.178 -54.491  1.00  0.00    -0.067 N 
HETATM   25  H   UNL     1     -34.634  40.070 -54.298  1.00  0.00     0.280 HD
HETATM   26  C   UNL     1     -32.919  39.127 -53.587  1.00  0.00     0.261 C 
HETATM   27  C   UNL     1     -31.952  40.256 -53.950  1.00  0.00     0.195 C 
HETATM   28  O   UNL     1     -31.575  40.177 -55.327  1.00  0.00    -0.388 OA
HETATM   29  C   UNL     1     -32.704  40.321 -56.191  1.00  0.00     0.195 C 
HETATM   30  C   UNL     1     -33.721  39.198 -55.960  1.00  0.00     0.261 C 
ENDBRANCH  23  24
ENDBRANCH  22  23
ENDBRANCH  21  22
ENDBRANCH   1  21
BRANCH   3  31
HETATM   31  C   UNL     1     -33.537  38.941 -49.070  1.00  0.00     0.036 A 
HETATM   32  C   UNL     1     -33.731  38.141 -47.934  1.00  0.00     0.031 A 
HETATM   33  C   UNL     1     -32.779  38.109 -46.910  1.00  0.00     0.026 A 
HETATM   34  C   UNL     1     -31.622  38.872 -47.022  1.00  0.00     0.034 A 
HETATM   35 CL   UNL     1     -30.460  38.850 -45.756  1.00  0.00    -0.084 Cl
HETATM   36  C   UNL     1     -31.407  39.655 -48.153  1.00  0.00     0.026 A 
HETATM   37  C   UNL     1     -32.361  39.684 -49.177  1.00  0.00     0.031 A 
ENDBRANCH   3  31
TORSDOF 9
ENDMDL
MODEL 6
REMARK VINA RESULT:      -7.7      3.472      8.021
REMARK  9 active torsions:
REMARK  status: ('A' for Active; 'I' for Inactive)
REMARK    1  A    between atoms: C_2  and  C_3 
REMARK    2  A    between atoms: C_8  and  O_9 
REMARK    3  A    between atoms: C_10  and  C_11 
REMARK    4  A    between atoms: C_11  and  N_12 
REMARK       I    between atoms: N_12  and  C_13 
REMARK    5  A    between atoms: N_12  and  C_23 
REMARK       I    between atoms: C_13  and  N_14 
REMARK    6  A    between atoms: N_14  and  C_15 
REMARK    7  A    between atoms: C_23  and  C_24 
REMARK    8  A    between atoms: C_24  and  C_25 
REMARK    9  A    between atoms: C_25  and  N_26 
ROOT
HETATM    1  N   UNL     1     -43.303  57.553 -52.457  1.00  0.00    -0.330 N 
HETATM    2  C   UNL     1     -43.022  57.777 -53.814  1.00  0.00     0.323 C 
HETATM    3  N   UNL     1     -43.990  57.280 -54.663  1.00  0.00    -0.309 N 
HETATM    4  O   UNL     1     -41.973  58.302 -54.168  1.00  0.00    -0.247 OA
HETATM    5  H   UNL     1     -44.678  56.691 -54.236  1.00  0.00     0.170 HD
ENDROOT
BRANCH   1   6
HETATM    6  C   UNL     1     -42.164  57.582 -51.524  1.00  0.00     0.170 C 
BRANCH   6   7
HETATM    7  C   UNL     1     -41.515  56.233 -51.377  1.00  0.00     0.013 A 
HETATM    8  C   UNL     1     -41.143  55.698 -50.159  1.00  0.00     0.170 A 
HETATM    9  N   UNL     1     -40.632  54.472 -49.955  1.00  0.00    -0.224 NA
HETATM   10  C   UNL     1     -40.457  53.687 -51.036  1.00  0.00     0.070 A 
HETATM   11  C   UNL     1     -40.761  54.126 -52.339  1.00  0.00    -0.006 A 
HETATM   12  C   UNL     1     -39.963  52.397 -50.885  1.00  0.00     0.033 A 
HETATM   13  C   UNL     1     -40.554  53.284 -53.446  1.00  0.00     0.021 A 
HETATM   14  C   UNL     1     -41.287  55.417 -52.488  1.00  0.00     0.027 A 
HETATM   15  C   UNL     1     -40.057  51.988 -53.276  1.00  0.00    -0.058 A 
HETATM   16  C   UNL     1     -39.766  51.550 -51.982  1.00  0.00     0.009 A 
BRANCH   8  17
HETATM   17  O   UNL     1     -41.247  56.395 -48.999  1.00  0.00    -0.344 OA
HETATM   18  H   UNL     1     -40.311  56.312 -48.723  1.00  0.00     0.219 HD
ENDBRANCH   8  17
BRANCH  15  19
HETATM   19  C   UNL     1     -39.831  51.088 -54.465  1.00  0.00     0.034 C 
HETATM   20  C   UNL     1     -39.485  49.666 -54.049  1.00  0.00     0.010 C 
ENDBRANCH  15  19
ENDBRANCH   6   7
ENDBRANCH   1   6
BRANCH   1  21
HETATM   21  C   UNL     1     -44.655  57.593 -51.901  1.00  0.00     0.129 C 
BRANCH  21  22
HETATM   22  C   UNL     1     -44.922  58.844 -51.065  1.00  0.00     0.048 C 
BRANCH  22  23
HETATM   23  C   UNL     1     -45.740  59.901 -51.804  1.00  0.00     0.236 C 
BRANCH  23  24
HETATM   24  N   UNL     1     -45.004  60.531 -52.968  1.00  0.00    -0.067 N 
HETATM   25  H   UNL     1     -44.735  59.804 -53.643  1.00  0.00     0.280 HD
HETATM   26  C   UNL     1     -45.928  61.510 -53.711  1.00  0.00     0.261 C 
HETATM   27  C   UNL     1     -45.172  62.189 -54.856  1.00  0.00     0.195 C 
HETATM   28  O   UNL     1     -44.014  62.868 -54.365  1.00  0.00    -0.388 OA
HETATM   29  C   UNL     1     -43.092  61.962 -53.756  1.00  0.00     0.195 C 
HETATM   30  C   UNL     1     -43.723  61.263 -52.546  1.00  0.00     0.261 C 
ENDBRANCH  23  24
ENDBRANCH  22  23
ENDBRANCH  21  22
ENDBRANCH   1  21
BRANCH   3  31
HETATM   31  C   UNL     1     -43.926  57.190 -56.070  1.00  0.00     0.036 A 
HETATM   32  C   UNL     1     -44.753  58.060 -56.797  1.00  0.00     0.031 A 
HETATM   33  C   UNL     1     -44.800  58.001 -58.193  1.00  0.00     0.026 A 
HETATM   34  C   UNL     1     -44.014  57.074 -58.871  1.00  0.00     0.034 A 
HETATM   35 CL   UNL     1     -44.087  56.985 -60.586  1.00  0.00    -0.084 Cl
HETATM   36  C   UNL     1     -43.176  56.218 -58.163  1.00  0.00     0.026 A 
HETATM   37  C   UNL     1     -43.128  56.280 -56.765  1.00  0.00     0.031 A 
ENDBRANCH   3  31
TORSDOF 9
ENDMDL
MODEL 7
REMARK VINA RESULT:      -7.6      2.908      4.147
REMARK  9 active torsions:
REMARK  status: ('A' for Active; 'I' for Inactive)
REMARK    1  A    between atoms: C_2  and  C_3 
REMARK    2  A    between atoms: C_8  and  O_9 
REMARK    3  A    between atoms: C_10  and  C_11 
REMARK    4  A    between atoms: C_11  and  N_12 
REMARK       I    between atoms: N_12  and  C_13 
REMARK    5  A    between atoms: N_12  and  C_23 
REMARK       I    between atoms: C_13  and  N_14 
REMARK    6  A    between atoms: N_14  and  C_15 
REMARK    7  A    between atoms: C_23  and  C_24 
REMARK    8  A    between atoms: C_24  and  C_25 
REMARK    9  A    between atoms: C_25  and  N_26 
ROOT
HETATM    1  N   UNL     1     -42.584  56.890 -52.686  1.00  0.00    -0.330 N 
HETATM    2  C   UNL     1     -42.352  55.525 -52.452  1.00  0.00     0.323 C 
HETATM    3  N   UNL     1     -41.094  55.110 -52.837  1.00  0.00    -0.309 N 
HETATM    4  O   UNL     1     -43.234  54.796 -52.016  1.00  0.00    -0.247 OA
HETATM    5  H   UNL     1     -40.566  55.771 -53.373  1.00  0.00     0.170 HD
ENDROOT
BRANCH   1   6
HETATM    6  C   UNL     1     -43.987  57.323 -52.784  1.00  0.00     0.170 C 
BRANCH   6   7
HETATM    7  C   UNL     1     -44.360  57.730 -54.184  1.00  0.00     0.013 A 
HETATM    8  C   UNL     1     -45.107  58.854 -54.475  1.00  0.00     0.170 A 
HETATM    9  N   UNL     1     -45.406  59.312 -55.702  1.00  0.00    -0.224 NA
HETATM   10  C   UNL     1     -44.944  58.608 -56.754  1.00  0.00     0.070 A 
HETATM   11  C   UNL     1     -44.201  57.422 -56.594  1.00  0.00    -0.006 A 
HETATM   12  C   UNL     1     -45.192  59.049 -58.048  1.00  0.00     0.033 A 
HETATM   13  C   UNL     1     -43.744  56.706 -57.716  1.00  0.00     0.021 A 
HETATM   14  C   UNL     1     -43.926  56.993 -55.289  1.00  0.00     0.027 A 
HETATM   15  C   UNL     1     -44.003  57.164 -59.012  1.00  0.00    -0.058 A 
HETATM   16  C   UNL     1     -44.730  58.347 -59.167  1.00  0.00     0.009 A 
BRANCH   8  17
HETATM   17  O   UNL     1     -45.649  59.635 -53.505  1.00  0.00    -0.344 OA
HETATM   18  H   UNL     1     -46.549  59.694 -53.886  1.00  0.00     0.219 HD
ENDBRANCH   8  17
BRANCH  15  19
HETATM   19  C   UNL     1     -43.516  56.393 -60.213  1.00  0.00     0.034 C 
HETATM   20  C   UNL     1     -44.621  55.558 -60.843  1.00  0.00     0.010 C 
ENDBRANCH  15  19
ENDBRANCH   6   7
ENDBRANCH   1   6
BRANCH   1  21
HETATM   21  C   UNL     1     -41.551  57.915 -52.538  1.00  0.00     0.129 C 
BRANCH  21  22
HETATM   22  C   UNL     1     -41.904  58.975 -51.496  1.00  0.00     0.048 C 
BRANCH  22  23
HETATM   23  C   UNL     1     -42.175  60.350 -52.101  1.00  0.00     0.236 C 
BRANCH  23  24
HETATM   24  N   UNL     1     -43.584  60.852 -51.859  1.00  0.00    -0.067 N 
HETATM   25  H   UNL     1     -44.231  60.397 -52.514  1.00  0.00     0.280 HD
HETATM   26  C   UNL     1     -44.044  60.472 -50.441  1.00  0.00     0.261 C 
HETATM   27  C   UNL     1     -45.446  61.023 -50.173  1.00  0.00     0.195 C 
HETATM   28  O   UNL     1     -45.474  62.442 -50.345  1.00  0.00    -0.388 OA
HETATM   29  C   UNL     1     -45.145  62.815 -51.685  1.00  0.00     0.195 C 
HETATM   30  C   UNL     1     -43.725  62.368 -52.049  1.00  0.00     0.261 C 
ENDBRANCH  23  24
ENDBRANCH  22  23
ENDBRANCH  21  22
ENDBRANCH   1  21
BRANCH   3  31
HETATM   31  C   UNL     1     -40.613  53.784 -52.896  1.00  0.00     0.036 A 
HETATM   32  C   UNL     1     -40.692  53.138 -54.139  1.00  0.00     0.031 A 
HETATM   33  C   UNL     1     -40.295  51.804 -54.278  1.00  0.00     0.026 A 
HETATM   34  C   UNL     1     -39.808  51.112 -53.174  1.00  0.00     0.034 A 
HETATM   35 CL   UNL     1     -39.340  49.466 -53.337  1.00  0.00    -0.084 Cl
HETATM   36  C   UNL     1     -39.706  51.747 -51.940  1.00  0.00     0.026 A 
HETATM   37  C   UNL     1     -40.103  53.082 -51.803  1.00  0.00     0.031 A 
ENDBRANCH   3  31
TORSDOF 9
ENDMDL
MODEL 8
REMARK VINA RESULT:      -7.6      3.760      8.881
REMARK  9 active torsions:
REMARK  status: ('A' for Active; 'I' for Inactive)
REMARK    1  A    between atoms: C_2  and  C_3 
REMARK    2  A    between atoms: C_8  and  O_9 
REMARK    3  A    between atoms: C_10  and  C_11 
REMARK    4  A    between atoms: C_11  and  N_12 
REMARK       I    between atoms: N_12  and  C_13 
REMARK    5  A    between atoms: N_12  and  C_23 
REMARK       I    between atoms: C_13  and  N_14 
REMARK    6  A    between atoms: N_14  and  C_15 
REMARK    7  A    between atoms: C_23  and  C_24 
REMARK    8  A    between atoms: C_24  and  C_25 
REMARK    9  A    between atoms: C_25  and  N_26 
ROOT
HETATM    1  N   UNL     1     -43.742  57.904 -54.768  1.00  0.00    -0.330 N 
HETATM    2  C   UNL     1     -44.096  58.861 -53.805  1.00  0.00     0.323 C 
HETATM    3  N   UNL     1     -43.165  59.871 -53.670  1.00  0.00    -0.309 N 
HETATM    4  O   UNL     1     -45.105  58.735 -53.123  1.00  0.00    -0.247 OA
HETATM    5  H   UNL     1     -42.294  59.722 -54.142  1.00  0.00     0.170 HD
ENDROOT
BRANCH   1   6
HETATM    6  C   UNL     1     -44.370  56.576 -54.655  1.00  0.00     0.170 C 
BRANCH   6   7
HETATM    7  C   UNL     1     -43.412  55.537 -54.139  1.00  0.00     0.013 A 
HETATM    8  C   UNL     1     -43.031  54.428 -54.868  1.00  0.00     0.170 A 
HETATM    9  N   UNL     1     -42.125  53.508 -54.496  1.00  0.00    -0.224 NA
HETATM   10  C   UNL     1     -41.532  53.673 -53.297  1.00  0.00     0.070 A 
HETATM   11  C   UNL     1     -41.859  54.742 -52.441  1.00  0.00    -0.006 A 
HETATM   12  C   UNL     1     -40.563  52.774 -52.872  1.00  0.00     0.033 A 
HETATM   13  C   UNL     1     -41.228  54.877 -51.190  1.00  0.00     0.021 A 
HETATM   14  C   UNL     1     -42.815  55.666 -52.882  1.00  0.00     0.027 A 
HETATM   15  C   UNL     1     -40.254  53.962 -50.778  1.00  0.00    -0.058 A 
HETATM   16  C   UNL     1     -39.924  52.909 -51.634  1.00  0.00     0.009 A 
BRANCH   8  17
HETATM   17  O   UNL     1     -43.571  54.136 -56.079  1.00  0.00    -0.344 OA
HETATM   18  H   UNL     1     -43.082  54.810 -56.595  1.00  0.00     0.219 HD
ENDBRANCH   8  17
BRANCH  15  19
HETATM   19  C   UNL     1     -39.583  54.106 -49.435  1.00  0.00     0.034 C 
HETATM   20  C   UNL     1     -40.589  54.309 -48.311  1.00  0.00     0.010 C 
ENDBRANCH  15  19
ENDBRANCH   6   7
ENDBRANCH   1   6
BRANCH   1  21
HETATM   21  C   UNL     1     -43.045  58.235 -56.011  1.00  0.00     0.129 C 
BRANCH  21  22
HETATM   22  C   UNL     1     -43.993  58.468 -57.186  1.00  0.00     0.048 C 
BRANCH  22  23
HETATM   23  C   UNL     1     -43.298  58.397 -58.545  1.00  0.00     0.236 C 
BRANCH  23  24
HETATM   24  N   UNL     1     -43.898  57.365 -59.478  1.00  0.00    -0.067 N 
HETATM   25  H   UNL     1     -43.538  57.506 -60.429  1.00  0.00     0.280 HD
HETATM   26  C   UNL     1     -43.475  55.951 -59.046  1.00  0.00     0.261 C 
HETATM   27  C   UNL     1     -44.122  54.903 -59.953  1.00  0.00     0.195 C 
HETATM   28  O   UNL     1     -45.546  55.027 -59.934  1.00  0.00    -0.388 OA
HETATM   29  C   UNL     1     -45.970  56.300 -60.426  1.00  0.00     0.195 C 
HETATM   30  C   UNL     1     -45.430  57.436 -59.550  1.00  0.00     0.261 C 
ENDBRANCH  23  24
ENDBRANCH  22  23
ENDBRANCH  21  22
ENDBRANCH   1  21
BRANCH   3  31
HETATM   31  C   UNL     1     -43.136  60.879 -52.683  1.00  0.00     0.036 A 
HETATM   32  C   UNL     1     -43.361  62.195 -53.116  1.00  0.00     0.031 A 
HETATM   33  C   UNL     1     -43.293  63.264 -52.218  1.00  0.00     0.026 A 
HETATM   34  C   UNL     1     -43.005  63.023 -50.879  1.00  0.00     0.034 A 
HETATM   35 CL   UNL     1     -42.899  64.338 -49.778  1.00  0.00    -0.084 Cl
HETATM   36  C   UNL     1     -42.798  61.721 -50.432  1.00  0.00     0.026 A 
HETATM   37  C   UNL     1     -42.869  60.651 -51.332  1.00  0.00     0.031 A 
ENDBRANCH   3  31
TORSDOF 9
ENDMDL
MODEL 9
REMARK VINA RESULT:      -7.5      4.253      7.019
REMARK  9 active torsions:
REMARK  status: ('A' for Active; 'I' for Inactive)
REMARK    1  A    between atoms: C_2  and  C_3 
REMARK    2  A    between atoms: C_8  and  O_9 
REMARK    3  A    between atoms: C_10  and  C_11 
REMARK    4  A    between atoms: C_11  and  N_12 
REMARK       I    between atoms: N_12  and  C_13 
REMARK    5  A    between atoms: N_12  and  C_23 
REMARK       I    between atoms: C_13  and  N_14 
REMARK    6  A    between atoms: N_14  and  C_15 
REMARK    7  A    between atoms: C_23  and  C_24 
REMARK    8  A    between atoms: C_24  and  C_25 
REMARK    9  A    between atoms: C_25  and  N_26 
ROOT
HETATM    1  N   UNL     1     -42.320  57.887 -51.774  1.00  0.00    -0.330 N 
HETATM    2  C   UNL     1     -42.702  59.165 -51.338  1.00  0.00     0.323 C 
HETATM    3  N   UNL     1     -43.979  59.205 -50.817  1.00  0.00    -0.309 N 
HETATM    4  O   UNL     1     -41.971  60.135 -51.491  1.00  0.00    -0.247 OA
HETATM    5  H   UNL     1     -44.529  58.381 -50.956  1.00  0.00     0.170 HD
ENDROOT
BRANCH   1   6
HETATM    6  C   UNL     1     -41.230  57.815 -52.763  1.00  0.00     0.170 C 
BRANCH   6   7
HETATM    7  C   UNL     1     -41.736  57.933 -54.175  1.00  0.00     0.013 A 
HETATM    8  C   UNL     1     -41.763  59.123 -54.875  1.00  0.00     0.170 A 
HETATM    9  N   UNL     1     -42.128  59.280 -56.158  1.00  0.00    -0.224 NA
HETATM   10  C   UNL     1     -42.513  58.177 -56.831  1.00  0.00     0.070 A 
HETATM   11  C   UNL     1     -42.566  56.908 -56.222  1.00  0.00    -0.006 A 
HETATM   12  C   UNL     1     -42.870  58.270 -58.170  1.00  0.00     0.033 A 
HETATM   13  C   UNL     1     -42.984  55.780 -56.952  1.00  0.00     0.021 A 
HETATM   14  C   UNL     1     -42.177  56.810 -54.880  1.00  0.00     0.027 A 
HETATM   15  C   UNL     1     -43.340  55.891 -58.300  1.00  0.00    -0.058 A 
HETATM   16  C   UNL     1     -43.276  57.149 -58.904  1.00  0.00     0.009 A 
BRANCH   8  17
HETATM   17  O   UNL     1     -41.422  60.307 -54.304  1.00  0.00    -0.344 OA
HETATM   18  H   UNL     1     -41.978  60.220 -53.503  1.00  0.00     0.219 HD
ENDBRANCH   8  17
BRANCH  15  19
HETATM   19  C   UNL     1     -43.792  54.682 -59.079  1.00  0.00     0.034 C 
HETATM   20  C   UNL     1     -44.877  55.024 -60.089  1.00  0.00     0.010 C 
ENDBRANCH  15  19
ENDBRANCH   6   7
ENDBRANCH   1   6
BRANCH   1  21
HETATM   21  C   UNL     1     -42.722  56.655 -51.096  1.00  0.00     0.129 C 
BRANCH  21  22
HETATM   22  C   UNL     1     -41.550  55.917 -50.449  1.00  0.00     0.048 C 
BRANCH  22  23
HETATM   23  C   UNL     1     -41.682  54.398 -50.518  1.00  0.00     0.236 C 
BRANCH  23  24
HETATM   24  N   UNL     1     -40.737  53.754 -51.512  1.00  0.00    -0.067 N 
HETATM   25  H   UNL     1     -39.898  54.336 -51.622  1.00  0.00     0.280 HD
HETATM   26  C   UNL     1     -40.266  52.388 -50.986  1.00  0.00     0.261 C 
HETATM   27  C   UNL     1     -39.354  51.710 -52.012  1.00  0.00     0.195 C 
HETATM   28  O   UNL     1     -40.025  51.559 -53.265  1.00  0.00    -0.388 OA
HETATM   29  C   UNL     1     -40.387  52.825 -53.823  1.00  0.00     0.195 C 
HETATM   30  C   UNL     1     -41.358  53.575 -52.904  1.00  0.00     0.261 C 
ENDBRANCH  23  24
ENDBRANCH  22  23
ENDBRANCH  21  22
ENDBRANCH   1  21
BRANCH   3  31
HETATM   31  C   UNL     1     -44.718  60.353 -50.456  1.00  0.00     0.036 A 
HETATM   32  C   UNL     1     -44.424  60.927 -49.210  1.00  0.00     0.031 A 
HETATM   33  C   UNL     1     -45.145  62.030 -48.743  1.00  0.00     0.026 A 
HETATM   34  C   UNL     1     -46.162  62.570 -49.524  1.00  0.00     0.034 A 
HETATM   35 CL   UNL     1     -47.064  63.912 -48.943  1.00  0.00    -0.084 Cl
HETATM   36  C   UNL     1     -46.451  62.022 -50.771  1.00  0.00     0.026 A 
HETATM   37  C   UNL     1     -45.726  60.918 -51.237  1.00  0.00     0.031 A 
ENDBRANCH   3  31
TORSDOF 9
ENDMDL
MODEL 10
REMARK VINA RESULT:      -7.4      4.574      9.324
REMARK  9 active torsions:
REMARK  status: ('A' for Active; 'I' for Inactive)
REMARK    1  A    between atoms: C_2  and  C_3 
REMARK    2  A    between atoms: C_8  and  O_9 
REMARK    3  A    between atoms: C_10  and  C_11 
REMARK    4  A    between atoms: C_11  and  N_12 
REMARK       I    between atoms: N_12  and  C_13 
REMARK    5  A    between atoms: N_12  and  C_23 
REMARK       I    between atoms: C_13  and  N_14 
REMARK    6  A    between atoms: N_14  and  C_15 
REMARK    7  A    between atoms: C_23  and  C_24 
REMARK    8  A    between atoms: C_24  and  C_25 
REMARK    9  A    between atoms: C_25  and  N_26 
ROOT
HETATM    1  N   UNL     1     -43.286  58.924 -52.385  1.00  0.00    -0.330 N 
HETATM    2  C   UNL     1     -43.597  59.889 -51.415  1.00  0.00     0.323 C 
HETATM    3  N   UNL     1     -44.869  60.408 -51.549  1.00  0.00    -0.309 N 
HETATM    4  O   UNL     1     -42.767  60.257 -50.594  1.00  0.00    -0.247 OA
HETATM    5  H   UNL     1     -45.348  60.165 -52.393  1.00  0.00     0.170 HD
ENDROOT
BRANCH   1   6
HETATM    6  C   UNL     1     -41.858  58.676 -52.648  1.00  0.00     0.170 C 
BRANCH   6   7
HETATM    7  C   UNL     1     -41.433  57.297 -52.220  1.00  0.00     0.013 A 
HETATM    8  C   UNL     1     -41.251  56.934 -50.901  1.00  0.00     0.170 A 
HETATM    9  N   UNL     1     -40.949  55.704 -50.452  1.00  0.00    -0.224 NA
HETATM   10  C   UNL     1     -40.801  54.729 -51.370  1.00  0.00     0.070 A 
HETATM   11  C   UNL     1     -40.925  54.975 -52.751  1.00  0.00    -0.006 A 
HETATM   12  C   UNL     1     -40.522  53.429 -50.966  1.00  0.00     0.033 A 
HETATM   13  C   UNL     1     -40.753  53.935 -53.683  1.00  0.00     0.021 A 
HETATM   14  C   UNL     1     -41.236  56.280 -53.158  1.00  0.00     0.027 A 
HETATM   15  C   UNL     1     -40.472  52.633 -53.258  1.00  0.00    -0.058 A 
HETATM   16  C   UNL     1     -40.361  52.389 -51.887  1.00  0.00     0.009 A 
BRANCH   8  17
HETATM   17  O   UNL     1     -41.348  57.827 -49.883  1.00  0.00    -0.344 OA
HETATM   18  H   UNL     1     -40.956  57.261 -49.187  1.00  0.00     0.219 HD
ENDBRANCH   8  17
BRANCH  15  19
HETATM   19  C   UNL     1     -40.283  51.521 -54.259  1.00  0.00     0.034 C 
HETATM   20  C   UNL     1     -39.658  50.284 -53.630  1.00  0.00     0.010 C 
ENDBRANCH  15  19
ENDBRANCH   6   7
ENDBRANCH   1   6
BRANCH   1  21
HETATM   21  C   UNL     1     -44.262  57.970 -52.910  1.00  0.00     0.129 C 
BRANCH  21  22
HETATM   22  C   UNL     1     -44.716  58.298 -54.332  1.00  0.00     0.048 C 
BRANCH  22  23
HETATM   23  C   UNL     1     -43.680  57.935 -55.394  1.00  0.00     0.236 C 
BRANCH  23  24
HETATM   24  N   UNL     1     -44.270  57.228 -56.597  1.00  0.00    -0.067 N 
HETATM   25  H   UNL     1     -44.904  56.482 -56.285  1.00  0.00     0.280 HD
HETATM   26  C   UNL     1     -45.113  58.210 -57.428  1.00  0.00     0.261 C 
HETATM   27  C   UNL     1     -45.667  57.514 -58.673  1.00  0.00     0.195 C 
HETATM   28  O   UNL     1     -44.606  56.971 -59.463  1.00  0.00    -0.388 OA
HETATM   29  C   UNL     1     -43.868  55.981 -58.744  1.00  0.00     0.195 C 
HETATM   30  C   UNL     1     -43.208  56.583 -57.498  1.00  0.00     0.261 C 
ENDBRANCH  23  24
ENDBRANCH  22  23
ENDBRANCH  21  22
ENDBRANCH   1  21
BRANCH   3  31
HETATM   31  C   UNL     1     -45.421  61.504 -50.851  1.00  0.00     0.036 A 
HETATM   32  C   UNL     1     -45.813  61.275 -49.523  1.00  0.00     0.031 A 
HETATM   33  C   UNL     1     -46.424  62.285 -48.774  1.00  0.00     0.026 A 
HETATM   34  C   UNL     1     -46.640  63.534 -49.348  1.00  0.00     0.034 A 
HETATM   35 CL   UNL     1     -47.411  64.770 -48.436  1.00  0.00    -0.084 Cl
HETATM   36  C   UNL     1     -46.239  63.780 -50.657  1.00  0.00     0.026 A 
HETATM   37  C   UNL     1     -45.626  62.768 -51.405  1.00  0.00     0.031 A 
ENDBRANCH   3  31
TORSDOF 9
ENDMDL
