MODEL 1
REMARK VINA RESULT:      -8.4      0.000      0.000
REMARK  8 active torsions:
REMARK  status: ('A' for Active; 'I' for Inactive)
REMARK    1  A    between atoms: C_2  and  C_3 
REMARK    2  A    between atoms: C_3  and  N_4 
REMARK    3  A    between atoms: C_3  and  C_19 
REMARK       I    between atoms: C_19  and  N_20 
REMARK    4  A    between atoms: N_20  and  C_21 
REMARK    5  A    between atoms: C_21  and  C_22 
REMARK    6  A    between atoms: C_22  and  C_23 
REMARK    7  A    between atoms: C_23  and  O_24 
REMARK    8  A    between atoms: O_24  and  C_25 
ROOT
HETATM    1  N   UNL     1     -40.938  55.889 -53.142  1.00  0.00    -0.220 N 
HETATM    2  N   UNL     1     -41.117  56.128 -51.776  1.00  0.00    -0.172 NA
HETATM    3  C   UNL     1     -41.014  55.140 -50.935  1.00  0.00     0.069 A 
HETATM    4  C   UNL     1     -41.251  55.416 -49.474  1.00  0.00     0.074 C 
HETATM    5  C   UNL     1     -40.670  53.823 -51.403  1.00  0.00     0.048 A 
HETATM    6  C   UNL     1     -40.492  53.550 -52.737  1.00  0.00     0.064 A 
HETATM    7  C   UNL     1     -40.681  54.622 -53.705  1.00  0.00     0.277 A 
HETATM    8  O   UNL     1     -40.597  54.433 -54.917  1.00  0.00    -0.266 OA
HETATM    9  S   UNL     1     -40.426  52.479 -50.411  1.00  0.00    -0.086 SA
HETATM   10  C   UNL     1     -40.036  51.473 -51.755  1.00  0.00     0.017 A 
HETATM   11  C   UNL     1     -40.114  52.178 -52.962  1.00  0.00    -0.002 A 
HETATM   12  C   UNL     1     -39.672  50.113 -51.710  1.00  0.00     0.020 A 
HETATM   13  C   UNL     1     -39.377  49.451 -52.904  1.00  0.00     0.001 A 
HETATM   14  C   UNL     1     -39.446  50.123 -54.115  1.00  0.00     0.001 A 
HETATM   15  C   UNL     1     -39.812  51.471 -54.155  1.00  0.00     0.014 A 
ENDROOT
BRANCH   1  16
HETATM   16  C   UNL     1     -41.175  57.015 -54.055  1.00  0.00     0.205 C 
BRANCH  16  17
HETATM   17  C   UNL     1     -41.335  58.356 -53.318  1.00  0.00     0.032 C 
HETATM   18  C   UNL     1     -41.618  59.519 -54.257  1.00  0.00     0.007 C 
ENDBRANCH  16  17
BRANCH  16  19
HETATM   19  C   UNL     1     -42.421  56.700 -54.909  1.00  0.00     0.242 C 
HETATM   20  N   UNL     1     -42.183  56.673 -56.272  1.00  0.00    -0.359 N 
HETATM   21  H   UNL     1     -41.231  56.710 -56.617  1.00  0.00     0.162 HD
HETATM   22  O   UNL     1     -43.545  56.528 -54.441  1.00  0.00    -0.271 OA
BRANCH  20  23
HETATM   23  C   UNL     1     -43.230  56.390 -57.233  1.00  0.00     0.125 C 
BRANCH  23  24
HETATM   24  C   UNL     1     -42.911  56.918 -58.631  1.00  0.00     0.046 C 
BRANCH  24  25
HETATM   25  C   UNL     1     -42.858  55.822 -59.692  1.00  0.00     0.169 C 
BRANCH  25  26
HETATM   26  O   UNL     1     -43.788  56.123 -60.730  1.00  0.00    -0.387 OA
BRANCH  26  27
HETATM   27  C   UNL     1     -44.909  55.236 -60.779  1.00  0.00     0.113 C 
HETATM   28  C   UNL     1     -44.738  54.077 -59.800  1.00  0.00     0.039 C 
HETATM   29  C   UNL     1     -46.137  56.059 -60.408  1.00  0.00     0.039 C 
ENDBRANCH  26  27
ENDBRANCH  25  26
ENDBRANCH  24  25
ENDBRANCH  23  24
ENDBRANCH  20  23
ENDBRANCH  16  19
ENDBRANCH   1  16
TORSDOF 8
ENDMDL
MODEL 2
REMARK VINA RESULT:      -8.2      3.419      5.188
REMARK  8 active torsions:
REMARK  status: ('A' for Active; 'I' for Inactive)
REMARK    1  A    between atoms: C_2  and  C_3 
REMARK    2  A    between atoms: C_3  and  N_4 
REMARK    3  A    between atoms: C_3  and  C_19 
REMARK       I    between atoms: C_19  and  N_20 
REMARK    4  A    between atoms: N_20  and  C_21 
REMARK    5  A    between atoms: C_21  and  C_22 
REMARK    6  A    between atoms: C_22  and  C_23 
REMARK    7  A    between atoms: C_23  and  O_24 
REMARK    8  A    between atoms: O_24  and  C_25 
ROOT
HETATM    1  N   UNL     1     -41.416  55.757 -52.735  1.00  0.00    -0.220 N 
HETATM    2  N   UNL     1     -41.377  55.883 -51.343  1.00  0.00    -0.172 NA
HETATM    3  C   UNL     1     -41.058  54.851 -50.616  1.00  0.00     0.069 A 
HETATM    4  C   UNL     1     -41.063  55.001 -49.118  1.00  0.00     0.074 C 
HETATM    5  C   UNL     1     -40.702  53.606 -51.243  1.00  0.00     0.048 A 
HETATM    6  C   UNL     1     -40.735  53.443 -52.606  1.00  0.00     0.064 A 
HETATM    7  C   UNL     1     -41.165  54.560 -53.436  1.00  0.00     0.277 A 
HETATM    8  O   UNL     1     -41.275  54.464 -54.657  1.00  0.00    -0.266 OA
HETATM    9  S   UNL     1     -40.193  52.221 -50.421  1.00  0.00    -0.086 SA
HETATM   10  C   UNL     1     -39.964  51.350 -51.890  1.00  0.00     0.017 A 
HETATM   11  C   UNL     1     -40.299  52.128 -53.005  1.00  0.00    -0.002 A 
HETATM   12  C   UNL     1     -39.497  50.028 -52.020  1.00  0.00     0.020 A 
HETATM   13  C   UNL     1     -39.362  49.479 -53.297  1.00  0.00     0.001 A 
HETATM   14  C   UNL     1     -39.686  50.226 -54.420  1.00  0.00     0.001 A 
HETATM   15  C   UNL     1     -40.153  51.537 -54.286  1.00  0.00     0.014 A 
ENDROOT
BRANCH   1  16
HETATM   16  C   UNL     1     -41.889  56.919 -53.498  1.00  0.00     0.205 C 
BRANCH  16  17
HETATM   17  C   UNL     1     -41.102  58.202 -53.178  1.00  0.00     0.032 C 
HETATM   18  C   UNL     1     -41.407  59.340 -54.141  1.00  0.00     0.007 C 
ENDBRANCH  16  17
BRANCH  16  19
HETATM   19  C   UNL     1     -43.395  57.109 -53.220  1.00  0.00     0.242 C 
HETATM   20  N   UNL     1     -43.683  57.566 -51.946  1.00  0.00    -0.359 N 
HETATM   21  H   UNL     1     -42.933  57.879 -51.342  1.00  0.00     0.162 HD
HETATM   22  O   UNL     1     -44.278  56.842 -54.032  1.00  0.00    -0.271 OA
BRANCH  20  23
HETATM   23  C   UNL     1     -45.042  57.808 -51.502  1.00  0.00     0.125 C 
BRANCH  23  24
HETATM   24  C   UNL     1     -45.231  59.201 -50.903  1.00  0.00     0.046 C 
BRANCH  24  25
HETATM   25  C   UNL     1     -44.982  60.327 -51.903  1.00  0.00     0.169 C 
BRANCH  25  26
HETATM   26  O   UNL     1     -43.606  60.698 -51.865  1.00  0.00    -0.387 OA
BRANCH  26  27
HETATM   27  C   UNL     1     -43.117  60.981 -50.551  1.00  0.00     0.113 C 
HETATM   28  C   UNL     1     -41.738  60.365 -50.332  1.00  0.00     0.039 C 
HETATM   29  C   UNL     1     -43.039  62.499 -50.429  1.00  0.00     0.039 C 
ENDBRANCH  26  27
ENDBRANCH  25  26
ENDBRANCH  24  25
ENDBRANCH  23  24
ENDBRANCH  20  23
ENDBRANCH  16  19
ENDBRANCH   1  16
TORSDOF 8
ENDMDL
MODEL 3
REMARK VINA RESULT:      -7.9      1.221      1.913
REMARK  8 active torsions:
REMARK  status: ('A' for Active; 'I' for Inactive)
REMARK    1  A    between atoms: C_2  and  C_3 
REMARK    2  A    between atoms: C_3  and  N_4 
REMARK    3  A    between atoms: C_3  and  C_19 
REMARK       I    between atoms: C_19  and  N_20 
REMARK    4  A    between atoms: N_20  and  C_21 
REMARK    5  A    between atoms: C_21  and  C_22 
REMARK    6  A    between atoms: C_22  and  C_23 
REMARK    7  A    between atoms: C_23  and  O_24 
REMARK    8  A    between atoms: O_24  and  C_25 
ROOT
HETATM    1  N   UNL     1     -41.034  55.950 -53.497  1.00  0.00    -0.220 N 
HETATM    2  N   UNL     1     -41.188  56.245 -52.139  1.00  0.00    -0.172 NA
HETATM    3  C   UNL     1     -41.060  55.295 -51.259  1.00  0.00     0.069 A 
HETATM    4  C   UNL     1     -41.271  55.630 -49.806  1.00  0.00     0.074 C 
HETATM    5  C   UNL     1     -40.715  53.962 -51.677  1.00  0.00     0.048 A 
HETATM    6  C   UNL     1     -40.561  53.633 -53.001  1.00  0.00     0.064 A 
HETATM    7  C   UNL     1     -40.777  54.661 -54.010  1.00  0.00     0.277 A 
HETATM    8  O   UNL     1     -40.715  54.421 -55.214  1.00  0.00    -0.266 OA
HETATM    9  S   UNL     1     -40.441  52.662 -50.634  1.00  0.00    -0.086 SA
HETATM   10  C   UNL     1     -40.069  51.603 -51.942  1.00  0.00     0.017 A 
HETATM   11  C   UNL     1     -40.176  52.255 -53.176  1.00  0.00    -0.002 A 
HETATM   12  C   UNL     1     -39.693  50.249 -51.847  1.00  0.00     0.020 A 
HETATM   13  C   UNL     1     -39.417  49.539 -53.017  1.00  0.00     0.001 A 
HETATM   14  C   UNL     1     -39.514  50.158 -54.254  1.00  0.00     0.001 A 
HETATM   15  C   UNL     1     -39.891  51.501 -54.343  1.00  0.00     0.014 A 
ENDROOT
BRANCH   1  16
HETATM   16  C   UNL     1     -41.297  57.034 -54.451  1.00  0.00     0.205 C 
BRANCH  16  17
HETATM   17  C   UNL     1     -41.463  58.402 -53.768  1.00  0.00     0.032 C 
HETATM   18  C   UNL     1     -41.805  59.516 -54.746  1.00  0.00     0.007 C 
ENDBRANCH  16  17
BRANCH  16  19
HETATM   19  C   UNL     1     -42.552  56.670 -55.273  1.00  0.00     0.242 C 
HETATM   20  N   UNL     1     -42.336  56.601 -56.638  1.00  0.00    -0.359 N 
HETATM   21  H   UNL     1     -41.391  56.642 -57.001  1.00  0.00     0.162 HD
HETATM   22  O   UNL     1     -43.664  56.495 -54.780  1.00  0.00    -0.271 OA
BRANCH  20  23
HETATM   23  C   UNL     1     -43.394  56.268 -57.571  1.00  0.00     0.125 C 
BRANCH  23  24
HETATM   24  C   UNL     1     -42.867  55.709 -58.891  1.00  0.00     0.046 C 
BRANCH  24  25
HETATM   25  C   UNL     1     -42.557  56.789 -59.924  1.00  0.00     0.169 C 
BRANCH  25  26
HETATM   26  O   UNL     1     -41.766  57.809 -59.319  1.00  0.00    -0.387 OA
BRANCH  26  27
HETATM   27  C   UNL     1     -42.137  59.135 -59.702  1.00  0.00     0.113 C 
HETATM   28  C   UNL     1     -43.585  59.185 -60.184  1.00  0.00     0.039 C 
HETATM   29  C   UNL     1     -41.966  60.013 -58.466  1.00  0.00     0.039 C 
ENDBRANCH  26  27
ENDBRANCH  25  26
ENDBRANCH  24  25
ENDBRANCH  23  24
ENDBRANCH  20  23
ENDBRANCH  16  19
ENDBRANCH   1  16
TORSDOF 8
ENDMDL
MODEL 4
REMARK VINA RESULT:      -7.8      3.206      5.951
REMARK  8 active torsions:
REMARK  status: ('A' for Active; 'I' for Inactive)
REMARK    1  A    between atoms: C_2  and  C_3 
REMARK    2  A    between atoms: C_3  and  N_4 
REMARK    3  A    between atoms: C_3  and  C_19 
REMARK       I    between atoms: C_19  and  N_20 
REMARK    4  A    between atoms: N_20  and  C_21 
REMARK    5  A    between atoms: C_21  and  C_22 
REMARK    6  A    between atoms: C_22  and  C_23 
REMARK    7  A    between atoms: C_23  and  O_24 
REMARK    8  A    between atoms: O_24  and  C_25 
ROOT
HETATM    1  N   UNL     1     -41.545  56.063 -53.131  1.00  0.00    -0.220 N 
HETATM    2  N   UNL     1     -41.490  56.307 -51.755  1.00  0.00    -0.172 NA
HETATM    3  C   UNL     1     -41.158  55.343 -50.947  1.00  0.00     0.069 A 
HETATM    4  C   UNL     1     -41.147  55.619 -49.467  1.00  0.00     0.074 C 
HETATM    5  C   UNL     1     -40.802  54.050 -51.470  1.00  0.00     0.048 A 
HETATM    6  C   UNL     1     -40.848  53.772 -52.814  1.00  0.00     0.064 A 
HETATM    7  C   UNL     1     -41.294  54.812 -53.731  1.00  0.00     0.277 A 
HETATM    8  O   UNL     1     -41.417  54.613 -54.938  1.00  0.00    -0.266 OA
HETATM    9  S   UNL     1     -40.276  52.743 -50.539  1.00  0.00    -0.086 SA
HETATM   10  C   UNL     1     -40.058  51.751 -51.932  1.00  0.00     0.017 A 
HETATM   11  C   UNL     1     -40.409  52.431 -53.105  1.00  0.00    -0.002 A 
HETATM   12  C   UNL     1     -39.585  50.425 -51.955  1.00  0.00     0.020 A 
HETATM   13  C   UNL     1     -39.461  49.771 -53.182  1.00  0.00     0.001 A 
HETATM   14  C   UNL     1     -39.802  50.418 -54.360  1.00  0.00     0.001 A 
HETATM   15  C   UNL     1     -40.274  51.733 -54.333  1.00  0.00     0.014 A 
ENDROOT
BRANCH   1  16
HETATM   16  C   UNL     1     -42.032  57.155 -53.984  1.00  0.00     0.205 C 
BRANCH  16  17
HETATM   17  C   UNL     1     -41.254  58.465 -53.778  1.00  0.00     0.032 C 
HETATM   18  C   UNL     1     -41.650  59.552 -54.766  1.00  0.00     0.007 C 
ENDBRANCH  16  17
BRANCH  16  19
HETATM   19  C   UNL     1     -43.538  57.355 -53.712  1.00  0.00     0.242 C 
HETATM   20  N   UNL     1     -43.815  58.205 -52.656  1.00  0.00    -0.359 N 
HETATM   21  H   UNL     1     -43.068  58.742 -52.232  1.00  0.00     0.162 HD
HETATM   22  O   UNL     1     -44.427  56.785 -54.339  1.00  0.00    -0.271 OA
BRANCH  20  23
HETATM   23  C   UNL     1     -45.171  58.518 -52.253  1.00  0.00     0.125 C 
BRANCH  23  24
HETATM   24  C   UNL     1     -45.338  58.588 -50.735  1.00  0.00     0.046 C 
BRANCH  24  25
HETATM   25  C   UNL     1     -45.445  60.015 -50.205  1.00  0.00     0.169 C 
BRANCH  25  26
HETATM   26  O   UNL     1     -45.871  59.984 -48.845  1.00  0.00    -0.387 OA
BRANCH  26  27
HETATM   27  C   UNL     1     -45.633  61.202 -48.134  1.00  0.00     0.113 C 
HETATM   28  C   UNL     1     -45.260  60.927 -46.680  1.00  0.00     0.039 C 
HETATM   29  C   UNL     1     -44.484  61.908 -48.846  1.00  0.00     0.039 C 
ENDBRANCH  26  27
ENDBRANCH  25  26
ENDBRANCH  24  25
ENDBRANCH  23  24
ENDBRANCH  20  23
ENDBRANCH  16  19
ENDBRANCH   1  16
TORSDOF 8
ENDMDL
MODEL 5
REMARK VINA RESULT:      -7.8      3.365      4.481
REMARK  8 active torsions:
REMARK  status: ('A' for Active; 'I' for Inactive)
REMARK    1  A    between atoms: C_2  and  C_3 
REMARK    2  A    between atoms: C_3  and  N_4 
REMARK    3  A    between atoms: C_3  and  C_19 
REMARK       I    between atoms: C_19  and  N_20 
REMARK    4  A    between atoms: N_20  and  C_21 
REMARK    5  A    between atoms: C_21  and  C_22 
REMARK    6  A    between atoms: C_22  and  C_23 
REMARK    7  A    between atoms: C_23  and  O_24 
REMARK    8  A    between atoms: O_24  and  C_25 
ROOT
HETATM    1  N   UNL     1     -41.399  55.828 -52.691  1.00  0.00    -0.220 N 
HETATM    2  N   UNL     1     -41.348  55.949 -51.299  1.00  0.00    -0.172 NA
HETATM    3  C   UNL     1     -41.039  54.910 -50.579  1.00  0.00     0.069 A 
HETATM    4  C   UNL     1     -41.031  55.054 -49.080  1.00  0.00     0.074 C 
HETATM    5  C   UNL     1     -40.704  53.662 -51.212  1.00  0.00     0.048 A 
HETATM    6  C   UNL     1     -40.748  53.505 -52.575  1.00  0.00     0.064 A 
HETATM    7  C   UNL     1     -41.168  54.630 -53.399  1.00  0.00     0.277 A 
HETATM    8  O   UNL     1     -41.288  54.541 -54.619  1.00  0.00    -0.266 OA
HETATM    9  S   UNL     1     -40.209  52.267 -50.398  1.00  0.00    -0.086 SA
HETATM   10  C   UNL     1     -40.001  51.399 -51.872  1.00  0.00     0.017 A 
HETATM   11  C   UNL     1     -40.333  52.186 -52.982  1.00  0.00    -0.002 A 
HETATM   12  C   UNL     1     -39.554  50.071 -52.011  1.00  0.00     0.020 A 
HETATM   13  C   UNL     1     -39.435  49.525 -53.291  1.00  0.00     0.001 A 
HETATM   14  C   UNL     1     -39.756  50.281 -54.408  1.00  0.00     0.001 A 
HETATM   15  C   UNL     1     -40.204  51.597 -54.266  1.00  0.00     0.014 A 
ENDROOT
BRANCH   1  16
HETATM   16  C   UNL     1     -41.860  57.000 -53.447  1.00  0.00     0.205 C 
BRANCH  16  17
HETATM   17  C   UNL     1     -41.126  58.292 -53.050  1.00  0.00     0.032 C 
HETATM   18  C   UNL     1     -41.454  59.465 -53.962  1.00  0.00     0.007 C 
ENDBRANCH  16  17
BRANCH  16  19
HETATM   19  C   UNL     1     -43.383  57.144 -53.246  1.00  0.00     0.242 C 
HETATM   20  N   UNL     1     -43.748  57.647 -52.009  1.00  0.00    -0.359 N 
HETATM   21  H   UNL     1     -43.038  58.015 -51.388  1.00  0.00     0.162 HD
HETATM   22  O   UNL     1     -44.218  56.807 -54.084  1.00  0.00    -0.271 OA
BRANCH  20  23
HETATM   23  C   UNL     1     -45.133  57.856 -51.639  1.00  0.00     0.125 C 
BRANCH  23  24
HETATM   24  C   UNL     1     -45.312  58.984 -50.624  1.00  0.00     0.046 C 
BRANCH  24  25
HETATM   25  C   UNL     1     -45.471  60.357 -51.270  1.00  0.00     0.169 C 
BRANCH  25  26
HETATM   26  O   UNL     1     -44.565  60.473 -52.365  1.00  0.00    -0.387 OA
BRANCH  26  27
HETATM   27  C   UNL     1     -45.132  61.087 -53.525  1.00  0.00     0.113 C 
HETATM   28  C   UNL     1     -45.220  60.098 -54.684  1.00  0.00     0.039 C 
HETATM   29  C   UNL     1     -46.527  61.562 -53.133  1.00  0.00     0.039 C 
ENDBRANCH  26  27
ENDBRANCH  25  26
ENDBRANCH  24  25
ENDBRANCH  23  24
ENDBRANCH  20  23
ENDBRANCH  16  19
ENDBRANCH   1  16
TORSDOF 8
ENDMDL
MODEL 6
REMARK VINA RESULT:      -7.7      1.832      2.477
REMARK  8 active torsions:
REMARK  status: ('A' for Active; 'I' for Inactive)
REMARK    1  A    between atoms: C_2  and  C_3 
REMARK    2  A    between atoms: C_3  and  N_4 
REMARK    3  A    between atoms: C_3  and  C_19 
REMARK       I    between atoms: C_19  and  N_20 
REMARK    4  A    between atoms: N_20  and  C_21 
REMARK    5  A    between atoms: C_21  and  C_22 
REMARK    6  A    between atoms: C_22  and  C_23 
REMARK    7  A    between atoms: C_23  and  O_24 
REMARK    8  A    between atoms: O_24  and  C_25 
ROOT
HETATM    1  N   UNL     1     -41.166  55.825 -51.687  1.00  0.00    -0.220 N 
HETATM    2  N   UNL     1     -41.053  55.638 -50.306  1.00  0.00    -0.172 NA
HETATM    3  C   UNL     1     -40.772  54.455 -49.842  1.00  0.00     0.069 A 
HETATM    4  C   UNL     1     -40.697  54.271 -48.349  1.00  0.00     0.074 C 
HETATM    5  C   UNL     1     -40.531  53.361 -50.745  1.00  0.00     0.048 A 
HETATM    6  C   UNL     1     -40.638  53.505 -52.106  1.00  0.00     0.064 A 
HETATM    7  C   UNL     1     -41.029  54.800 -52.646  1.00  0.00     0.277 A 
HETATM    8  O   UNL     1     -41.203  54.983 -53.850  1.00  0.00    -0.266 OA
HETATM    9  S   UNL     1     -40.080  51.802 -50.275  1.00  0.00    -0.086 SA
HETATM   10  C   UNL     1     -39.979  51.266 -51.910  1.00  0.00     0.017 A 
HETATM   11  C   UNL     1     -40.311  52.289 -52.807  1.00  0.00    -0.002 A 
HETATM   12  C   UNL     1     -39.610  49.981 -52.353  1.00  0.00     0.020 A 
HETATM   13  C   UNL     1     -39.572  49.721 -53.724  1.00  0.00     0.001 A 
HETATM   14  C   UNL     1     -39.896  50.714 -54.636  1.00  0.00     0.001 A 
HETATM   15  C   UNL     1     -40.266  51.987 -54.192  1.00  0.00     0.014 A 
ENDROOT
BRANCH   1  16
HETATM   16  C   UNL     1     -41.593  57.152 -52.150  1.00  0.00     0.205 C 
BRANCH  16  17
HETATM   17  C   UNL     1     -41.238  58.271 -51.157  1.00  0.00     0.032 C 
HETATM   18  C   UNL     1     -41.262  59.655 -51.790  1.00  0.00     0.007 C 
ENDBRANCH  16  17
BRANCH  16  19
HETATM   19  C   UNL     1     -43.112  57.111 -52.420  1.00  0.00     0.242 C 
HETATM   20  N   UNL     1     -43.452  57.165 -53.760  1.00  0.00    -0.359 N 
HETATM   21  H   UNL     1     -42.730  57.081 -54.466  1.00  0.00     0.162 HD
HETATM   22  O   UNL     1     -43.963  57.078 -51.533  1.00  0.00    -0.271 OA
BRANCH  20  23
HETATM   23  C   UNL     1     -44.830  57.134 -54.209  1.00  0.00     0.125 C 
BRANCH  23  24
HETATM   24  C   UNL     1     -45.118  58.153 -55.310  1.00  0.00     0.046 C 
BRANCH  24  25
HETATM   25  C   UNL     1     -43.898  58.476 -56.168  1.00  0.00     0.169 C 
BRANCH  25  26
HETATM   26  O   UNL     1     -43.347  57.265 -56.681  1.00  0.00    -0.387 OA
BRANCH  26  27
HETATM   27  C   UNL     1     -43.351  57.185 -58.109  1.00  0.00     0.113 C 
HETATM   28  C   UNL     1     -42.179  57.957 -58.708  1.00  0.00     0.039 C 
HETATM   29  C   UNL     1     -43.242  55.706 -58.466  1.00  0.00     0.039 C 
ENDBRANCH  26  27
ENDBRANCH  25  26
ENDBRANCH  24  25
ENDBRANCH  23  24
ENDBRANCH  20  23
ENDBRANCH  16  19
ENDBRANCH   1  16
TORSDOF 8
ENDMDL
MODEL 7
REMARK VINA RESULT:      -7.3      2.917      7.494
REMARK  8 active torsions:
REMARK  status: ('A' for Active; 'I' for Inactive)
REMARK    1  A    between atoms: C_2  and  C_3 
REMARK    2  A    between atoms: C_3  and  N_4 
REMARK    3  A    between atoms: C_3  and  C_19 
REMARK       I    between atoms: C_19  and  N_20 
REMARK    4  A    between atoms: N_20  and  C_21 
REMARK    5  A    between atoms: C_21  and  C_22 
REMARK    6  A    between atoms: C_22  and  C_23 
REMARK    7  A    between atoms: C_23  and  O_24 
REMARK    8  A    between atoms: O_24  and  C_25 
ROOT
HETATM    1  N   UNL     1     -42.051  57.604 -54.205  1.00  0.00    -0.220 N 
HETATM    2  N   UNL     1     -42.462  56.271 -54.290  1.00  0.00    -0.172 NA
HETATM    3  C   UNL     1     -42.808  55.781 -55.446  1.00  0.00     0.069 A 
HETATM    4  C   UNL     1     -43.287  54.354 -55.505  1.00  0.00     0.074 C 
HETATM    5  C   UNL     1     -42.720  56.591 -56.632  1.00  0.00     0.048 A 
HETATM    6  C   UNL     1     -42.326  57.906 -56.586  1.00  0.00     0.064 A 
HETATM    7  C   UNL     1     -42.010  58.499 -55.294  1.00  0.00     0.277 A 
HETATM    8  O   UNL     1     -41.710  59.685 -55.173  1.00  0.00    -0.266 OA
HETATM    9  S   UNL     1     -43.060  56.054 -58.196  1.00  0.00    -0.086 SA
HETATM   10  C   UNL     1     -42.652  57.582 -58.882  1.00  0.00     0.017 A 
HETATM   11  C   UNL     1     -42.274  58.501 -57.897  1.00  0.00    -0.002 A 
HETATM   12  C   UNL     1     -42.671  57.922 -60.249  1.00  0.00     0.020 A 
HETATM   13  C   UNL     1     -42.298  59.213 -60.631  1.00  0.00     0.001 A 
HETATM   14  C   UNL     1     -41.919  60.145 -59.677  1.00  0.00     0.001 A 
HETATM   15  C   UNL     1     -41.906  59.804 -58.322  1.00  0.00     0.014 A 
ENDROOT
BRANCH   1  16
HETATM   16  C   UNL     1     -41.779  58.135 -52.862  1.00  0.00     0.205 C 
BRANCH  16  17
HETATM   17  C   UNL     1     -40.294  58.467 -52.643  1.00  0.00     0.032 C 
HETATM   18  C   UNL     1     -40.044  59.249 -51.362  1.00  0.00     0.007 C 
ENDBRANCH  16  17
BRANCH  16  19
HETATM   19  C   UNL     1     -42.279  57.112 -51.820  1.00  0.00     0.242 C 
HETATM   20  N   UNL     1     -41.409  56.058 -51.598  1.00  0.00    -0.359 N 
HETATM   21  H   UNL     1     -40.477  56.084 -51.992  1.00  0.00     0.162 HD
HETATM   22  O   UNL     1     -43.369  57.186 -51.259  1.00  0.00    -0.271 OA
BRANCH  20  23
HETATM   23  C   UNL     1     -41.704  55.001 -50.651  1.00  0.00     0.125 C 
BRANCH  23  24
HETATM   24  C   UNL     1     -41.598  53.607 -51.267  1.00  0.00     0.046 C 
BRANCH  24  25
HETATM   25  C   UNL     1     -40.249  53.341 -51.929  1.00  0.00     0.169 C 
BRANCH  25  26
HETATM   26  O   UNL     1     -40.161  51.964 -52.288  1.00  0.00    -0.387 OA
BRANCH  26  27
HETATM   27  C   UNL     1     -39.618  51.737 -53.591  1.00  0.00     0.113 C 
HETATM   28  C   UNL     1     -40.015  50.362 -54.121  1.00  0.00     0.039 C 
HETATM   29  C   UNL     1     -40.178  52.830 -54.496  1.00  0.00     0.039 C 
ENDBRANCH  26  27
ENDBRANCH  25  26
ENDBRANCH  24  25
ENDBRANCH  23  24
ENDBRANCH  20  23
ENDBRANCH  16  19
ENDBRANCH   1  16
TORSDOF 8
ENDMDL
MODEL 8
REMARK VINA RESULT:      -7.1      1.809      2.258
REMARK  8 active torsions:
REMARK  status: ('A' for Active; 'I' for Inactive)
REMARK    1  A    between atoms: C_2  and  C_3 
REMARK    2  A    between atoms: C_3  and  N_4 
REMARK    3  A    between atoms: C_3  and  C_19 
REMARK       I    between atoms: C_19  and  N_20 
REMARK    4  A    between atoms: N_20  and  C_21 
REMARK    5  A    between atoms: C_21  and  C_22 
REMARK    6  A    between atoms: C_22  and  C_23 
REMARK    7  A    between atoms: C_23  and  O_24 
REMARK    8  A    between atoms: O_24  and  C_25 
ROOT
HETATM    1  N   UNL     1     -42.160  56.612 -54.494  1.00  0.00    -0.220 N 
HETATM    2  N   UNL     1     -42.090  57.211 -53.233  1.00  0.00    -0.172 NA
HETATM    3  C   UNL     1     -41.657  56.519 -52.219  1.00  0.00     0.069 A 
HETATM    4  C   UNL     1     -41.630  57.175 -50.864  1.00  0.00     0.074 C 
HETATM    5  C   UNL     1     -41.207  55.165 -52.405  1.00  0.00     0.048 A 
HETATM    6  C   UNL     1     -41.266  54.542 -53.628  1.00  0.00     0.064 A 
HETATM    7  C   UNL     1     -41.821  55.269 -54.761  1.00  0.00     0.277 A 
HETATM    8  O   UNL     1     -41.959  54.752 -55.868  1.00  0.00    -0.266 OA
HETATM    9  S   UNL     1     -40.549  54.190 -51.193  1.00  0.00    -0.086 SA
HETATM   10  C   UNL     1     -40.286  52.887 -52.290  1.00  0.00     0.017 A 
HETATM   11  C   UNL     1     -40.724  53.207 -53.581  1.00  0.00    -0.002 A 
HETATM   12  C   UNL     1     -39.704  51.640 -51.991  1.00  0.00     0.020 A 
HETATM   13  C   UNL     1     -39.558  50.698 -53.011  1.00  0.00     0.001 A 
HETATM   14  C   UNL     1     -39.982  50.986 -54.299  1.00  0.00     0.001 A 
HETATM   15  C   UNL     1     -40.563  52.224 -54.591  1.00  0.00     0.014 A 
ENDROOT
BRANCH   1  16
HETATM   16  C   UNL     1     -42.759  57.402 -55.578  1.00  0.00     0.205 C 
BRANCH  16  17
HETATM   17  C   UNL     1     -42.276  58.862 -55.588  1.00  0.00     0.032 C 
HETATM   18  C   UNL     1     -42.133  59.429 -56.992  1.00  0.00     0.007 C 
ENDBRANCH  16  17
BRANCH  16  19
HETATM   19  C   UNL     1     -44.295  57.327 -55.447  1.00  0.00     0.242 C 
HETATM   20  N   UNL     1     -44.982  57.754 -56.570  1.00  0.00    -0.359 N 
HETATM   21  H   UNL     1     -44.477  57.941 -57.427  1.00  0.00     0.162 HD
HETATM   22  O   UNL     1     -44.877  56.965 -54.427  1.00  0.00    -0.271 OA
BRANCH  20  23
HETATM   23  C   UNL     1     -46.430  57.753 -56.636  1.00  0.00     0.125 C 
BRANCH  23  24
HETATM   24  C   UNL     1     -46.959  57.950 -58.056  1.00  0.00     0.046 C 
BRANCH  24  25
HETATM   25  C   UNL     1     -45.857  57.993 -59.110  1.00  0.00     0.169 C 
BRANCH  25  26
HETATM   26  O   UNL     1     -45.258  56.704 -59.221  1.00  0.00    -0.387 OA
BRANCH  26  27
HETATM   27  C   UNL     1     -45.999  55.788 -60.031  1.00  0.00     0.113 C 
HETATM   28  C   UNL     1     -46.840  56.526 -61.070  1.00  0.00     0.039 C 
HETATM   29  C   UNL     1     -44.979  54.891 -60.724  1.00  0.00     0.039 C 
ENDBRANCH  26  27
ENDBRANCH  25  26
ENDBRANCH  24  25
ENDBRANCH  23  24
ENDBRANCH  20  23
ENDBRANCH  16  19
ENDBRANCH   1  16
TORSDOF 8
ENDMDL
MODEL 9
REMARK VINA RESULT:      -7.1      2.922      4.510
REMARK  8 active torsions:
REMARK  status: ('A' for Active; 'I' for Inactive)
REMARK    1  A    between atoms: C_2  and  C_3 
REMARK    2  A    between atoms: C_3  and  N_4 
REMARK    3  A    between atoms: C_3  and  C_19 
REMARK       I    between atoms: C_19  and  N_20 
REMARK    4  A    between atoms: N_20  and  C_21 
REMARK    5  A    between atoms: C_21  and  C_22 
REMARK    6  A    between atoms: C_22  and  C_23 
REMARK    7  A    between atoms: C_23  and  O_24 
REMARK    8  A    between atoms: O_24  and  C_25 
ROOT
HETATM    1  N   UNL     1     -42.152  57.119 -52.621  1.00  0.00    -0.220 N 
HETATM    2  N   UNL     1     -42.399  57.247 -53.991  1.00  0.00    -0.172 NA
HETATM    3  C   UNL     1     -42.031  56.296 -54.799  1.00  0.00     0.069 A 
HETATM    4  C   UNL     1     -42.271  56.476 -56.275  1.00  0.00     0.074 C 
HETATM    5  C   UNL     1     -41.419  55.101 -54.281  1.00  0.00     0.048 A 
HETATM    6  C   UNL     1     -41.156  54.941 -52.942  1.00  0.00     0.064 A 
HETATM    7  C   UNL     1     -41.487  56.026 -52.028  1.00  0.00     0.277 A 
HETATM    8  O   UNL     1     -41.223  55.975 -50.828  1.00  0.00    -0.266 OA
HETATM    9  S   UNL     1     -40.971  53.763 -55.209  1.00  0.00    -0.086 SA
HETATM   10  C   UNL     1     -40.429  52.896 -53.822  1.00  0.00     0.017 A 
HETATM   11  C   UNL     1     -40.581  53.652 -52.653  1.00  0.00    -0.002 A 
HETATM   12  C   UNL     1     -39.897  51.592 -53.800  1.00  0.00     0.020 A 
HETATM   13  C   UNL     1     -39.515  51.037 -52.577  1.00  0.00     0.001 A 
HETATM   14  C   UNL     1     -39.654  51.761 -51.403  1.00  0.00     0.001 A 
HETATM   15  C   UNL     1     -40.178  53.057 -51.430  1.00  0.00     0.014 A 
ENDROOT
BRANCH   1  16
HETATM   16  C   UNL     1     -42.488  58.268 -51.770  1.00  0.00     0.205 C 
BRANCH  16  17
HETATM   17  C   UNL     1     -43.988  58.350 -51.445  1.00  0.00     0.032 C 
HETATM   18  C   UNL     1     -44.574  57.016 -51.008  1.00  0.00     0.007 C 
ENDBRANCH  16  17
BRANCH  16  19
HETATM   19  C   UNL     1     -42.001  59.555 -52.470  1.00  0.00     0.242 C 
HETATM   20  N   UNL     1     -43.005  60.280 -53.086  1.00  0.00    -0.359 N 
HETATM   21  H   UNL     1     -43.974  60.030 -52.930  1.00  0.00     0.162 HD
HETATM   22  O   UNL     1     -40.822  59.899 -52.525  1.00  0.00    -0.271 OA
BRANCH  20  23
HETATM   23  C   UNL     1     -42.741  61.519 -53.790  1.00  0.00     0.125 C 
BRANCH  23  24
HETATM   24  C   UNL     1     -43.680  61.739 -54.976  1.00  0.00     0.046 C 
BRANCH  24  25
HETATM   25  C   UNL     1     -43.622  60.617 -56.008  1.00  0.00     0.169 C 
BRANCH  25  26
HETATM   26  O   UNL     1     -42.278  60.162 -56.137  1.00  0.00    -0.387 OA
BRANCH  26  27
HETATM   27  C   UNL     1     -41.851  59.987 -57.491  1.00  0.00     0.113 C 
HETATM   28  C   UNL     1     -43.002  59.511 -58.374  1.00  0.00     0.039 C 
HETATM   29  C   UNL     1     -41.348  61.344 -57.971  1.00  0.00     0.039 C 
ENDBRANCH  26  27
ENDBRANCH  25  26
ENDBRANCH  24  25
ENDBRANCH  23  24
ENDBRANCH  20  23
ENDBRANCH  16  19
ENDBRANCH   1  16
TORSDOF 8
ENDMDL
MODEL 10
REMARK VINA RESULT:      -7.0      3.015      5.576
REMARK  8 active torsions:
REMARK  status: ('A' for Active; 'I' for Inactive)
REMARK    1  A    between atoms: C_2  and  C_3 
REMARK    2  A    between atoms: C_3  and  N_4 
REMARK    3  A    between atoms: C_3  and  C_19 
REMARK       I    between atoms: C_19  and  N_20 
REMARK    4  A    between atoms: N_20  and  C_21 
REMARK    5  A    between atoms: C_21  and  C_22 
REMARK    6  A    between atoms: C_22  and  C_23 
REMARK    7  A    between atoms: C_23  and  O_24 
REMARK    8  A    between atoms: O_24  and  C_25 
ROOT
HETATM    1  N   UNL     1     -42.167  55.914 -53.631  1.00  0.00    -0.220 N 
HETATM    2  N   UNL     1     -41.861  56.395 -52.354  1.00  0.00    -0.172 NA
HETATM    3  C   UNL     1     -41.265  55.612 -51.502  1.00  0.00     0.069 A 
HETATM    4  C   UNL     1     -40.985  56.139 -50.120  1.00  0.00     0.074 C 
HETATM    5  C   UNL     1     -40.880  54.280 -51.888  1.00  0.00     0.048 A 
HETATM    6  C   UNL     1     -41.167  53.773 -53.131  1.00  0.00     0.064 A 
HETATM    7  C   UNL     1     -41.904  54.602 -54.075  1.00  0.00     0.277 A 
HETATM    8  O   UNL     1     -42.248  54.189 -55.181  1.00  0.00    -0.266 OA
HETATM    9  S   UNL     1     -40.032  53.198 -50.908  1.00  0.00    -0.086 SA
HETATM   10  C   UNL     1     -39.992  52.001 -52.148  1.00  0.00     0.017 A 
HETATM   11  C   UNL     1     -40.648  52.439 -53.304  1.00  0.00    -0.002 A 
HETATM   12  C   UNL     1     -39.387  50.731 -52.073  1.00  0.00     0.020 A 
HETATM   13  C   UNL     1     -39.443  49.887 -53.184  1.00  0.00     0.001 A 
HETATM   14  C   UNL     1     -40.087  50.294 -54.343  1.00  0.00     0.001 A 
HETATM   15  C   UNL     1     -40.688  51.553 -54.412  1.00  0.00     0.014 A 
ENDROOT
BRANCH   1  16
HETATM   16  C   UNL     1     -42.937  56.801 -54.513  1.00  0.00     0.205 C 
BRANCH  16  17
HETATM   17  C   UNL     1     -42.043  57.645 -55.437  1.00  0.00     0.032 C 
HETATM   18  C   UNL     1     -42.463  57.571 -56.897  1.00  0.00     0.007 C 
ENDBRANCH  16  17
BRANCH  16  19
HETATM   19  C   UNL     1     -43.837  57.701 -53.638  1.00  0.00     0.242 C 
HETATM   20  N   UNL     1     -43.213  58.845 -53.172  1.00  0.00    -0.359 N 
HETATM   21  H   UNL     1     -42.299  59.100 -53.527  1.00  0.00     0.162 HD
HETATM   22  O   UNL     1     -44.994  57.421 -53.336  1.00  0.00    -0.271 OA
BRANCH  20  23
HETATM   23  C   UNL     1     -43.898  59.812 -52.340  1.00  0.00     0.125 C 
BRANCH  23  24
HETATM   24  C   UNL     1     -44.565  60.924 -53.148  1.00  0.00     0.046 C 
BRANCH  24  25
HETATM   25  C   UNL     1     -45.218  61.995 -52.279  1.00  0.00     0.169 C 
BRANCH  25  26
HETATM   26  O   UNL     1     -44.320  62.372 -51.238  1.00  0.00    -0.387 OA
BRANCH  26  27
HETATM   27  C   UNL     1     -44.948  62.553 -49.966  1.00  0.00     0.113 C 
HETATM   28  C   UNL     1     -46.463  62.397 -50.073  1.00  0.00     0.039 C 
HETATM   29  C   UNL     1     -44.375  61.488 -49.037  1.00  0.00     0.039 C 
ENDBRANCH  26  27
ENDBRANCH  25  26
ENDBRANCH  24  25
ENDBRANCH  23  24
ENDBRANCH  20  23
ENDBRANCH  16  19
ENDBRANCH   1  16
TORSDOF 8
ENDMDL
