MODEL 1
REMARK VINA RESULT:      -8.4      0.000      0.000
REMARK  6 active torsions:
REMARK  status: ('A' for Active; 'I' for Inactive)
REMARK    1  A    between atoms: C_5  and  N_6 
REMARK    2  A    between atoms: N_6  and  N_7 
REMARK       I    between atoms: N_7  and  C_8 
REMARK    3  A    between atoms: C_8  and  C_9 
REMARK    4  A    between atoms: C_9  and  N_10 
REMARK    5  A    between atoms: N_10  and  C_11 
REMARK    6  A    between atoms: C_13  and  C_14 
ROOT
HETATM    1  C   UNL     1     -43.332  58.512 -54.710  1.00  0.00     0.203 A 
HETATM    2  N   UNL     1     -42.713  57.362 -54.443  1.00  0.00    -0.217 NA
HETATM    3  C   UNL     1     -42.655  56.440 -55.432  1.00  0.00     0.083 A 
HETATM    4  C   UNL     1     -43.248  56.636 -56.692  1.00  0.00     0.023 A 
HETATM    5  C   UNL     1     -43.852  57.885 -56.852  1.00  0.00     0.072 A 
HETATM    6  N   UNL     1     -43.893  58.806 -55.885  1.00  0.00    -0.218 NA
HETATM    7  C   UNL     1     -43.296  55.697 -57.760  1.00  0.00     0.023 A 
HETATM    8  C   UNL     1     -43.919  56.006 -58.973  1.00  0.00    -0.061 A 
HETATM    9  C   UNL     1     -43.947  55.022 -60.104  1.00  0.00     0.048 C 
HETATM   10  C   UNL     1     -44.484  57.269 -59.126  1.00  0.00     0.009 A 
HETATM   11  C   UNL     1     -44.451  58.184 -58.069  1.00  0.00     0.033 A 
ENDROOT
BRANCH   1  12
HETATM   12  N   UNL     1     -43.485  59.480 -53.728  1.00  0.00    -0.252 NA
HETATM   13  H   UNL     1     -42.722  59.301 -53.080  1.00  0.00     0.131 HD
BRANCH  12  14
HETATM   14  C   UNL     1     -44.798  59.533 -53.097  1.00  0.00     0.199 C 
BRANCH  14  15
HETATM   15  C   UNL     1     -44.868  58.680 -51.826  1.00  0.00     0.245 C 
HETATM   16  N   UNL     1     -44.857  57.314 -52.084  1.00  0.00    -0.286 N 
HETATM   17  H   UNL     1     -44.513  56.934 -52.960  1.00  0.00     0.184 HD
HETATM   18  O   UNL     1     -44.965  59.136 -50.686  1.00  0.00    -0.271 OA
BRANCH  16  19
HETATM   19  N   UNL     1     -44.756  56.450 -50.975  1.00  0.00    -0.203 NA
HETATM   20  H   UNL     1     -45.490  55.727 -51.038  1.00  0.00     0.153 HD
BRANCH  19  21
HETATM   21  C   UNL     1     -43.505  55.780 -50.880  1.00  0.00     0.027 A 
HETATM   22  C   UNL     1     -43.520  54.378 -50.855  1.00  0.00     0.026 A 
HETATM   23  C   UNL     1     -42.331  53.643 -50.834  1.00  0.00     0.008 A 
HETATM   24  C   UNL     1     -41.096  54.296 -50.848  1.00  0.00    -0.062 A 
HETATM   25  C   UNL     1     -39.816  53.515 -50.872  1.00  0.00     0.048 C 
HETATM   26  C   UNL     1     -41.072  55.694 -50.909  1.00  0.00     0.008 A 
HETATM   27  C   UNL     1     -42.264  56.427 -50.927  1.00  0.00     0.026 A 
ENDBRANCH  19  21
ENDBRANCH  16  19
ENDBRANCH  14  15
ENDBRANCH  12  14
ENDBRANCH   1  12
BRANCH   3  28
HETATM   28  C   UNL     1     -41.926  55.216 -55.051  1.00  0.00    -0.006 A 
HETATM   29  C   UNL     1     -42.627  54.064 -54.654  1.00  0.00     0.014 A 
HETATM   30  C   UNL     1     -41.951  52.896 -54.291  1.00  0.00     0.001 A 
HETATM   31  C   UNL     1     -40.559  52.862 -54.312  1.00  0.00     0.000 A 
HETATM   32  C   UNL     1     -39.843  53.997 -54.684  1.00  0.00     0.001 A 
HETATM   33  C   UNL     1     -40.520  55.166 -55.042  1.00  0.00     0.014 A 
ENDBRANCH   3  28
TORSDOF 6
ENDMDL
MODEL 2
REMARK VINA RESULT:      -8.3      1.905      2.206
REMARK  6 active torsions:
REMARK  status: ('A' for Active; 'I' for Inactive)
REMARK    1  A    between atoms: C_5  and  N_6 
REMARK    2  A    between atoms: N_6  and  N_7 
REMARK       I    between atoms: N_7  and  C_8 
REMARK    3  A    between atoms: C_8  and  C_9 
REMARK    4  A    between atoms: C_9  and  N_10 
REMARK    5  A    between atoms: N_10  and  C_11 
REMARK    6  A    between atoms: C_13  and  C_14 
ROOT
HETATM    1  C   UNL     1     -41.350  58.681 -54.066  1.00  0.00     0.203 A 
HETATM    2  N   UNL     1     -41.228  57.356 -53.979  1.00  0.00    -0.217 NA
HETATM    3  C   UNL     1     -41.696  56.618 -55.013  1.00  0.00     0.083 A 
HETATM    4  C   UNL     1     -42.328  57.188 -56.131  1.00  0.00     0.023 A 
HETATM    5  C   UNL     1     -42.382  58.583 -56.110  1.00  0.00     0.072 A 
HETATM    6  N   UNL     1     -41.902  59.317 -55.101  1.00  0.00    -0.218 NA
HETATM    7  C   UNL     1     -42.910  56.485 -57.224  1.00  0.00     0.023 A 
HETATM    8  C   UNL     1     -43.516  57.164 -58.285  1.00  0.00    -0.061 A 
HETATM    9  C   UNL     1     -44.108  56.420 -59.445  1.00  0.00     0.048 C 
HETATM   10  C   UNL     1     -43.528  58.555 -58.262  1.00  0.00     0.009 A 
HETATM   11  C   UNL     1     -42.972  59.243 -57.180  1.00  0.00     0.033 A 
ENDROOT
BRANCH   1  12
HETATM   12  N   UNL     1     -40.950  59.500 -53.020  1.00  0.00    -0.252 NA
HETATM   13  H   UNL     1     -40.073  59.091 -52.704  1.00  0.00     0.131 HD
BRANCH  12  14
HETATM   14  C   UNL     1     -41.932  59.689 -51.959  1.00  0.00     0.199 C 
BRANCH  14  15
HETATM   15  C   UNL     1     -41.502  59.030 -50.644  1.00  0.00     0.245 C 
HETATM   16  N   UNL     1     -41.834  57.682 -50.576  1.00  0.00    -0.286 N 
HETATM   17  H   UNL     1     -42.029  57.132 -51.407  1.00  0.00     0.184 HD
HETATM   18  O   UNL     1     -40.954  59.623 -49.714  1.00  0.00    -0.271 OA
BRANCH  16  19
HETATM   19  N   UNL     1     -41.339  56.952 -49.476  1.00  0.00    -0.203 NA
HETATM   20  H   UNL     1     -42.059  56.919 -48.737  1.00  0.00     0.153 HD
BRANCH  19  21
HETATM   21  C   UNL     1     -40.987  55.610 -49.788  1.00  0.00     0.027 A 
HETATM   22  C   UNL     1     -40.876  54.704 -48.724  1.00  0.00     0.026 A 
HETATM   23  C   UNL     1     -40.603  53.351 -48.951  1.00  0.00     0.008 A 
HETATM   24  C   UNL     1     -40.446  52.872 -50.254  1.00  0.00    -0.062 A 
HETATM   25  C   UNL     1     -40.200  51.414 -50.509  1.00  0.00     0.048 C 
HETATM   26  C   UNL     1     -40.592  53.762 -51.323  1.00  0.00     0.008 A 
HETATM   27  C   UNL     1     -40.861  55.116 -51.092  1.00  0.00     0.026 A 
ENDBRANCH  19  21
ENDBRANCH  16  19
ENDBRANCH  14  15
ENDBRANCH  12  14
ENDBRANCH   1  12
BRANCH   3  28
HETATM   28  C   UNL     1     -41.488  55.168 -54.838  1.00  0.00    -0.006 A 
HETATM   29  C   UNL     1     -42.567  54.329 -54.509  1.00  0.00     0.014 A 
HETATM   30  C   UNL     1     -42.387  52.953 -54.341  1.00  0.00     0.001 A 
HETATM   31  C   UNL     1     -41.121  52.393 -54.494  1.00  0.00     0.000 A 
HETATM   32  C   UNL     1     -40.034  53.207 -54.803  1.00  0.00     0.001 A 
HETATM   33  C   UNL     1     -40.215  54.584 -54.965  1.00  0.00     0.014 A 
ENDBRANCH   3  28
TORSDOF 6
ENDMDL
MODEL 3
REMARK VINA RESULT:      -8.2      1.227      1.490
REMARK  6 active torsions:
REMARK  status: ('A' for Active; 'I' for Inactive)
REMARK    1  A    between atoms: C_5  and  N_6 
REMARK    2  A    between atoms: N_6  and  N_7 
REMARK       I    between atoms: N_7  and  C_8 
REMARK    3  A    between atoms: C_8  and  C_9 
REMARK    4  A    between atoms: C_9  and  N_10 
REMARK    5  A    between atoms: N_10  and  C_11 
REMARK    6  A    between atoms: C_13  and  C_14 
ROOT
HETATM    1  C   UNL     1     -41.758  58.939 -54.661  1.00  0.00     0.203 A 
HETATM    2  N   UNL     1     -41.562  57.647 -54.401  1.00  0.00    -0.217 NA
HETATM    3  C   UNL     1     -41.870  56.760 -55.376  1.00  0.00     0.083 A 
HETATM    4  C   UNL     1     -42.415  57.147 -56.613  1.00  0.00     0.023 A 
HETATM    5  C   UNL     1     -42.559  58.528 -56.769  1.00  0.00     0.072 A 
HETATM    6  N   UNL     1     -42.236  59.407 -55.816  1.00  0.00    -0.218 NA
HETATM    7  C   UNL     1     -42.832  56.281 -57.662  1.00  0.00     0.023 A 
HETATM    8  C   UNL     1     -43.365  56.784 -58.853  1.00  0.00    -0.061 A 
HETATM    9  C   UNL     1     -43.783  55.869 -59.965  1.00  0.00     0.048 C 
HETATM   10  C   UNL     1     -43.467  58.164 -59.003  1.00  0.00     0.009 A 
HETATM   11  C   UNL     1     -43.073  59.013 -57.964  1.00  0.00     0.033 A 
ENDROOT
BRANCH   1  12
HETATM   12  N   UNL     1     -41.524  59.902 -53.690  1.00  0.00    -0.252 NA
HETATM   13  H   UNL     1     -40.852  59.466 -53.063  1.00  0.00     0.131 HD
BRANCH  12  14
HETATM   14  C   UNL     1     -42.710  60.420 -53.020  1.00  0.00     0.199 C 
BRANCH  14  15
HETATM   15  C   UNL     1     -43.046  59.638 -51.746  1.00  0.00     0.245 C 
HETATM   16  N   UNL     1     -43.617  58.397 -52.003  1.00  0.00    -0.286 N 
HETATM   17  H   UNL     1     -43.516  57.932 -52.900  1.00  0.00     0.184 HD
HETATM   18  O   UNL     1     -42.875  60.062 -50.602  1.00  0.00    -0.271 OA
BRANCH  16  19
HETATM   19  N   UNL     1     -43.813  57.538 -50.902  1.00  0.00    -0.203 NA
HETATM   20  H   UNL     1     -44.803  57.248 -50.868  1.00  0.00     0.153 HD
BRANCH  19  21
HETATM   21  C   UNL     1     -43.025  56.354 -50.948  1.00  0.00     0.027 A 
HETATM   22  C   UNL     1     -41.632  56.498 -50.892  1.00  0.00     0.026 A 
HETATM   23  C   UNL     1     -40.791  55.382 -50.861  1.00  0.00     0.008 A 
HETATM   24  C   UNL     1     -41.327  54.092 -50.874  1.00  0.00    -0.062 A 
HETATM   25  C   UNL     1     -40.434  52.890 -50.793  1.00  0.00     0.048 C 
HETATM   26  C   UNL     1     -42.718  53.939 -50.893  1.00  0.00     0.008 A 
HETATM   27  C   UNL     1     -43.557  55.059 -50.928  1.00  0.00     0.026 A 
ENDBRANCH  19  21
ENDBRANCH  16  19
ENDBRANCH  14  15
ENDBRANCH  12  14
ENDBRANCH   1  12
BRANCH   3  28
HETATM   28  C   UNL     1     -41.591  55.360 -55.005  1.00  0.00    -0.006 A 
HETATM   29  C   UNL     1     -42.644  54.478 -54.709  1.00  0.00     0.014 A 
HETATM   30  C   UNL     1     -42.396  53.149 -54.357  1.00  0.00     0.001 A 
HETATM   31  C   UNL     1     -41.087  52.679 -54.289  1.00  0.00     0.000 A 
HETATM   32  C   UNL     1     -40.026  53.540 -54.561  1.00  0.00     0.001 A 
HETATM   33  C   UNL     1     -40.275  54.870 -54.907  1.00  0.00     0.014 A 
ENDBRANCH   3  28
TORSDOF 6
ENDMDL
MODEL 4
REMARK VINA RESULT:      -8.2      2.375      5.879
REMARK  6 active torsions:
REMARK  status: ('A' for Active; 'I' for Inactive)
REMARK    1  A    between atoms: C_5  and  N_6 
REMARK    2  A    between atoms: N_6  and  N_7 
REMARK       I    between atoms: N_7  and  C_8 
REMARK    3  A    between atoms: C_8  and  C_9 
REMARK    4  A    between atoms: C_9  and  N_10 
REMARK    5  A    between atoms: N_10  and  C_11 
REMARK    6  A    between atoms: C_13  and  C_14 
ROOT
HETATM    1  C   UNL     1     -41.282  55.142 -54.762  1.00  0.00     0.203 A 
HETATM    2  N   UNL     1     -40.864  53.890 -54.579  1.00  0.00    -0.217 NA
HETATM    3  C   UNL     1     -40.684  53.472 -53.304  1.00  0.00     0.083 A 
HETATM    4  C   UNL     1     -40.883  54.310 -52.193  1.00  0.00     0.023 A 
HETATM    5  C   UNL     1     -41.334  55.592 -52.515  1.00  0.00     0.072 A 
HETATM    6  N   UNL     1     -41.533  56.001 -53.771  1.00  0.00    -0.218 NA
HETATM    7  C   UNL     1     -40.650  53.975 -50.830  1.00  0.00     0.023 A 
HETATM    8  C   UNL     1     -40.882  54.897 -49.805  1.00  0.00    -0.061 A 
HETATM    9  C   UNL     1     -40.658  54.534 -48.367  1.00  0.00     0.048 C 
HETATM   10  C   UNL     1     -41.366  56.158 -50.143  1.00  0.00     0.009 A 
HETATM   11  C   UNL     1     -41.578  56.490 -51.484  1.00  0.00     0.033 A 
ENDROOT
BRANCH   1  12
HETATM   12  N   UNL     1     -41.431  55.662 -56.040  1.00  0.00    -0.252 NA
HETATM   13  H   UNL     1     -41.067  56.609 -55.968  1.00  0.00     0.131 HD
BRANCH  12  14
HETATM   14  C   UNL     1     -42.775  55.584 -56.597  1.00  0.00     0.199 C 
BRANCH  14  15
HETATM   15  C   UNL     1     -43.586  56.859 -56.340  1.00  0.00     0.245 C 
HETATM   16  N   UNL     1     -44.318  56.811 -55.159  1.00  0.00    -0.286 N 
HETATM   17  H   UNL     1     -44.088  56.167 -54.408  1.00  0.00     0.184 HD
HETATM   18  O   UNL     1     -43.632  57.822 -57.106  1.00  0.00    -0.271 OA
BRANCH  16  19
HETATM   19  N   UNL     1     -44.967  57.995 -54.755  1.00  0.00    -0.203 NA
HETATM   20  H   UNL     1     -45.915  57.765 -54.417  1.00  0.00     0.153 HD
BRANCH  19  21
HETATM   21  C   UNL     1     -44.299  58.691 -53.710  1.00  0.00     0.027 A 
HETATM   22  C   UNL     1     -44.818  58.568 -52.414  1.00  0.00     0.026 A 
HETATM   23  C   UNL     1     -44.180  59.163 -51.320  1.00  0.00     0.008 A 
HETATM   24  C   UNL     1     -42.998  59.886 -51.500  1.00  0.00    -0.062 A 
HETATM   25  C   UNL     1     -42.282  60.488 -50.327  1.00  0.00     0.048 C 
HETATM   26  C   UNL     1     -42.454  59.982 -52.785  1.00  0.00     0.008 A 
HETATM   27  C   UNL     1     -43.097  59.390 -53.878  1.00  0.00     0.026 A 
ENDBRANCH  19  21
ENDBRANCH  16  19
ENDBRANCH  14  15
ENDBRANCH  12  14
ENDBRANCH   1  12
BRANCH   3  28
HETATM   28  C   UNL     1     -40.250  52.066 -53.205  1.00  0.00    -0.006 A 
HETATM   29  C   UNL     1     -40.312  51.220 -54.326  1.00  0.00     0.014 A 
HETATM   30  C   UNL     1     -39.903  49.886 -54.248  1.00  0.00     0.001 A 
HETATM   31  C   UNL     1     -39.430  49.372 -53.044  1.00  0.00     0.000 A 
HETATM   32  C   UNL     1     -39.376  50.186 -51.915  1.00  0.00     0.001 A 
HETATM   33  C   UNL     1     -39.790  51.519 -51.993  1.00  0.00     0.014 A 
ENDBRANCH   3  28
TORSDOF 6
ENDMDL
MODEL 5
REMARK VINA RESULT:      -8.0      2.827      7.908
REMARK  6 active torsions:
REMARK  status: ('A' for Active; 'I' for Inactive)
REMARK    1  A    between atoms: C_5  and  N_6 
REMARK    2  A    between atoms: N_6  and  N_7 
REMARK       I    between atoms: N_7  and  C_8 
REMARK    3  A    between atoms: C_8  and  C_9 
REMARK    4  A    between atoms: C_9  and  N_10 
REMARK    5  A    between atoms: N_10  and  C_11 
REMARK    6  A    between atoms: C_13  and  C_14 
ROOT
HETATM    1  C   UNL     1     -41.324  55.288 -54.485  1.00  0.00     0.203 A 
HETATM    2  N   UNL     1     -40.912  54.024 -54.390  1.00  0.00    -0.217 NA
HETATM    3  C   UNL     1     -40.699  53.529 -53.149  1.00  0.00     0.083 A 
HETATM    4  C   UNL     1     -40.858  54.299 -51.984  1.00  0.00     0.023 A 
HETATM    5  C   UNL     1     -41.307  55.601 -52.214  1.00  0.00     0.072 A 
HETATM    6  N   UNL     1     -41.538  56.088 -53.437  1.00  0.00    -0.218 NA
HETATM    7  C   UNL     1     -40.590  53.881 -50.650  1.00  0.00     0.023 A 
HETATM    8  C   UNL     1     -40.785  54.741 -49.565  1.00  0.00    -0.061 A 
HETATM    9  C   UNL     1     -40.522  54.290 -48.159  1.00  0.00     0.048 C 
HETATM   10  C   UNL     1     -41.267  56.023 -49.813  1.00  0.00     0.009 A 
HETATM   11  C   UNL     1     -41.513  56.438 -51.125  1.00  0.00     0.033 A 
ENDROOT
BRANCH   1  12
HETATM   12  N   UNL     1     -41.504  55.885 -55.725  1.00  0.00    -0.252 NA
HETATM   13  H   UNL     1     -41.132  56.824 -55.606  1.00  0.00     0.131 HD
BRANCH  12  14
HETATM   14  C   UNL     1     -42.864  55.849 -56.247  1.00  0.00     0.199 C 
BRANCH  14  15
HETATM   15  C   UNL     1     -43.145  56.999 -57.219  1.00  0.00     0.245 C 
HETATM   16  N   UNL     1     -44.483  57.090 -57.585  1.00  0.00    -0.286 N 
HETATM   17  H   UNL     1     -45.224  56.671 -57.030  1.00  0.00     0.184 HD
HETATM   18  O   UNL     1     -42.284  57.752 -57.675  1.00  0.00    -0.271 OA
BRANCH  16  19
HETATM   19  N   UNL     1     -44.868  58.212 -58.347  1.00  0.00    -0.203 NA
HETATM   20  H   UNL     1     -44.031  58.633 -58.780  1.00  0.00     0.153 HD
BRANCH  19  21
HETATM   21  C   UNL     1     -45.783  57.911 -59.393  1.00  0.00     0.027 A 
HETATM   22  C   UNL     1     -45.966  56.562 -59.728  1.00  0.00     0.026 A 
HETATM   23  C   UNL     1     -46.899  56.177 -60.697  1.00  0.00     0.008 A 
HETATM   24  C   UNL     1     -47.680  57.137 -61.346  1.00  0.00    -0.062 A 
HETATM   25  C   UNL     1     -48.715  56.730 -62.352  1.00  0.00     0.048 C 
HETATM   26  C   UNL     1     -47.529  58.482 -60.992  1.00  0.00     0.008 A 
HETATM   27  C   UNL     1     -46.592  58.864 -60.025  1.00  0.00     0.026 A 
ENDBRANCH  19  21
ENDBRANCH  16  19
ENDBRANCH  14  15
ENDBRANCH  12  14
ENDBRANCH   1  12
BRANCH   3  28
HETATM   28  C   UNL     1     -40.275  52.116 -53.146  1.00  0.00    -0.006 A 
HETATM   29  C   UNL     1     -39.786  51.521 -51.970  1.00  0.00     0.014 A 
HETATM   30  C   UNL     1     -39.381  50.184 -51.951  1.00  0.00     0.001 A 
HETATM   31  C   UNL     1     -39.452  49.419 -53.112  1.00  0.00     0.000 A 
HETATM   32  C   UNL     1     -39.916  49.992 -54.294  1.00  0.00     0.001 A 
HETATM   33  C   UNL     1     -40.316  51.331 -54.313  1.00  0.00     0.014 A 
ENDBRANCH   3  28
TORSDOF 6
ENDMDL
MODEL 6
REMARK VINA RESULT:      -7.9      3.317      7.948
REMARK  6 active torsions:
REMARK  status: ('A' for Active; 'I' for Inactive)
REMARK    1  A    between atoms: C_5  and  N_6 
REMARK    2  A    between atoms: N_6  and  N_7 
REMARK       I    between atoms: N_7  and  C_8 
REMARK    3  A    between atoms: C_8  and  C_9 
REMARK    4  A    between atoms: C_9  and  N_10 
REMARK    5  A    between atoms: N_10  and  C_11 
REMARK    6  A    between atoms: C_13  and  C_14 
ROOT
HETATM    1  C   UNL     1     -41.319  55.243 -54.502  1.00  0.00     0.203 A 
HETATM    2  N   UNL     1     -40.898  53.982 -54.406  1.00  0.00    -0.217 NA
HETATM    3  C   UNL     1     -40.683  53.488 -53.163  1.00  0.00     0.083 A 
HETATM    4  C   UNL     1     -40.849  54.258 -51.999  1.00  0.00     0.023 A 
HETATM    5  C   UNL     1     -41.306  55.557 -52.232  1.00  0.00     0.072 A 
HETATM    6  N   UNL     1     -41.539  56.041 -53.455  1.00  0.00    -0.218 NA
HETATM    7  C   UNL     1     -40.579  53.843 -50.665  1.00  0.00     0.023 A 
HETATM    8  C   UNL     1     -40.781  54.703 -49.581  1.00  0.00    -0.061 A 
HETATM    9  C   UNL     1     -40.516  54.254 -48.174  1.00  0.00     0.048 C 
HETATM   10  C   UNL     1     -41.271  55.981 -49.830  1.00  0.00     0.009 A 
HETATM   11  C   UNL     1     -41.519  56.393 -51.143  1.00  0.00     0.033 A 
ENDROOT
BRANCH   1  12
HETATM   12  N   UNL     1     -41.502  55.837 -55.742  1.00  0.00    -0.252 NA
HETATM   13  H   UNL     1     -41.117  56.772 -55.630  1.00  0.00     0.131 HD
BRANCH  12  14
HETATM   14  C   UNL     1     -42.866  55.816 -56.253  1.00  0.00     0.199 C 
BRANCH  14  15
HETATM   15  C   UNL     1     -42.933  56.145 -57.748  1.00  0.00     0.245 C 
HETATM   16  N   UNL     1     -42.068  57.167 -58.121  1.00  0.00    -0.286 N 
HETATM   17  H   UNL     1     -41.265  57.428 -57.555  1.00  0.00     0.184 HD
HETATM   18  O   UNL     1     -43.696  55.601 -58.548  1.00  0.00    -0.271 OA
BRANCH  16  19
HETATM   19  N   UNL     1     -41.939  57.431 -59.500  1.00  0.00    -0.203 NA
HETATM   20  H   UNL     1     -42.722  56.989 -60.006  1.00  0.00     0.153 HD
BRANCH  19  21
HETATM   21  C   UNL     1     -41.950  58.815 -59.824  1.00  0.00     0.027 A 
HETATM   22  C   UNL     1     -41.926  59.731 -58.764  1.00  0.00     0.026 A 
HETATM   23  C   UNL     1     -41.864  61.109 -58.999  1.00  0.00     0.008 A 
HETATM   24  C   UNL     1     -41.814  61.601 -60.306  1.00  0.00    -0.062 A 
HETATM   25  C   UNL     1     -41.701  63.073 -60.567  1.00  0.00     0.048 C 
HETATM   26  C   UNL     1     -41.802  60.692 -61.369  1.00  0.00     0.008 A 
HETATM   27  C   UNL     1     -41.868  59.314 -61.131  1.00  0.00     0.026 A 
ENDBRANCH  19  21
ENDBRANCH  16  19
ENDBRANCH  14  15
ENDBRANCH  12  14
ENDBRANCH   1  12
BRANCH   3  28
HETATM   28  C   UNL     1     -40.249  52.079 -53.160  1.00  0.00    -0.006 A 
HETATM   29  C   UNL     1     -39.777  51.482 -51.978  1.00  0.00     0.014 A 
HETATM   30  C   UNL     1     -39.364  50.148 -51.957  1.00  0.00     0.001 A 
HETATM   31  C   UNL     1     -39.409  49.387 -53.122  1.00  0.00     0.000 A 
HETATM   32  C   UNL     1     -39.856  49.961 -54.310  1.00  0.00     0.001 A 
HETATM   33  C   UNL     1     -40.265  51.298 -54.330  1.00  0.00     0.014 A 
ENDBRANCH   3  28
TORSDOF 6
ENDMDL
MODEL 7
REMARK VINA RESULT:      -7.8      2.579      4.638
REMARK  6 active torsions:
REMARK  status: ('A' for Active; 'I' for Inactive)
REMARK    1  A    between atoms: C_5  and  N_6 
REMARK    2  A    between atoms: N_6  and  N_7 
REMARK       I    between atoms: N_7  and  C_8 
REMARK    3  A    between atoms: C_8  and  C_9 
REMARK    4  A    between atoms: C_9  and  N_10 
REMARK    5  A    between atoms: N_10  and  C_11 
REMARK    6  A    between atoms: C_13  and  C_14 
ROOT
HETATM    1  C   UNL     1     -42.500  58.619 -55.807  1.00  0.00     0.203 A 
HETATM    2  N   UNL     1     -43.177  57.784 -56.595  1.00  0.00    -0.217 NA
HETATM    3  C   UNL     1     -43.189  58.051 -57.922  1.00  0.00     0.083 A 
HETATM    4  C   UNL     1     -42.557  59.176 -58.478  1.00  0.00     0.023 A 
HETATM    5  C   UNL     1     -41.871  59.965 -57.552  1.00  0.00     0.072 A 
HETATM    6  N   UNL     1     -41.839  59.693 -56.244  1.00  0.00    -0.218 NA
HETATM    7  C   UNL     1     -42.580  59.569 -59.846  1.00  0.00     0.023 A 
HETATM    8  C   UNL     1     -41.912  60.717 -60.284  1.00  0.00    -0.061 A 
HETATM    9  C   UNL     1     -41.919  61.115 -61.730  1.00  0.00     0.048 C 
HETATM   10  C   UNL     1     -41.204  61.469 -59.352  1.00  0.00     0.009 A 
HETATM   11  C   UNL     1     -41.198  61.092 -58.006  1.00  0.00     0.033 A 
ENDROOT
BRANCH   1  12
HETATM   12  N   UNL     1     -42.493  58.447 -54.430  1.00  0.00    -0.252 NA
HETATM   13  H   UNL     1     -43.032  59.234 -54.077  1.00  0.00     0.131 HD
BRANCH  12  14
HETATM   14  C   UNL     1     -41.175  58.310 -53.821  1.00  0.00     0.199 C 
BRANCH  14  15
HETATM   15  C   UNL     1     -41.183  57.352 -52.626  1.00  0.00     0.245 C 
HETATM   16  N   UNL     1     -41.376  56.025 -52.992  1.00  0.00    -0.286 N 
HETATM   17  H   UNL     1     -41.199  55.695 -53.937  1.00  0.00     0.184 HD
HETATM   18  O   UNL     1     -41.072  57.703 -51.451  1.00  0.00    -0.271 OA
BRANCH  16  19
HETATM   19  N   UNL     1     -41.237  55.051 -51.983  1.00  0.00    -0.203 NA
HETATM   20  H   UNL     1     -42.144  54.925 -51.505  1.00  0.00     0.153 HD
BRANCH  19  21
HETATM   21  C   UNL     1     -40.828  53.777 -52.463  1.00  0.00     0.027 A 
HETATM   22  C   UNL     1     -41.224  53.413 -53.757  1.00  0.00     0.026 A 
HETATM   23  C   UNL     1     -40.804  52.208 -54.330  1.00  0.00     0.008 A 
HETATM   24  C   UNL     1     -39.968  51.342 -53.621  1.00  0.00    -0.062 A 
HETATM   25  C   UNL     1     -39.475  50.070 -54.245  1.00  0.00     0.048 C 
HETATM   26  C   UNL     1     -39.538  51.715 -52.343  1.00  0.00     0.008 A 
HETATM   27  C   UNL     1     -39.963  52.920 -51.771  1.00  0.00     0.026 A 
ENDBRANCH  19  21
ENDBRANCH  16  19
ENDBRANCH  14  15
ENDBRANCH  12  14
ENDBRANCH   1  12
BRANCH   3  28
HETATM   28  C   UNL     1     -43.937  57.055 -58.712  1.00  0.00    -0.006 A 
HETATM   29  C   UNL     1     -43.308  55.879 -59.155  1.00  0.00     0.014 A 
HETATM   30  C   UNL     1     -44.003  54.925 -59.904  1.00  0.00     0.001 A 
HETATM   31  C   UNL     1     -45.340  55.135 -60.229  1.00  0.00     0.000 A 
HETATM   32  C   UNL     1     -45.980  56.302 -59.817  1.00  0.00     0.001 A 
HETATM   33  C   UNL     1     -45.282  57.257 -59.073  1.00  0.00     0.014 A 
ENDBRANCH   3  28
TORSDOF 6
ENDMDL
MODEL 8
REMARK VINA RESULT:      -7.6      3.093      7.888
REMARK  6 active torsions:
REMARK  status: ('A' for Active; 'I' for Inactive)
REMARK    1  A    between atoms: C_5  and  N_6 
REMARK    2  A    between atoms: N_6  and  N_7 
REMARK       I    between atoms: N_7  and  C_8 
REMARK    3  A    between atoms: C_8  and  C_9 
REMARK    4  A    between atoms: C_9  and  N_10 
REMARK    5  A    between atoms: N_10  and  C_11 
REMARK    6  A    between atoms: C_13  and  C_14 
ROOT
HETATM    1  C   UNL     1     -41.379  55.267 -54.487  1.00  0.00     0.203 A 
HETATM    2  N   UNL     1     -40.958  54.005 -54.399  1.00  0.00    -0.217 NA
HETATM    3  C   UNL     1     -40.725  53.510 -53.161  1.00  0.00     0.083 A 
HETATM    4  C   UNL     1     -40.873  54.278 -51.993  1.00  0.00     0.023 A 
HETATM    5  C   UNL     1     -41.334  55.578 -52.217  1.00  0.00     0.072 A 
HETATM    6  N   UNL     1     -41.585  56.064 -53.436  1.00  0.00    -0.218 NA
HETATM    7  C   UNL     1     -40.584  53.861 -50.664  1.00  0.00     0.023 A 
HETATM    8  C   UNL     1     -40.770  54.719 -49.576  1.00  0.00    -0.061 A 
HETATM    9  C   UNL     1     -40.485  54.268 -48.174  1.00  0.00     0.048 C 
HETATM   10  C   UNL     1     -41.263  55.998 -49.815  1.00  0.00     0.009 A 
HETATM   11  C   UNL     1     -41.530  56.412 -51.123  1.00  0.00     0.033 A 
ENDROOT
BRANCH   1  12
HETATM   12  N   UNL     1     -41.580  55.864 -55.724  1.00  0.00    -0.252 NA
HETATM   13  H   UNL     1     -41.446  56.856 -55.546  1.00  0.00     0.131 HD
BRANCH  12  14
HETATM   14  C   UNL     1     -42.843  55.544 -56.377  1.00  0.00     0.199 C 
BRANCH  14  15
HETATM   15  C   UNL     1     -42.903  56.068 -57.816  1.00  0.00     0.245 C 
HETATM   16  N   UNL     1     -41.974  57.071 -58.070  1.00  0.00    -0.286 N 
HETATM   17  H   UNL     1     -41.150  57.202 -57.491  1.00  0.00     0.184 HD
HETATM   18  O   UNL     1     -43.709  55.685 -58.664  1.00  0.00    -0.271 OA
BRANCH  16  19
HETATM   19  N   UNL     1     -41.842  57.503 -59.405  1.00  0.00    -0.203 NA
HETATM   20  H   UNL     1     -42.389  56.881 -60.021  1.00  0.00     0.153 HD
BRANCH  19  21
HETATM   21  C   UNL     1     -42.300  58.831 -59.628  1.00  0.00     0.027 A 
HETATM   22  C   UNL     1     -43.265  59.026 -60.625  1.00  0.00     0.026 A 
HETATM   23  C   UNL     1     -43.818  60.290 -60.859  1.00  0.00     0.008 A 
HETATM   24  C   UNL     1     -43.423  61.387 -60.090  1.00  0.00    -0.062 A 
HETATM   25  C   UNL     1     -44.044  62.735 -60.302  1.00  0.00     0.048 C 
HETATM   26  C   UNL     1     -42.487  61.194 -59.068  1.00  0.00     0.008 A 
HETATM   27  C   UNL     1     -41.932  59.929 -58.840  1.00  0.00     0.026 A 
ENDBRANCH  19  21
ENDBRANCH  16  19
ENDBRANCH  14  15
ENDBRANCH  12  14
ENDBRANCH   1  12
BRANCH   3  28
HETATM   28  C   UNL     1     -40.291  52.100 -53.166  1.00  0.00    -0.006 A 
HETATM   29  C   UNL     1     -39.796  51.504 -51.994  1.00  0.00     0.014 A 
HETATM   30  C   UNL     1     -39.382  50.169 -51.982  1.00  0.00     0.001 A 
HETATM   31  C   UNL     1     -39.451  49.408 -53.146  1.00  0.00     0.000 A 
HETATM   32  C   UNL     1     -39.922  49.983 -54.324  1.00  0.00     0.001 A 
HETATM   33  C   UNL     1     -40.330  51.320 -54.336  1.00  0.00     0.014 A 
ENDBRANCH   3  28
TORSDOF 6
ENDMDL
MODEL 9
REMARK VINA RESULT:      -7.6      2.588      5.806
REMARK  6 active torsions:
REMARK  status: ('A' for Active; 'I' for Inactive)
REMARK    1  A    between atoms: C_5  and  N_6 
REMARK    2  A    between atoms: N_6  and  N_7 
REMARK       I    between atoms: N_7  and  C_8 
REMARK    3  A    between atoms: C_8  and  C_9 
REMARK    4  A    between atoms: C_9  and  N_10 
REMARK    5  A    between atoms: N_10  and  C_11 
REMARK    6  A    between atoms: C_13  and  C_14 
ROOT
HETATM    1  C   UNL     1     -42.200  60.175 -54.546  1.00  0.00     0.203 A 
HETATM    2  N   UNL     1     -42.101  59.017 -53.892  1.00  0.00    -0.217 NA
HETATM    3  C   UNL     1     -42.543  58.984 -52.613  1.00  0.00     0.083 A 
HETATM    4  C   UNL     1     -43.055  60.115 -51.954  1.00  0.00     0.023 A 
HETATM    5  C   UNL     1     -43.120  61.261 -52.750  1.00  0.00     0.072 A 
HETATM    6  N   UNL     1     -42.705  61.293 -54.019  1.00  0.00    -0.218 NA
HETATM    7  C   UNL     1     -43.474  60.185 -50.596  1.00  0.00     0.023 A 
HETATM    8  C   UNL     1     -43.967  61.373 -50.048  1.00  0.00    -0.061 A 
HETATM    9  C   UNL     1     -44.428  61.438 -48.622  1.00  0.00     0.048 C 
HETATM   10  C   UNL     1     -44.057  62.495 -50.867  1.00  0.00     0.009 A 
HETATM   11  C   UNL     1     -43.629  62.428 -52.195  1.00  0.00     0.033 A 
ENDROOT
BRANCH   1  12
HETATM   12  N   UNL     1     -41.712  60.303 -55.839  1.00  0.00    -0.252 NA
HETATM   13  H   UNL     1     -41.423  61.277 -55.900  1.00  0.00     0.131 HD
BRANCH  12  14
HETATM   14  C   UNL     1     -42.624  59.888 -56.898  1.00  0.00     0.199 C 
BRANCH  14  15
HETATM   15  C   UNL     1     -42.518  58.390 -57.202  1.00  0.00     0.245 C 
HETATM   16  N   UNL     1     -43.109  57.592 -56.230  1.00  0.00    -0.286 N 
HETATM   17  H   UNL     1     -43.804  57.955 -55.584  1.00  0.00     0.184 HD
HETATM   18  O   UNL     1     -41.938  57.917 -58.180  1.00  0.00    -0.271 OA
BRANCH  16  19
HETATM   19  N   UNL     1     -43.204  56.212 -56.499  1.00  0.00    -0.203 NA
HETATM   20  H   UNL     1     -42.842  56.024 -57.447  1.00  0.00     0.153 HD
BRANCH  19  21
HETATM   21  C   UNL     1     -42.471  55.396 -55.594  1.00  0.00     0.027 A 
HETATM   22  C   UNL     1     -42.998  54.135 -55.284  1.00  0.00     0.026 A 
HETATM   23  C   UNL     1     -42.304  53.244 -54.458  1.00  0.00     0.008 A 
HETATM   24  C   UNL     1     -41.058  53.594 -53.932  1.00  0.00    -0.062 A 
HETATM   25  C   UNL     1     -40.286  52.627 -53.084  1.00  0.00     0.048 C 
HETATM   26  C   UNL     1     -40.509  54.836 -54.266  1.00  0.00     0.008 A 
HETATM   27  C   UNL     1     -41.207  55.727 -55.090  1.00  0.00     0.026 A 
ENDBRANCH  19  21
ENDBRANCH  16  19
ENDBRANCH  14  15
ENDBRANCH  12  14
ENDBRANCH   1  12
BRANCH   3  28
HETATM   28  C   UNL     1     -42.419  57.655 -51.985  1.00  0.00    -0.006 A 
HETATM   29  C   UNL     1     -41.282  57.330 -51.225  1.00  0.00     0.014 A 
HETATM   30  C   UNL     1     -41.151  56.076 -50.622  1.00  0.00     0.001 A 
HETATM   31  C   UNL     1     -42.152  55.121 -50.776  1.00  0.00     0.000 A 
HETATM   32  C   UNL     1     -43.279  55.414 -51.540  1.00  0.00     0.001 A 
HETATM   33  C   UNL     1     -43.407  56.667 -52.146  1.00  0.00     0.014 A 
ENDBRANCH   3  28
TORSDOF 6
ENDMDL
MODEL 10
REMARK VINA RESULT:      -7.4      2.821      7.876
REMARK  6 active torsions:
REMARK  status: ('A' for Active; 'I' for Inactive)
REMARK    1  A    between atoms: C_5  and  N_6 
REMARK    2  A    between atoms: N_6  and  N_7 
REMARK       I    between atoms: N_7  and  C_8 
REMARK    3  A    between atoms: C_8  and  C_9 
REMARK    4  A    between atoms: C_9  and  N_10 
REMARK    5  A    between atoms: N_10  and  C_11 
REMARK    6  A    between atoms: C_13  and  C_14 
ROOT
HETATM    1  C   UNL     1     -41.234  55.237 -54.474  1.00  0.00     0.203 A 
HETATM    2  N   UNL     1     -40.831  53.970 -54.377  1.00  0.00    -0.217 NA
HETATM    3  C   UNL     1     -40.637  53.471 -53.133  1.00  0.00     0.083 A 
HETATM    4  C   UNL     1     -40.805  54.240 -51.969  1.00  0.00     0.023 A 
HETATM    5  C   UNL     1     -41.242  55.546 -52.203  1.00  0.00     0.072 A 
HETATM    6  N   UNL     1     -41.455  56.036 -53.428  1.00  0.00    -0.218 NA
HETATM    7  C   UNL     1     -40.555  53.819 -50.633  1.00  0.00     0.023 A 
HETATM    8  C   UNL     1     -40.757  54.678 -49.549  1.00  0.00    -0.061 A 
HETATM    9  C   UNL     1     -40.515  54.223 -48.141  1.00  0.00     0.048 C 
HETATM   10  C   UNL     1     -41.228  55.964 -49.801  1.00  0.00     0.009 A 
HETATM   11  C   UNL     1     -41.456  56.382 -51.115  1.00  0.00     0.033 A 
ENDROOT
BRANCH   1  12
HETATM   12  N   UNL     1     -41.395  55.837 -55.715  1.00  0.00    -0.252 NA
HETATM   13  H   UNL     1     -41.360  56.834 -55.516  1.00  0.00     0.131 HD
BRANCH  12  14
HETATM   14  C   UNL     1     -42.574  55.423 -56.464  1.00  0.00     0.199 C 
BRANCH  14  15
HETATM   15  C   UNL     1     -43.488  56.603 -56.809  1.00  0.00     0.245 C 
HETATM   16  N   UNL     1     -43.535  56.876 -58.171  1.00  0.00    -0.286 N 
HETATM   17  H   UNL     1     -43.272  56.187 -58.869  1.00  0.00     0.184 HD
HETATM   18  O   UNL     1     -44.097  57.279 -55.979  1.00  0.00    -0.271 OA
BRANCH  16  19
HETATM   19  N   UNL     1     -44.471  57.838 -58.603  1.00  0.00    -0.203 NA
HETATM   20  H   UNL     1     -44.787  58.394 -57.793  1.00  0.00     0.153 HD
BRANCH  19  21
HETATM   21  C   UNL     1     -43.959  58.747 -59.570  1.00  0.00     0.027 A 
HETATM   22  C   UNL     1     -42.575  58.748 -59.790  1.00  0.00     0.026 A 
HETATM   23  C   UNL     1     -42.000  59.561 -60.773  1.00  0.00     0.008 A 
HETATM   24  C   UNL     1     -42.802  60.385 -61.566  1.00  0.00    -0.062 A 
HETATM   25  C   UNL     1     -42.199  61.225 -62.653  1.00  0.00     0.048 C 
HETATM   26  C   UNL     1     -44.188  60.362 -61.377  1.00  0.00     0.008 A 
HETATM   27  C   UNL     1     -44.760  59.551 -60.391  1.00  0.00     0.026 A 
ENDBRANCH  19  21
ENDBRANCH  16  19
ENDBRANCH  14  15
ENDBRANCH  12  14
ENDBRANCH   1  12
BRANCH   3  28
HETATM   28  C   UNL     1     -40.222  52.056 -53.128  1.00  0.00    -0.006 A 
HETATM   29  C   UNL     1     -39.783  51.446 -51.940  1.00  0.00     0.014 A 
HETATM   30  C   UNL     1     -39.388  50.106 -51.918  1.00  0.00     0.001 A 
HETATM   31  C   UNL     1     -39.419  49.352 -53.088  1.00  0.00     0.000 A 
HETATM   32  C   UNL     1     -39.833  49.939 -54.282  1.00  0.00     0.001 A 
HETATM   33  C   UNL     1     -40.223  51.281 -54.303  1.00  0.00     0.014 A 
ENDBRANCH   3  28
TORSDOF 6
ENDMDL
