MODEL 1
REMARK VINA RESULT:      -8.6      0.000      0.000
REMARK  7 active torsions:
REMARK  status: ('A' for Active; 'I' for Inactive)
REMARK    1  A    between atoms: C_5  and  O_6 
REMARK    2  A    between atoms: O_6  and  C_7 
REMARK    3  A    between atoms: C_7  and  C_8 
REMARK       I    between atoms: C_8  and  N_9 
REMARK    4  A    between atoms: N_9  and  N_10 
REMARK       I    between atoms: N_10  and  C_11 
REMARK    5  A    between atoms: C_11  and  C_12 
REMARK    6  A    between atoms: C_14  and  C_15 
REMARK    7  A    between atoms: C_22  and  C_23 
ROOT
HETATM    1  N   UNL     1     -42.242  57.106 -51.355  1.00  0.00    -0.262 N 
HETATM    2  C   UNL     1     -41.553  57.974 -52.189  1.00  0.00     0.291 C 
HETATM    3  O   UNL     1     -40.557  58.606 -51.858  1.00  0.00    -0.264 OA
HETATM    4  H   UNL     1     -42.982  56.532 -51.757  1.00  0.00     0.190 HD
ENDROOT
BRANCH   2   5
HETATM    5  C   UNL     1     -42.179  58.075 -53.497  1.00  0.00     0.159 A 
HETATM    6  N   UNL     1     -41.805  57.273 -54.570  1.00  0.00    -0.216 NA
HETATM    7  C   UNL     1     -42.568  57.696 -55.562  1.00  0.00     0.180 A 
HETATM    8  O   UNL     1     -43.472  58.658 -55.200  1.00  0.00    -0.293 OA
HETATM    9  C   UNL     1     -43.226  58.890 -53.874  1.00  0.00     0.094 A 
BRANCH   7  10
HETATM   10  C   UNL     1     -42.564  57.293 -56.967  1.00  0.00     0.017 A 
HETATM   11  C   UNL     1     -42.088  58.182 -57.944  1.00  0.00     0.016 A 
HETATM   12  C   UNL     1     -42.097  57.833 -59.297  1.00  0.00     0.001 A 
HETATM   13  C   UNL     1     -42.580  56.587 -59.692  1.00  0.00     0.000 A 
HETATM   14  C   UNL     1     -43.052  55.691 -58.735  1.00  0.00     0.001 A 
HETATM   15  C   UNL     1     -43.044  56.041 -57.382  1.00  0.00     0.016 A 
ENDBRANCH   7  10
BRANCH   9  16
HETATM   16  C   UNL     1     -44.027  59.841 -53.004  1.00  0.00     0.046 A 
HETATM   17  C   UNL     1     -45.460  60.135 -53.392  1.00  0.00     0.012 A 
HETATM   18  C   UNL     1     -45.185  59.259 -52.220  1.00  0.00     0.012 A 
ENDBRANCH   9  16
ENDBRANCH   2   5
BRANCH   1  19
HETATM   19  N   UNL     1     -41.778  56.806 -50.077  1.00  0.00    -0.265 N 
HETATM   20  C   UNL     1     -41.478  55.543 -49.622  1.00  0.00     0.260 C 
HETATM   21  O   UNL     1     -41.004  55.418 -48.489  1.00  0.00    -0.269 OA
HETATM   22  H   UNL     1     -41.675  57.566 -49.412  1.00  0.00     0.190 HD
BRANCH  20  23
HETATM   23  C   UNL     1     -41.740  54.337 -50.523  1.00  0.00     0.280 C 
BRANCH  23  24
HETATM   24  O   UNL     1     -41.003  54.546 -51.723  1.00  0.00    -0.342 OA
BRANCH  24  25
HETATM   25  C   UNL     1     -40.688  53.453 -52.477  1.00  0.00     0.069 A 
HETATM   26  C   UNL     1     -39.937  52.484 -51.809  1.00  0.00     0.037 A 
HETATM   27  C   UNL     1     -39.545  51.311 -52.457  1.00  0.00     0.009 A 
HETATM   28  C   UNL     1     -39.888  51.099 -53.795  1.00  0.00    -0.062 A 
HETATM   29  C   UNL     1     -39.499  49.825 -54.483  1.00  0.00     0.048 C 
HETATM   30  C   UNL     1     -40.643  52.071 -54.462  1.00  0.00     0.009 A 
HETATM   31  C   UNL     1     -41.031  53.249 -53.811  1.00  0.00     0.037 A 
ENDBRANCH  24  25
ENDBRANCH  23  24
ENDBRANCH  20  23
ENDBRANCH   1  19
TORSDOF 7
ENDMDL
MODEL 2
REMARK VINA RESULT:      -8.4      2.259      6.598
REMARK  7 active torsions:
REMARK  status: ('A' for Active; 'I' for Inactive)
REMARK    1  A    between atoms: C_5  and  O_6 
REMARK    2  A    between atoms: O_6  and  C_7 
REMARK    3  A    between atoms: C_7  and  C_8 
REMARK       I    between atoms: C_8  and  N_9 
REMARK    4  A    between atoms: N_9  and  N_10 
REMARK       I    between atoms: N_10  and  C_11 
REMARK    5  A    between atoms: C_11  and  C_12 
REMARK    6  A    between atoms: C_14  and  C_15 
REMARK    7  A    between atoms: C_22  and  C_23 
ROOT
HETATM    1  N   UNL     1     -43.989  56.136 -51.544  1.00  0.00    -0.262 N 
HETATM    2  C   UNL     1     -42.638  55.988 -51.272  1.00  0.00     0.291 C 
HETATM    3  O   UNL     1     -42.037  56.604 -50.400  1.00  0.00    -0.264 OA
HETATM    4  H   UNL     1     -44.425  55.491 -52.201  1.00  0.00     0.190 HD
ENDROOT
BRANCH   2   5
HETATM    5  C   UNL     1     -42.007  55.039 -52.173  1.00  0.00     0.159 A 
HETATM    6  N   UNL     1     -41.663  53.749 -51.781  1.00  0.00    -0.216 NA
HETATM    7  C   UNL     1     -41.092  53.234 -52.855  1.00  0.00     0.180 A 
HETATM    8  O   UNL     1     -41.109  54.059 -53.947  1.00  0.00    -0.293 OA
HETATM    9  C   UNL     1     -41.705  55.209 -53.509  1.00  0.00     0.094 A 
BRANCH   7  10
HETATM   10  C   UNL     1     -40.444  51.934 -53.023  1.00  0.00     0.017 A 
HETATM   11  C   UNL     1     -40.388  51.345 -54.296  1.00  0.00     0.016 A 
HETATM   12  C   UNL     1     -39.798  50.092 -54.481  1.00  0.00     0.001 A 
HETATM   13  C   UNL     1     -39.252  49.411 -53.395  1.00  0.00     0.000 A 
HETATM   14  C   UNL     1     -39.296  49.983 -52.124  1.00  0.00     0.001 A 
HETATM   15  C   UNL     1     -39.887  51.236 -51.940  1.00  0.00     0.016 A 
ENDBRANCH   7  10
BRANCH   9  16
HETATM   16  C   UNL     1     -42.010  56.409 -54.386  1.00  0.00     0.046 A 
HETATM   17  C   UNL     1     -42.093  56.202 -55.883  1.00  0.00     0.012 A 
HETATM   18  C   UNL     1     -43.344  56.424 -55.106  1.00  0.00     0.012 A 
ENDBRANCH   9  16
ENDBRANCH   2   5
BRANCH   1  19
HETATM   19  N   UNL     1     -44.804  56.946 -50.756  1.00  0.00    -0.265 N 
HETATM   20  C   UNL     1     -45.267  58.190 -51.119  1.00  0.00     0.260 C 
HETATM   21  O   UNL     1     -46.043  58.777 -50.360  1.00  0.00    -0.269 OA
HETATM   22  H   UNL     1     -45.061  56.616 -49.831  1.00  0.00     0.190 HD
BRANCH  20  23
HETATM   23  C   UNL     1     -44.808  58.808 -52.438  1.00  0.00     0.280 C 
BRANCH  23  24
HETATM   24  O   UNL     1     -44.023  59.950 -52.112  1.00  0.00    -0.342 OA
BRANCH  24  25
HETATM   25  C   UNL     1     -42.698  59.760 -51.848  1.00  0.00     0.069 A 
HETATM   26  C   UNL     1     -42.303  60.132 -50.561  1.00  0.00     0.037 A 
HETATM   27  C   UNL     1     -40.976  59.990 -50.152  1.00  0.00     0.009 A 
HETATM   28  C   UNL     1     -40.018  59.486 -51.036  1.00  0.00    -0.062 A 
HETATM   29  C   UNL     1     -38.599  59.299 -50.588  1.00  0.00     0.048 C 
HETATM   30  C   UNL     1     -40.416  59.111 -52.325  1.00  0.00     0.009 A 
HETATM   31  C   UNL     1     -41.748  59.258 -52.734  1.00  0.00     0.037 A 
ENDBRANCH  24  25
ENDBRANCH  23  24
ENDBRANCH  20  23
ENDBRANCH   1  19
TORSDOF 7
ENDMDL
MODEL 3
REMARK VINA RESULT:      -8.4      1.392      1.738
REMARK  7 active torsions:
REMARK  status: ('A' for Active; 'I' for Inactive)
REMARK    1  A    between atoms: C_5  and  O_6 
REMARK    2  A    between atoms: O_6  and  C_7 
REMARK    3  A    between atoms: C_7  and  C_8 
REMARK       I    between atoms: C_8  and  N_9 
REMARK    4  A    between atoms: N_9  and  N_10 
REMARK       I    between atoms: N_10  and  C_11 
REMARK    5  A    between atoms: C_11  and  C_12 
REMARK    6  A    between atoms: C_14  and  C_15 
REMARK    7  A    between atoms: C_22  and  C_23 
ROOT
HETATM    1  N   UNL     1     -41.973  56.833 -50.965  1.00  0.00    -0.262 N 
HETATM    2  C   UNL     1     -43.306  56.894 -51.341  1.00  0.00     0.291 C 
HETATM    3  O   UNL     1     -44.241  56.550 -50.629  1.00  0.00    -0.264 OA
HETATM    4  H   UNL     1     -41.276  57.259 -51.575  1.00  0.00     0.190 HD
ENDROOT
BRANCH   2   5
HETATM    5  C   UNL     1     -43.460  57.383 -52.701  1.00  0.00     0.159 A 
HETATM    6  N   UNL     1     -43.560  56.531 -53.796  1.00  0.00    -0.216 NA
HETATM    7  C   UNL     1     -43.646  57.350 -54.828  1.00  0.00     0.180 A 
HETATM    8  O   UNL     1     -43.695  58.675 -54.487  1.00  0.00    -0.293 OA
HETATM    9  C   UNL     1     -43.585  58.691 -53.123  1.00  0.00     0.094 A 
BRANCH   7  10
HETATM   10  C   UNL     1     -43.681  57.037 -56.255  1.00  0.00     0.017 A 
HETATM   11  C   UNL     1     -42.977  55.923 -56.740  1.00  0.00     0.016 A 
HETATM   12  C   UNL     1     -42.972  55.616 -58.104  1.00  0.00     0.001 A 
HETATM   13  C   UNL     1     -43.673  56.418 -59.002  1.00  0.00     0.000 A 
HETATM   14  C   UNL     1     -44.380  57.526 -58.537  1.00  0.00     0.001 A 
HETATM   15  C   UNL     1     -44.384  57.833 -57.174  1.00  0.00     0.016 A 
ENDBRANCH   7  10
BRANCH   9  16
HETATM   16  C   UNL     1     -43.653  59.943 -52.268  1.00  0.00     0.046 A 
HETATM   17  C   UNL     1     -42.394  60.399 -51.562  1.00  0.00     0.012 A 
HETATM   18  C   UNL     1     -42.881  61.155 -52.748  1.00  0.00     0.012 A 
ENDBRANCH   9  16
ENDBRANCH   2   5
BRANCH   1  19
HETATM   19  N   UNL     1     -41.598  56.458 -49.677  1.00  0.00    -0.265 N 
HETATM   20  C   UNL     1     -41.329  55.169 -49.278  1.00  0.00     0.260 C 
HETATM   21  O   UNL     1     -40.935  54.977 -48.124  1.00  0.00    -0.269 OA
HETATM   22  H   UNL     1     -41.542  57.177 -48.963  1.00  0.00     0.190 HD
BRANCH  20  23
HETATM   23  C   UNL     1     -41.527  54.019 -50.263  1.00  0.00     0.280 C 
BRANCH  23  24
HETATM   24  O   UNL     1     -40.704  54.291 -51.392  1.00  0.00    -0.342 OA
BRANCH  24  25
HETATM   25  C   UNL     1     -40.450  53.268 -52.260  1.00  0.00     0.069 A 
HETATM   26  C   UNL     1     -39.872  52.141 -51.674  1.00  0.00     0.037 A 
HETATM   27  C   UNL     1     -39.561  51.017 -52.441  1.00  0.00     0.009 A 
HETATM   28  C   UNL     1     -39.811  51.014 -53.816  1.00  0.00    -0.062 A 
HETATM   29  C   UNL     1     -39.510  49.796 -54.637  1.00  0.00     0.048 C 
HETATM   30  C   UNL     1     -40.393  52.145 -54.401  1.00  0.00     0.009 A 
HETATM   31  C   UNL     1     -40.701  53.273 -53.630  1.00  0.00     0.037 A 
ENDBRANCH  24  25
ENDBRANCH  23  24
ENDBRANCH  20  23
ENDBRANCH   1  19
TORSDOF 7
ENDMDL
MODEL 4
REMARK VINA RESULT:      -8.2      2.340      3.702
REMARK  7 active torsions:
REMARK  status: ('A' for Active; 'I' for Inactive)
REMARK    1  A    between atoms: C_5  and  O_6 
REMARK    2  A    between atoms: O_6  and  C_7 
REMARK    3  A    between atoms: C_7  and  C_8 
REMARK       I    between atoms: C_8  and  N_9 
REMARK    4  A    between atoms: N_9  and  N_10 
REMARK       I    between atoms: N_10  and  C_11 
REMARK    5  A    between atoms: C_11  and  C_12 
REMARK    6  A    between atoms: C_14  and  C_15 
REMARK    7  A    between atoms: C_22  and  C_23 
ROOT
HETATM    1  N   UNL     1     -41.338  58.496 -53.779  1.00  0.00    -0.262 N 
HETATM    2  C   UNL     1     -42.521  58.916 -54.367  1.00  0.00     0.291 C 
HETATM    3  O   UNL     1     -43.578  59.061 -53.766  1.00  0.00    -0.264 OA
HETATM    4  H   UNL     1     -40.483  58.527 -54.333  1.00  0.00     0.190 HD
ENDROOT
BRANCH   2   5
HETATM    5  C   UNL     1     -42.367  59.130 -55.796  1.00  0.00     0.159 A 
HETATM    6  N   UNL     1     -41.688  60.225 -56.321  1.00  0.00    -0.216 NA
HETATM    7  C   UNL     1     -41.806  60.074 -57.628  1.00  0.00     0.180 A 
HETATM    8  O   UNL     1     -42.438  58.919 -58.002  1.00  0.00    -0.293 OA
HETATM    9  C   UNL     1     -42.786  58.312 -56.825  1.00  0.00     0.094 A 
BRANCH   7  10
HETATM   10  C   UNL     1     -41.373  60.964 -58.703  1.00  0.00     0.017 A 
HETATM   11  C   UNL     1     -41.859  60.768 -60.006  1.00  0.00     0.016 A 
HETATM   12  C   UNL     1     -41.443  61.588 -61.058  1.00  0.00     0.001 A 
HETATM   13  C   UNL     1     -40.535  62.618 -60.821  1.00  0.00     0.000 A 
HETATM   14  C   UNL     1     -40.045  62.830 -59.534  1.00  0.00     0.001 A 
HETATM   15  C   UNL     1     -40.461  62.008 -58.483  1.00  0.00     0.016 A 
ENDBRANCH   7  10
BRANCH   9  16
HETATM   16  C   UNL     1     -43.460  56.957 -56.723  1.00  0.00     0.046 A 
HETATM   17  C   UNL     1     -43.144  55.916 -57.775  1.00  0.00     0.012 A 
HETATM   18  C   UNL     1     -42.581  55.764 -56.405  1.00  0.00     0.012 A 
ENDBRANCH   9  16
ENDBRANCH   2   5
BRANCH   1  19
HETATM   19  N   UNL     1     -41.241  58.298 -52.404  1.00  0.00    -0.265 N 
HETATM   20  C   UNL     1     -41.303  57.076 -51.776  1.00  0.00     0.260 C 
HETATM   21  O   UNL     1     -41.130  57.028 -50.555  1.00  0.00    -0.269 OA
HETATM   22  H   UNL     1     -41.143  59.113 -51.806  1.00  0.00     0.190 HD
BRANCH  20  23
HETATM   23  C   UNL     1     -41.588  55.821 -52.599  1.00  0.00     0.280 C 
BRANCH  23  24
HETATM   24  O   UNL     1     -41.106  54.712 -51.848  1.00  0.00    -0.342 OA
BRANCH  24  25
HETATM   25  C   UNL     1     -40.755  53.583 -52.529  1.00  0.00     0.069 A 
HETATM   26  C   UNL     1     -39.964  52.690 -51.804  1.00  0.00     0.037 A 
HETATM   27  C   UNL     1     -39.533  51.491 -52.375  1.00  0.00     0.009 A 
HETATM   28  C   UNL     1     -39.877  51.176 -53.692  1.00  0.00    -0.062 A 
HETATM   29  C   UNL     1     -39.446  49.873 -54.296  1.00  0.00     0.048 C 
HETATM   30  C   UNL     1     -40.673  52.072 -54.417  1.00  0.00     0.009 A 
HETATM   31  C   UNL     1     -41.100  53.276 -53.843  1.00  0.00     0.037 A 
ENDBRANCH  24  25
ENDBRANCH  23  24
ENDBRANCH  20  23
ENDBRANCH   1  19
TORSDOF 7
ENDMDL
MODEL 5
REMARK VINA RESULT:      -8.1      2.266      7.309
REMARK  7 active torsions:
REMARK  status: ('A' for Active; 'I' for Inactive)
REMARK    1  A    between atoms: C_5  and  O_6 
REMARK    2  A    between atoms: O_6  and  C_7 
REMARK    3  A    between atoms: C_7  and  C_8 
REMARK       I    between atoms: C_8  and  N_9 
REMARK    4  A    between atoms: N_9  and  N_10 
REMARK       I    between atoms: N_10  and  C_11 
REMARK    5  A    between atoms: C_11  and  C_12 
REMARK    6  A    between atoms: C_14  and  C_15 
REMARK    7  A    between atoms: C_22  and  C_23 
ROOT
HETATM    1  N   UNL     1     -42.119  57.935 -55.344  1.00  0.00    -0.262 N 
HETATM    2  C   UNL     1     -41.367  57.960 -54.181  1.00  0.00     0.291 C 
HETATM    3  O   UNL     1     -40.750  58.938 -53.777  1.00  0.00    -0.264 OA
HETATM    4  H   UNL     1     -42.697  57.117 -55.531  1.00  0.00     0.190 HD
ENDROOT
BRANCH   2   5
HETATM    5  C   UNL     1     -41.364  56.669 -53.512  1.00  0.00     0.159 A 
HETATM    6  N   UNL     1     -40.619  55.589 -53.973  1.00  0.00    -0.216 NA
HETATM    7  C   UNL     1     -40.916  54.616 -53.130  1.00  0.00     0.180 A 
HETATM    8  O   UNL     1     -41.735  55.000 -52.102  1.00  0.00    -0.293 OA
HETATM    9  C   UNL     1     -42.011  56.318 -52.346  1.00  0.00     0.094 A 
BRANCH   7  10
HETATM   10  C   UNL     1     -40.508  53.213 -53.158  1.00  0.00     0.017 A 
HETATM   11  C   UNL     1     -39.934  52.634 -52.014  1.00  0.00     0.016 A 
HETATM   12  C   UNL     1     -39.511  51.302 -52.020  1.00  0.00     0.001 A 
HETATM   13  C   UNL     1     -39.658  50.530 -53.170  1.00  0.00     0.000 A 
HETATM   14  C   UNL     1     -40.229  51.087 -54.313  1.00  0.00     0.001 A 
HETATM   15  C   UNL     1     -40.651  52.420 -54.306  1.00  0.00     0.016 A 
ENDBRANCH   7  10
BRANCH   9  16
HETATM   16  C   UNL     1     -42.838  57.206 -51.435  1.00  0.00     0.046 A 
HETATM   17  C   UNL     1     -44.156  57.738 -51.955  1.00  0.00     0.012 A 
HETATM   18  C   UNL     1     -44.158  56.653 -50.935  1.00  0.00     0.012 A 
ENDBRANCH   9  16
ENDBRANCH   2   5
BRANCH   1  19
HETATM   19  N   UNL     1     -42.315  59.084 -56.107  1.00  0.00    -0.265 N 
HETATM   20  C   UNL     1     -42.402  59.114 -57.480  1.00  0.00     0.260 C 
HETATM   21  O   UNL     1     -42.650  60.189 -58.033  1.00  0.00    -0.269 OA
HETATM   22  H   UNL     1     -42.372  59.977 -55.627  1.00  0.00     0.190 HD
BRANCH  20  23
HETATM   23  C   UNL     1     -42.187  57.829 -58.276  1.00  0.00     0.280 C 
BRANCH  23  24
HETATM   24  O   UNL     1     -43.233  56.934 -57.913  1.00  0.00    -0.342 OA
BRANCH  24  25
HETATM   25  C   UNL     1     -44.247  56.742 -58.806  1.00  0.00     0.069 A 
HETATM   26  C   UNL     1     -45.369  57.546 -58.591  1.00  0.00     0.037 A 
HETATM   27  C   UNL     1     -46.481  57.458 -59.429  1.00  0.00     0.009 A 
HETATM   28  C   UNL     1     -46.493  56.548 -60.489  1.00  0.00    -0.062 A 
HETATM   29  C   UNL     1     -47.672  56.477 -61.413  1.00  0.00     0.048 C 
HETATM   30  C   UNL     1     -45.366  55.745 -60.705  1.00  0.00     0.009 A 
HETATM   31  C   UNL     1     -44.252  55.832 -59.860  1.00  0.00     0.037 A 
ENDBRANCH  24  25
ENDBRANCH  23  24
ENDBRANCH  20  23
ENDBRANCH   1  19
TORSDOF 7
ENDMDL
MODEL 6
REMARK VINA RESULT:      -8.1      2.409      7.974
REMARK  7 active torsions:
REMARK  status: ('A' for Active; 'I' for Inactive)
REMARK    1  A    between atoms: C_5  and  O_6 
REMARK    2  A    between atoms: O_6  and  C_7 
REMARK    3  A    between atoms: C_7  and  C_8 
REMARK       I    between atoms: C_8  and  N_9 
REMARK    4  A    between atoms: N_9  and  N_10 
REMARK       I    between atoms: N_10  and  C_11 
REMARK    5  A    between atoms: C_11  and  C_12 
REMARK    6  A    between atoms: C_14  and  C_15 
REMARK    7  A    between atoms: C_22  and  C_23 
ROOT
HETATM    1  N   UNL     1     -43.755  56.739 -56.099  1.00  0.00    -0.262 N 
HETATM    2  C   UNL     1     -43.945  56.626 -54.731  1.00  0.00     0.291 C 
HETATM    3  O   UNL     1     -44.912  57.075 -54.128  1.00  0.00    -0.264 OA
HETATM    4  H   UNL     1     -42.985  56.226 -56.527  1.00  0.00     0.190 HD
ENDROOT
BRANCH   2   5
HETATM    5  C   UNL     1     -42.837  55.940 -54.088  1.00  0.00     0.159 A 
HETATM    6  N   UNL     1     -42.534  54.606 -54.341  1.00  0.00    -0.216 NA
HETATM    7  C   UNL     1     -41.508  54.358 -53.547  1.00  0.00     0.180 A 
HETATM    8  O   UNL     1     -41.062  55.451 -52.853  1.00  0.00    -0.293 OA
HETATM    9  C   UNL     1     -41.910  56.464 -53.211  1.00  0.00     0.094 A 
BRANCH   7  10
HETATM   10  C   UNL     1     -40.811  53.097 -53.304  1.00  0.00     0.017 A 
HETATM   11  C   UNL     1     -40.748  52.131 -54.321  1.00  0.00     0.016 A 
HETATM   12  C   UNL     1     -40.111  50.905 -54.108  1.00  0.00     0.001 A 
HETATM   13  C   UNL     1     -39.524  50.630 -52.875  1.00  0.00     0.000 A 
HETATM   14  C   UNL     1     -39.573  51.579 -51.855  1.00  0.00     0.001 A 
HETATM   15  C   UNL     1     -40.212  52.804 -52.069  1.00  0.00     0.016 A 
ENDBRANCH   7  10
BRANCH   9  16
HETATM   16  C   UNL     1     -41.779  57.902 -52.744  1.00  0.00     0.046 A 
HETATM   17  C   UNL     1     -40.682  58.239 -51.757  1.00  0.00     0.012 A 
HETATM   18  C   UNL     1     -40.543  58.664 -53.177  1.00  0.00     0.012 A 
ENDBRANCH   9  16
ENDBRANCH   2   5
BRANCH   1  19
HETATM   19  N   UNL     1     -44.726  57.302 -56.924  1.00  0.00    -0.265 N 
HETATM   20  C   UNL     1     -44.698  57.291 -58.299  1.00  0.00     0.260 C 
HETATM   21  O   UNL     1     -45.659  57.761 -58.915  1.00  0.00    -0.269 OA
HETATM   22  H   UNL     1     -45.506  57.784 -56.488  1.00  0.00     0.190 HD
BRANCH  20  23
HETATM   23  C   UNL     1     -43.486  56.705 -59.022  1.00  0.00     0.280 C 
BRANCH  23  24
HETATM   24  O   UNL     1     -42.341  57.408 -58.551  1.00  0.00    -0.342 OA
BRANCH  24  25
HETATM   25  C   UNL     1     -42.097  58.648 -59.066  1.00  0.00     0.069 A 
HETATM   26  C   UNL     1     -42.088  58.707 -60.461  1.00  0.00     0.037 A 
HETATM   27  C   UNL     1     -41.854  59.912 -61.124  1.00  0.00     0.009 A 
HETATM   28  C   UNL     1     -41.609  61.079 -60.395  1.00  0.00    -0.062 A 
HETATM   29  C   UNL     1     -41.393  62.383 -61.104  1.00  0.00     0.048 C 
HETATM   30  C   UNL     1     -41.621  61.019 -58.996  1.00  0.00     0.009 A 
HETATM   31  C   UNL     1     -41.852  59.807 -58.333  1.00  0.00     0.037 A 
ENDBRANCH  24  25
ENDBRANCH  23  24
ENDBRANCH  20  23
ENDBRANCH   1  19
TORSDOF 7
ENDMDL
MODEL 7
REMARK VINA RESULT:      -8.1      3.205      8.360
REMARK  7 active torsions:
REMARK  status: ('A' for Active; 'I' for Inactive)
REMARK    1  A    between atoms: C_5  and  O_6 
REMARK    2  A    between atoms: O_6  and  C_7 
REMARK    3  A    between atoms: C_7  and  C_8 
REMARK       I    between atoms: C_8  and  N_9 
REMARK    4  A    between atoms: N_9  and  N_10 
REMARK       I    between atoms: N_10  and  C_11 
REMARK    5  A    between atoms: C_11  and  C_12 
REMARK    6  A    between atoms: C_14  and  C_15 
REMARK    7  A    between atoms: C_22  and  C_23 
ROOT
HETATM    1  N   UNL     1     -42.187  56.950 -57.418  1.00  0.00    -0.262 N 
HETATM    2  C   UNL     1     -42.772  55.715 -57.189  1.00  0.00     0.291 C 
HETATM    3  O   UNL     1     -43.421  55.092 -58.020  1.00  0.00    -0.264 OA
HETATM    4  H   UNL     1     -41.562  57.331 -56.709  1.00  0.00     0.190 HD
ENDROOT
BRANCH   2   5
HETATM    5  C   UNL     1     -42.554  55.260 -55.825  1.00  0.00     0.159 A 
HETATM    6  N   UNL     1     -41.541  54.368 -55.487  1.00  0.00    -0.216 NA
HETATM    7  C   UNL     1     -41.703  54.183 -54.189  1.00  0.00     0.180 A 
HETATM    8  O   UNL     1     -42.693  54.950 -53.635  1.00  0.00    -0.293 OA
HETATM    9  C   UNL     1     -43.228  55.645 -54.685  1.00  0.00     0.094 A 
BRANCH   7  10
HETATM   10  C   UNL     1     -40.991  53.278 -53.289  1.00  0.00     0.017 A 
HETATM   11  C   UNL     1     -40.972  53.541 -51.910  1.00  0.00     0.016 A 
HETATM   12  C   UNL     1     -40.278  52.707 -51.030  1.00  0.00     0.001 A 
HETATM   13  C   UNL     1     -39.595  51.595 -51.517  1.00  0.00     0.000 A 
HETATM   14  C   UNL     1     -39.606  51.316 -52.882  1.00  0.00     0.001 A 
HETATM   15  C   UNL     1     -40.300  52.152 -53.762  1.00  0.00     0.016 A 
ENDBRANCH   7  10
BRANCH   9  16
HETATM   16  C   UNL     1     -44.325  56.685 -54.559  1.00  0.00     0.046 A 
HETATM   17  C   UNL     1     -44.501  57.386 -53.229  1.00  0.00     0.012 A 
HETATM   18  C   UNL     1     -43.900  58.128 -54.371  1.00  0.00     0.012 A 
ENDBRANCH   9  16
ENDBRANCH   2   5
BRANCH   1  19
HETATM   19  N   UNL     1     -42.214  57.544 -58.677  1.00  0.00    -0.265 N 
HETATM   20  C   UNL     1     -43.086  58.534 -59.065  1.00  0.00     0.260 C 
HETATM   21  O   UNL     1     -42.959  59.029 -60.189  1.00  0.00    -0.269 OA
HETATM   22  H   UNL     1     -41.562  57.210 -59.381  1.00  0.00     0.190 HD
BRANCH  20  23
HETATM   23  C   UNL     1     -44.184  58.989 -58.105  1.00  0.00     0.280 C 
BRANCH  23  24
HETATM   24  O   UNL     1     -45.149  57.945 -58.051  1.00  0.00    -0.342 OA
BRANCH  24  25
HETATM   25  C   UNL     1     -45.999  57.806 -59.110  1.00  0.00     0.069 A 
HETATM   26  C   UNL     1     -46.117  56.501 -59.593  1.00  0.00     0.037 A 
HETATM   27  C   UNL     1     -46.954  56.211 -60.672  1.00  0.00     0.009 A 
HETATM   28  C   UNL     1     -47.676  57.232 -61.295  1.00  0.00    -0.062 A 
HETATM   29  C   UNL     1     -48.603  56.918 -62.431  1.00  0.00     0.048 C 
HETATM   30  C   UNL     1     -47.559  58.540 -60.808  1.00  0.00     0.009 A 
HETATM   31  C   UNL     1     -46.715  58.829 -59.728  1.00  0.00     0.037 A 
ENDBRANCH  24  25
ENDBRANCH  23  24
ENDBRANCH  20  23
ENDBRANCH   1  19
TORSDOF 7
ENDMDL
MODEL 8
REMARK VINA RESULT:      -8.0      2.147      6.814
REMARK  7 active torsions:
REMARK  status: ('A' for Active; 'I' for Inactive)
REMARK    1  A    between atoms: C_5  and  O_6 
REMARK    2  A    between atoms: O_6  and  C_7 
REMARK    3  A    between atoms: C_7  and  C_8 
REMARK       I    between atoms: C_8  and  N_9 
REMARK    4  A    between atoms: N_9  and  N_10 
REMARK       I    between atoms: N_10  and  C_11 
REMARK    5  A    between atoms: C_11  and  C_12 
REMARK    6  A    between atoms: C_14  and  C_15 
REMARK    7  A    between atoms: C_22  and  C_23 
ROOT
HETATM    1  N   UNL     1     -42.125  59.181 -55.163  1.00  0.00    -0.262 N 
HETATM    2  C   UNL     1     -41.363  58.857 -54.052  1.00  0.00     0.291 C 
HETATM    3  O   UNL     1     -40.576  59.620 -53.506  1.00  0.00    -0.264 OA
HETATM    4  H   UNL     1     -42.842  58.524 -55.469  1.00  0.00     0.190 HD
ENDROOT
BRANCH   2   5
HETATM    5  C   UNL     1     -41.581  57.482 -53.631  1.00  0.00     0.159 A 
HETATM    6  N   UNL     1     -40.604  56.499 -53.750  1.00  0.00    -0.216 NA
HETATM    7  C   UNL     1     -41.198  55.407 -53.304  1.00  0.00     0.180 A 
HETATM    8  O   UNL     1     -42.463  55.616 -52.823  1.00  0.00    -0.293 OA
HETATM    9  C   UNL     1     -42.699  56.949 -53.026  1.00  0.00     0.094 A 
BRANCH   7  10
HETATM   10  C   UNL     1     -40.700  54.033 -53.269  1.00  0.00     0.017 A 
HETATM   11  C   UNL     1     -40.665  53.277 -54.452  1.00  0.00     0.016 A 
HETATM   12  C   UNL     1     -40.218  51.953 -54.443  1.00  0.00     0.001 A 
HETATM   13  C   UNL     1     -39.799  51.366 -53.251  1.00  0.00     0.000 A 
HETATM   14  C   UNL     1     -39.824  52.103 -52.069  1.00  0.00     0.001 A 
HETATM   15  C   UNL     1     -40.272  53.427 -52.078  1.00  0.00     0.016 A 
ENDBRANCH   7  10
BRANCH   9  16
HETATM   16  C   UNL     1     -43.960  57.674 -52.592  1.00  0.00     0.046 A 
HETATM   17  C   UNL     1     -44.585  57.299 -51.266  1.00  0.00     0.012 A 
HETATM   18  C   UNL     1     -43.856  58.592 -51.390  1.00  0.00     0.012 A 
ENDBRANCH   9  16
ENDBRANCH   2   5
BRANCH   1  19
HETATM   19  N   UNL     1     -42.124  60.469 -55.693  1.00  0.00    -0.265 N 
HETATM   20  C   UNL     1     -42.002  60.772 -57.030  1.00  0.00     0.260 C 
HETATM   21  O   UNL     1     -42.089  61.953 -57.379  1.00  0.00    -0.269 OA
HETATM   22  H   UNL     1     -42.190  61.254 -55.053  1.00  0.00     0.190 HD
BRANCH  20  23
HETATM   23  C   UNL     1     -41.760  59.649 -58.037  1.00  0.00     0.280 C 
BRANCH  23  24
HETATM   24  O   UNL     1     -42.982  59.448 -58.738  1.00  0.00    -0.342 OA
BRANCH  24  25
HETATM   25  C   UNL     1     -43.334  58.168 -59.054  1.00  0.00     0.069 A 
HETATM   26  C   UNL     1     -44.710  57.938 -59.096  1.00  0.00     0.037 A 
HETATM   27  C   UNL     1     -45.214  56.674 -59.409  1.00  0.00     0.009 A 
HETATM   28  C   UNL     1     -44.342  55.614 -59.669  1.00  0.00    -0.062 A 
HETATM   29  C   UNL     1     -44.880  54.265 -60.040  1.00  0.00     0.048 C 
HETATM   30  C   UNL     1     -42.962  55.847 -59.628  1.00  0.00     0.009 A 
HETATM   31  C   UNL     1     -42.458  57.115 -59.310  1.00  0.00     0.037 A 
ENDBRANCH  24  25
ENDBRANCH  23  24
ENDBRANCH  20  23
ENDBRANCH   1  19
TORSDOF 7
ENDMDL
MODEL 9
REMARK VINA RESULT:      -8.0      2.005      2.360
REMARK  7 active torsions:
REMARK  status: ('A' for Active; 'I' for Inactive)
REMARK    1  A    between atoms: C_5  and  O_6 
REMARK    2  A    between atoms: O_6  and  C_7 
REMARK    3  A    between atoms: C_7  and  C_8 
REMARK       I    between atoms: C_8  and  N_9 
REMARK    4  A    between atoms: N_9  and  N_10 
REMARK       I    between atoms: N_10  and  C_11 
REMARK    5  A    between atoms: C_11  and  C_12 
REMARK    6  A    between atoms: C_14  and  C_15 
REMARK    7  A    between atoms: C_22  and  C_23 
ROOT
HETATM    1  N   UNL     1     -42.839  57.629 -51.593  1.00  0.00    -0.262 N 
HETATM    2  C   UNL     1     -44.220  57.653 -51.710  1.00  0.00     0.291 C 
HETATM    3  O   UNL     1     -44.995  57.272 -50.841  1.00  0.00    -0.264 OA
HETATM    4  H   UNL     1     -42.283  58.083 -52.316  1.00  0.00     0.190 HD
ENDROOT
BRANCH   2   5
HETATM    5  C   UNL     1     -44.643  58.153 -53.008  1.00  0.00     0.159 A 
HETATM    6  N   UNL     1     -44.684  57.350 -54.142  1.00  0.00    -0.216 NA
HETATM    7  C   UNL     1     -45.073  58.173 -55.099  1.00  0.00     0.180 A 
HETATM    8  O   UNL     1     -45.371  59.436 -54.662  1.00  0.00    -0.293 OA
HETATM    9  C   UNL     1     -45.104  59.415 -53.321  1.00  0.00     0.094 A 
BRANCH   7  10
HETATM   10  C   UNL     1     -45.211  57.924 -56.533  1.00  0.00     0.017 A 
HETATM   11  C   UNL     1     -46.440  58.169 -57.166  1.00  0.00     0.016 A 
HETATM   12  C   UNL     1     -46.607  57.916 -58.530  1.00  0.00     0.001 A 
HETATM   13  C   UNL     1     -45.546  57.414 -59.281  1.00  0.00     0.000 A 
HETATM   14  C   UNL     1     -44.318  57.168 -58.670  1.00  0.00     0.001 A 
HETATM   15  C   UNL     1     -44.152  57.421 -57.305  1.00  0.00     0.016 A 
ENDBRANCH   7  10
BRANCH   9  16
HETATM   16  C   UNL     1     -45.342  60.580 -52.378  1.00  0.00     0.046 A 
HETATM   17  C   UNL     1     -46.490  61.521 -52.675  1.00  0.00     0.012 A 
HETATM   18  C   UNL     1     -46.610  60.555 -51.548  1.00  0.00     0.012 A 
ENDBRANCH   9  16
ENDBRANCH   2   5
BRANCH   1  19
HETATM   19  N   UNL     1     -42.218  57.249 -50.406  1.00  0.00    -0.265 N 
HETATM   20  C   UNL     1     -41.832  55.967 -50.092  1.00  0.00     0.260 C 
HETATM   21  O   UNL     1     -41.223  55.773 -49.036  1.00  0.00    -0.269 OA
HETATM   22  H   UNL     1     -42.055  57.960 -49.699  1.00  0.00     0.190 HD
BRANCH  20  23
HETATM   23  C   UNL     1     -42.169  54.824 -51.048  1.00  0.00     0.280 C 
BRANCH  23  24
HETATM   24  O   UNL     1     -41.176  54.828 -52.068  1.00  0.00    -0.342 OA
BRANCH  24  25
HETATM   25  C   UNL     1     -40.710  53.625 -52.511  1.00  0.00     0.069 A 
HETATM   26  C   UNL     1     -41.085  53.301 -53.816  1.00  0.00     0.037 A 
HETATM   27  C   UNL     1     -40.677  52.101 -54.400  1.00  0.00     0.009 A 
HETATM   28  C   UNL     1     -39.896  51.196 -53.675  1.00  0.00    -0.062 A 
HETATM   29  C   UNL     1     -39.426  49.922 -54.312  1.00  0.00     0.048 C 
HETATM   30  C   UNL     1     -39.519  51.524 -52.367  1.00  0.00     0.009 A 
HETATM   31  C   UNL     1     -39.933  52.727 -51.782  1.00  0.00     0.037 A 
ENDBRANCH  24  25
ENDBRANCH  23  24
ENDBRANCH  20  23
ENDBRANCH   1  19
TORSDOF 7
ENDMDL
MODEL 10
REMARK VINA RESULT:      -7.9      2.219      3.930
REMARK  7 active torsions:
REMARK  status: ('A' for Active; 'I' for Inactive)
REMARK    1  A    between atoms: C_5  and  O_6 
REMARK    2  A    between atoms: O_6  and  C_7 
REMARK    3  A    between atoms: C_7  and  C_8 
REMARK       I    between atoms: C_8  and  N_9 
REMARK    4  A    between atoms: N_9  and  N_10 
REMARK       I    between atoms: N_10  and  C_11 
REMARK    5  A    between atoms: C_11  and  C_12 
REMARK    6  A    between atoms: C_14  and  C_15 
REMARK    7  A    between atoms: C_22  and  C_23 
ROOT
HETATM    1  N   UNL     1     -42.857  58.207 -53.380  1.00  0.00    -0.262 N 
HETATM    2  C   UNL     1     -42.134  58.384 -54.549  1.00  0.00     0.291 C 
HETATM    3  O   UNL     1     -41.312  59.276 -54.725  1.00  0.00    -0.264 OA
HETATM    4  H   UNL     1     -43.423  57.365 -53.283  1.00  0.00     0.190 HD
ENDROOT
BRANCH   2   5
HETATM    5  C   UNL     1     -42.495  57.405 -55.560  1.00  0.00     0.159 A 
HETATM    6  N   UNL     1     -43.184  57.745 -56.719  1.00  0.00    -0.216 NA
HETATM    7  C   UNL     1     -43.348  56.591 -57.341  1.00  0.00     0.180 A 
HETATM    8  O   UNL     1     -42.745  55.531 -56.718  1.00  0.00    -0.293 OA
HETATM    9  C   UNL     1     -42.191  56.059 -55.584  1.00  0.00     0.094 A 
BRANCH   7  10
HETATM   10  C   UNL     1     -44.084  56.299 -58.569  1.00  0.00     0.017 A 
HETATM   11  C   UNL     1     -45.063  57.197 -59.023  1.00  0.00     0.016 A 
HETATM   12  C   UNL     1     -45.799  56.930 -60.181  1.00  0.00     0.001 A 
HETATM   13  C   UNL     1     -45.565  55.762 -60.902  1.00  0.00     0.000 A 
HETATM   14  C   UNL     1     -44.595  54.861 -60.468  1.00  0.00     0.001 A 
HETATM   15  C   UNL     1     -43.859  55.128 -59.310  1.00  0.00     0.016 A 
ENDBRANCH   7  10
BRANCH   9  16
HETATM   16  C   UNL     1     -41.353  55.276 -54.590  1.00  0.00     0.046 A 
HETATM   17  C   UNL     1     -41.259  53.775 -54.755  1.00  0.00     0.012 A 
HETATM   18  C   UNL     1     -40.087  54.624 -55.108  1.00  0.00     0.012 A 
ENDBRANCH   9  16
ENDBRANCH   2   5
BRANCH   1  19
HETATM   19  N   UNL     1     -42.623  58.993 -52.255  1.00  0.00    -0.265 N 
HETATM   20  C   UNL     1     -41.747  58.679 -51.241  1.00  0.00     0.260 C 
HETATM   21  O   UNL     1     -41.575  59.496 -50.333  1.00  0.00    -0.269 OA
HETATM   22  H   UNL     1     -43.151  59.853 -52.149  1.00  0.00     0.190 HD
BRANCH  20  23
HETATM   23  C   UNL     1     -41.020  57.336 -51.264  1.00  0.00     0.280 C 
BRANCH  23  24
HETATM   24  O   UNL     1     -41.277  56.702 -50.016  1.00  0.00    -0.342 OA
BRANCH  24  25
HETATM   25  C   UNL     1     -41.030  55.363 -49.917  1.00  0.00     0.069 A 
HETATM   26  C   UNL     1     -41.011  54.685 -51.137  1.00  0.00     0.037 A 
HETATM   27  C   UNL     1     -40.768  53.311 -51.187  1.00  0.00     0.009 A 
HETATM   28  C   UNL     1     -40.555  52.591 -50.008  1.00  0.00    -0.062 A 
HETATM   29  C   UNL     1     -40.258  51.123 -50.061  1.00  0.00     0.048 C 
HETATM   30  C   UNL     1     -40.571  53.274 -48.786  1.00  0.00     0.009 A 
HETATM   31  C   UNL     1     -40.820  54.652 -48.738  1.00  0.00     0.037 A 
ENDBRANCH  24  25
ENDBRANCH  23  24
ENDBRANCH  20  23
ENDBRANCH   1  19
TORSDOF 7
ENDMDL
