MODEL 1
REMARK VINA RESULT:      -9.0      0.000      0.000
REMARK  6 active torsions:
REMARK  status: ('A' for Active; 'I' for Inactive)
REMARK    1  A    between atoms: C_9  and  C_10 
REMARK    2  A    between atoms: C_10  and  N_11 
REMARK       I    between atoms: N_11  and  C_12 
REMARK    3  A    between atoms: N_11  and  C_22 
REMARK    4  A    between atoms: C_12  and  C_13 
REMARK    5  A    between atoms: C_15  and  O_16 
REMARK    6  A    between atoms: C_22  and  C_23 
ROOT
HETATM    1  N   UNL     1     -42.430  57.458 -53.571  1.00  0.00    -0.341 N 
HETATM    2  C   UNL     1     -43.216  57.600 -54.722  1.00  0.00     0.254 C 
HETATM    3  O   UNL     1     -44.354  57.138 -54.815  1.00  0.00    -0.267 OA
ENDROOT
BRANCH   1   4
HETATM    4  C   UNL     1     -42.950  56.546 -52.541  1.00  0.00     0.170 C 
BRANCH   4   5
HETATM    5  C   UNL     1     -42.148  55.279 -52.391  1.00  0.00     0.029 A 
HETATM    6  C   UNL     1     -41.590  55.097 -51.011  1.00  0.00     0.253 A 
HETATM    7  N   UNL     1     -40.815  53.995 -50.783  1.00  0.00    -0.322 N 
HETATM    8  O   UNL     1     -41.826  55.895 -50.106  1.00  0.00    -0.268 OA
HETATM    9  C   UNL     1     -40.528  53.034 -51.755  1.00  0.00     0.045 A 
HETATM   10  H   UNL     1     -40.443  53.905 -49.848  1.00  0.00     0.169 HD
HETATM   11  C   UNL     1     -41.059  53.184 -53.040  1.00  0.00    -0.008 A 
HETATM   12  C   UNL     1     -39.723  51.943 -51.436  1.00  0.00     0.031 A 
HETATM   13  C   UNL     1     -40.771  52.223 -54.015  1.00  0.00     0.020 A 
HETATM   14  C   UNL     1     -41.894  54.351 -53.332  1.00  0.00     0.028 A 
HETATM   15  C   UNL     1     -39.950  51.126 -53.712  1.00  0.00    -0.061 A 
HETATM   16  C   UNL     1     -39.660  50.080 -54.748  1.00  0.00     0.048 C 
HETATM   17  C   UNL     1     -39.439  50.988 -52.414  1.00  0.00     0.009 A 
ENDBRANCH   4   5
ENDBRANCH   1   4
BRANCH   1  18
HETATM   18  C   UNL     1     -40.985  57.743 -53.508  1.00  0.00     0.158 C 
BRANCH  18  19
HETATM   19  C   UNL     1     -40.657  59.162 -52.996  1.00  0.00     0.139 C 
HETATM   20  O   UNL     1     -39.295  59.206 -52.528  1.00  0.00    -0.384 OA
HETATM   21  C   UNL     1     -39.286  59.279 -51.096  1.00  0.00     0.168 C 
HETATM   22  C   UNL     1     -40.705  59.030 -50.633  1.00  0.00     0.029 C 
HETATM   23  C   UNL     1     -41.512  59.550 -51.796  1.00  0.00     0.035 C 
ENDBRANCH  18  19
ENDBRANCH   1  18
BRANCH   2  24
HETATM   24  C   UNL     1     -42.694  58.297 -55.920  1.00  0.00     0.034 A 
HETATM   25  C   UNL     1     -42.499  57.528 -57.076  1.00  0.00     0.053 A 
HETATM   26  C   UNL     1     -42.060  58.134 -58.251  1.00  0.00     0.069 A 
HETATM   27  C   UNL     1     -41.784  59.503 -58.255  1.00  0.00     0.037 A 
HETATM   28  C   UNL     1     -42.012  60.278 -57.115  1.00  0.00     0.004 A 
HETATM   29  C   UNL     1     -42.493  59.680 -55.951  1.00  0.00     0.017 A 
BRANCH  26  30
HETATM   30  O   UNL     1     -41.852  57.491 -59.440  1.00  0.00    -0.356 OA
HETATM   31  C   UNL     1     -42.649  56.330 -59.660  1.00  0.00     0.210 C 
ENDBRANCH  26  30
ENDBRANCH   2  24
TORSDOF 6
ENDMDL
MODEL 2
REMARK VINA RESULT:      -8.8      2.013      2.481
REMARK  6 active torsions:
REMARK  status: ('A' for Active; 'I' for Inactive)
REMARK    1  A    between atoms: C_9  and  C_10 
REMARK    2  A    between atoms: C_10  and  N_11 
REMARK       I    between atoms: N_11  and  C_12 
REMARK    3  A    between atoms: N_11  and  C_22 
REMARK    4  A    between atoms: C_12  and  C_13 
REMARK    5  A    between atoms: C_15  and  O_16 
REMARK    6  A    between atoms: C_22  and  C_23 
ROOT
HETATM    1  N   UNL     1     -41.892  56.941 -51.357  1.00  0.00    -0.341 N 
HETATM    2  C   UNL     1     -43.229  56.746 -51.727  1.00  0.00     0.254 C 
HETATM    3  O   UNL     1     -44.029  56.114 -51.036  1.00  0.00    -0.267 OA
ENDROOT
BRANCH   1   4
HETATM    4  C   UNL     1     -41.426  56.175 -50.190  1.00  0.00     0.170 C 
BRANCH   4   5
HETATM    5  C   UNL     1     -41.033  54.757 -50.511  1.00  0.00     0.029 A 
HETATM    6  C   UNL     1     -40.834  53.911 -49.289  1.00  0.00     0.253 A 
HETATM    7  N   UNL     1     -40.439  52.615 -49.475  1.00  0.00    -0.322 N 
HETATM    8  O   UNL     1     -41.031  54.350 -48.159  1.00  0.00    -0.268 OA
HETATM    9  C   UNL     1     -40.224  52.043 -50.730  1.00  0.00     0.045 A 
HETATM   10  H   UNL     1     -40.302  52.073 -48.633  1.00  0.00     0.169 HD
HETATM   11  C   UNL     1     -40.425  52.817 -51.877  1.00  0.00    -0.008 A 
HETATM   12  C   UNL     1     -39.816  50.714 -50.826  1.00  0.00     0.031 A 
HETATM   13  C   UNL     1     -40.208  52.245 -53.135  1.00  0.00     0.020 A 
HETATM   14  C   UNL     1     -40.847  54.211 -51.728  1.00  0.00     0.028 A 
HETATM   15  C   UNL     1     -39.784  50.912 -53.246  1.00  0.00    -0.061 A 
HETATM   16  C   UNL     1     -39.574  50.286 -54.594  1.00  0.00     0.048 C 
HETATM   17  C   UNL     1     -39.601  50.149 -52.084  1.00  0.00     0.009 A 
ENDBRANCH   4   5
ENDBRANCH   1   4
BRANCH   1  18
HETATM   18  C   UNL     1     -40.840  57.439 -52.261  1.00  0.00     0.158 C 
BRANCH  18  19
HETATM   19  C   UNL     1     -40.662  58.972 -52.215  1.00  0.00     0.139 C 
HETATM   20  O   UNL     1     -39.282  59.291 -51.949  1.00  0.00    -0.384 OA
HETATM   21  C   UNL     1     -39.159  59.784 -50.608  1.00  0.00     0.168 C 
HETATM   22  C   UNL     1     -40.486  59.539 -49.924  1.00  0.00     0.029 C 
HETATM   23  C   UNL     1     -41.453  59.607 -51.079  1.00  0.00     0.035 C 
ENDBRANCH  18  19
ENDBRANCH   1  18
BRANCH   2  24
HETATM   24  C   UNL     1     -43.748  57.270 -53.011  1.00  0.00     0.034 A 
HETATM   25  C   UNL     1     -43.399  56.573 -54.177  1.00  0.00     0.053 A 
HETATM   26  C   UNL     1     -43.898  56.985 -55.411  1.00  0.00     0.069 A 
HETATM   27  C   UNL     1     -44.717  58.115 -55.478  1.00  0.00     0.037 A 
HETATM   28  C   UNL     1     -45.094  58.789 -54.313  1.00  0.00     0.004 A 
HETATM   29  C   UNL     1     -44.631  58.351 -53.073  1.00  0.00     0.017 A 
BRANCH  26  30
HETATM   30  O   UNL     1     -43.642  56.376 -56.608  1.00  0.00    -0.356 OA
HETATM   31  C   UNL     1     -42.705  55.302 -56.565  1.00  0.00     0.210 C 
ENDBRANCH  26  30
ENDBRANCH   2  24
TORSDOF 6
ENDMDL
MODEL 3
REMARK VINA RESULT:      -8.4      2.126      7.257
REMARK  6 active torsions:
REMARK  status: ('A' for Active; 'I' for Inactive)
REMARK    1  A    between atoms: C_9  and  C_10 
REMARK    2  A    between atoms: C_10  and  N_11 
REMARK       I    between atoms: N_11  and  C_12 
REMARK    3  A    between atoms: N_11  and  C_22 
REMARK    4  A    between atoms: C_12  and  C_13 
REMARK    5  A    between atoms: C_15  and  O_16 
REMARK    6  A    between atoms: C_22  and  C_23 
ROOT
HETATM    1  N   UNL     1     -42.208  56.074 -54.427  1.00  0.00    -0.341 N 
HETATM    2  C   UNL     1     -42.575  54.815 -53.935  1.00  0.00     0.254 C 
HETATM    3  O   UNL     1     -43.680  54.313 -54.140  1.00  0.00    -0.267 OA
ENDROOT
BRANCH   1   4
HETATM    4  C   UNL     1     -43.286  56.870 -55.035  1.00  0.00     0.170 C 
BRANCH   4   5
HETATM    5  C   UNL     1     -42.971  57.358 -56.425  1.00  0.00     0.029 A 
HETATM    6  C   UNL     1     -42.945  56.256 -57.443  1.00  0.00     0.253 A 
HETATM    7  N   UNL     1     -42.630  56.592 -58.730  1.00  0.00    -0.322 N 
HETATM    8  O   UNL     1     -43.209  55.094 -57.146  1.00  0.00    -0.268 OA
HETATM    9  C   UNL     1     -42.345  57.895 -59.144  1.00  0.00     0.045 A 
HETATM   10  H   UNL     1     -42.609  55.828 -59.390  1.00  0.00     0.169 HD
HETATM   11  C   UNL     1     -42.385  58.933 -58.207  1.00  0.00    -0.008 A 
HETATM   12  C   UNL     1     -42.028  58.146 -60.477  1.00  0.00     0.031 A 
HETATM   13  C   UNL     1     -42.098  60.238 -58.620  1.00  0.00     0.020 A 
HETATM   14  C   UNL     1     -42.716  58.621 -56.815  1.00  0.00     0.028 A 
HETATM   15  C   UNL     1     -41.763  60.504 -59.956  1.00  0.00    -0.061 A 
HETATM   16  C   UNL     1     -41.480  61.906 -60.410  1.00  0.00     0.048 C 
HETATM   17  C   UNL     1     -41.742  59.451 -60.882  1.00  0.00     0.009 A 
ENDBRANCH   4   5
ENDBRANCH   1   4
BRANCH   1  18
HETATM   18  C   UNL     1     -41.023  56.830 -53.984  1.00  0.00     0.158 C 
BRANCH  18  19
HETATM   19  C   UNL     1     -41.364  58.193 -53.343  1.00  0.00     0.139 C 
HETATM   20  O   UNL     1     -40.172  58.998 -53.255  1.00  0.00    -0.384 OA
HETATM   21  C   UNL     1     -39.752  59.076 -51.886  1.00  0.00     0.168 C 
HETATM   22  C   UNL     1     -40.584  58.077 -51.111  1.00  0.00     0.029 C 
HETATM   23  C   UNL     1     -41.862  58.044 -51.912  1.00  0.00     0.035 C 
ENDBRANCH  18  19
ENDBRANCH   1  18
BRANCH   2  24
HETATM   24  C   UNL     1     -41.645  54.025 -53.097  1.00  0.00     0.034 A 
HETATM   25  C   UNL     1     -40.912  53.011 -53.731  1.00  0.00     0.053 A 
HETATM   26  C   UNL     1     -39.981  52.267 -53.009  1.00  0.00     0.069 A 
HETATM   27  C   UNL     1     -39.812  52.517 -51.645  1.00  0.00     0.037 A 
HETATM   28  C   UNL     1     -40.515  53.550 -51.019  1.00  0.00     0.004 A 
HETATM   29  C   UNL     1     -41.415  54.324 -51.751  1.00  0.00     0.017 A 
BRANCH  26  30
HETATM   30  O   UNL     1     -39.199  51.270 -53.523  1.00  0.00    -0.356 OA
HETATM   31  C   UNL     1     -39.901  50.185 -54.125  1.00  0.00     0.210 C 
ENDBRANCH  26  30
ENDBRANCH   2  24
TORSDOF 6
ENDMDL
MODEL 4
REMARK VINA RESULT:      -8.4      1.808      2.639
REMARK  6 active torsions:
REMARK  status: ('A' for Active; 'I' for Inactive)
REMARK    1  A    between atoms: C_9  and  C_10 
REMARK    2  A    between atoms: C_10  and  N_11 
REMARK       I    between atoms: N_11  and  C_12 
REMARK    3  A    between atoms: N_11  and  C_22 
REMARK    4  A    between atoms: C_12  and  C_13 
REMARK    5  A    between atoms: C_15  and  O_16 
REMARK    6  A    between atoms: C_22  and  C_23 
ROOT
HETATM    1  N   UNL     1     -42.346  56.853 -52.652  1.00  0.00    -0.341 N 
HETATM    2  C   UNL     1     -41.656  57.441 -53.720  1.00  0.00     0.254 C 
HETATM    3  O   UNL     1     -40.428  57.493 -53.776  1.00  0.00    -0.267 OA
ENDROOT
BRANCH   1   4
HETATM    4  C   UNL     1     -41.532  56.476 -51.486  1.00  0.00     0.170 C 
BRANCH   4   5
HETATM    5  C   UNL     1     -41.109  55.029 -51.483  1.00  0.00     0.029 A 
HETATM    6  C   UNL     1     -40.951  54.466 -50.102  1.00  0.00     0.253 A 
HETATM    7  N   UNL     1     -40.532  53.169 -49.993  1.00  0.00    -0.322 N 
HETATM    8  O   UNL     1     -41.199  55.131 -49.100  1.00  0.00    -0.268 OA
HETATM    9  C   UNL     1     -40.258  52.348 -51.089  1.00  0.00     0.045 A 
HETATM   10  H   UNL     1     -40.424  52.821 -49.051  1.00  0.00     0.169 HD
HETATM   11  C   UNL     1     -40.421  52.857 -52.381  1.00  0.00    -0.008 A 
HETATM   12  C   UNL     1     -39.831  51.038 -50.884  1.00  0.00     0.031 A 
HETATM   13  C   UNL     1     -40.145  52.036 -53.480  1.00  0.00     0.020 A 
HETATM   14  C   UNL     1     -40.865  54.242 -52.548  1.00  0.00     0.028 A 
HETATM   15  C   UNL     1     -39.700  50.719 -53.288  1.00  0.00    -0.061 A 
HETATM   16  C   UNL     1     -39.427  49.825 -54.463  1.00  0.00     0.048 C 
HETATM   17  C   UNL     1     -39.556  50.224 -51.984  1.00  0.00     0.009 A 
ENDBRANCH   4   5
ENDBRANCH   1   4
BRANCH   1  18
HETATM   18  C   UNL     1     -43.790  57.010 -52.404  1.00  0.00     0.158 C 
BRANCH  18  19
HETATM   19  C   UNL     1     -44.113  57.766 -51.097  1.00  0.00     0.139 C 
HETATM   20  O   UNL     1     -45.531  57.717 -50.846  1.00  0.00    -0.384 OA
HETATM   21  C   UNL     1     -46.103  59.009 -51.092  1.00  0.00     0.168 C 
HETATM   22  C   UNL     1     -45.032  59.845 -51.757  1.00  0.00     0.029 C 
HETATM   23  C   UNL     1     -43.768  59.247 -51.192  1.00  0.00     0.035 C 
ENDBRANCH  18  19
ENDBRANCH   1  18
BRANCH   2  24
HETATM   24  C   UNL     1     -42.387  58.075 -54.841  1.00  0.00     0.034 A 
HETATM   25  C   UNL     1     -42.741  57.255 -55.923  1.00  0.00     0.053 A 
HETATM   26  C   UNL     1     -43.475  57.779 -56.985  1.00  0.00     0.069 A 
HETATM   27  C   UNL     1     -43.824  59.131 -56.976  1.00  0.00     0.037 A 
HETATM   28  C   UNL     1     -43.504  59.942 -55.884  1.00  0.00     0.004 A 
HETATM   29  C   UNL     1     -42.807  59.407 -54.801  1.00  0.00     0.017 A 
BRANCH  26  30
HETATM   30  O   UNL     1     -43.890  57.073 -58.081  1.00  0.00    -0.356 OA
HETATM   31  C   UNL     1     -43.342  55.764 -58.214  1.00  0.00     0.210 C 
ENDBRANCH  26  30
ENDBRANCH   2  24
TORSDOF 6
ENDMDL
MODEL 5
REMARK VINA RESULT:      -8.2      1.857      7.040
REMARK  6 active torsions:
REMARK  status: ('A' for Active; 'I' for Inactive)
REMARK    1  A    between atoms: C_9  and  C_10 
REMARK    2  A    between atoms: C_10  and  N_11 
REMARK       I    between atoms: N_11  and  C_12 
REMARK    3  A    between atoms: N_11  and  C_22 
REMARK    4  A    between atoms: C_12  and  C_13 
REMARK    5  A    between atoms: C_15  and  O_16 
REMARK    6  A    between atoms: C_22  and  C_23 
ROOT
HETATM    1  N   UNL     1     -41.933  57.098 -53.570  1.00  0.00    -0.341 N 
HETATM    2  C   UNL     1     -42.553  55.972 -53.012  1.00  0.00     0.254 C 
HETATM    3  O   UNL     1     -43.749  55.724 -53.161  1.00  0.00    -0.267 OA
ENDROOT
BRANCH   1   4
HETATM    4  C   UNL     1     -42.830  58.093 -54.180  1.00  0.00     0.170 C 
BRANCH   4   5
HETATM    5  C   UNL     1     -42.894  58.012 -55.683  1.00  0.00     0.029 A 
HETATM    6  C   UNL     1     -42.228  59.172 -56.363  1.00  0.00     0.253 A 
HETATM    7  N   UNL     1     -42.266  59.210 -57.729  1.00  0.00    -0.322 N 
HETATM    8  O   UNL     1     -41.655  60.053 -55.727  1.00  0.00    -0.268 OA
HETATM    9  C   UNL     1     -42.875  58.231 -58.515  1.00  0.00     0.045 A 
HETATM   10  H   UNL     1     -41.820  60.008 -58.158  1.00  0.00     0.169 HD
HETATM   11  C   UNL     1     -43.481  57.135 -57.893  1.00  0.00    -0.008 A 
HETATM   12  C   UNL     1     -42.870  58.352 -59.903  1.00  0.00     0.031 A 
HETATM   13  C   UNL     1     -44.094  56.154 -58.680  1.00  0.00     0.020 A 
HETATM   14  C   UNL     1     -43.469  57.052 -56.431  1.00  0.00     0.028 A 
HETATM   15  C   UNL     1     -44.110  56.271 -60.078  1.00  0.00    -0.061 A 
HETATM   16  C   UNL     1     -44.743  55.208 -60.928  1.00  0.00     0.048 C 
HETATM   17  C   UNL     1     -43.484  57.371 -60.682  1.00  0.00     0.009 A 
ENDBRANCH   4   5
ENDBRANCH   1   4
BRANCH   1  18
HETATM   18  C   UNL     1     -40.592  57.583 -53.199  1.00  0.00     0.158 C 
BRANCH  18  19
HETATM   19  C   UNL     1     -40.594  59.009 -52.606  1.00  0.00     0.139 C 
HETATM   20  O   UNL     1     -39.249  59.391 -52.258  1.00  0.00    -0.384 OA
HETATM   21  C   UNL     1     -39.108  59.387 -50.831  1.00  0.00     0.168 C 
HETATM   22  C   UNL     1     -40.355  58.743 -50.266  1.00  0.00     0.029 C 
HETATM   23  C   UNL     1     -41.388  59.089 -51.310  1.00  0.00     0.035 C 
ENDBRANCH  18  19
ENDBRANCH   1  18
BRANCH   2  24
HETATM   24  C   UNL     1     -41.790  55.024 -52.169  1.00  0.00     0.034 A 
HETATM   25  C   UNL     1     -41.955  55.123 -50.780  1.00  0.00     0.053 A 
HETATM   26  C   UNL     1     -41.305  54.226 -49.934  1.00  0.00     0.069 A 
HETATM   27  C   UNL     1     -40.465  53.253 -50.481  1.00  0.00     0.037 A 
HETATM   28  C   UNL     1     -40.327  53.130 -51.866  1.00  0.00     0.004 A 
HETATM   29  C   UNL     1     -41.011  53.999 -52.714  1.00  0.00     0.017 A 
BRANCH  26  30
HETATM   30  O   UNL     1     -41.404  54.215 -48.570  1.00  0.00    -0.356 OA
HETATM   31  C   UNL     1     -40.206  53.896 -47.868  1.00  0.00     0.210 C 
ENDBRANCH  26  30
ENDBRANCH   2  24
TORSDOF 6
ENDMDL
MODEL 6
REMARK VINA RESULT:      -8.0      2.094      3.413
REMARK  6 active torsions:
REMARK  status: ('A' for Active; 'I' for Inactive)
REMARK    1  A    between atoms: C_9  and  C_10 
REMARK    2  A    between atoms: C_10  and  N_11 
REMARK       I    between atoms: N_11  and  C_12 
REMARK    3  A    between atoms: N_11  and  C_22 
REMARK    4  A    between atoms: C_12  and  C_13 
REMARK    5  A    between atoms: C_15  and  O_16 
REMARK    6  A    between atoms: C_22  and  C_23 
ROOT
HETATM    1  N   UNL     1     -42.155  57.334 -52.502  1.00  0.00    -0.341 N 
HETATM    2  C   UNL     1     -41.423  58.089 -53.427  1.00  0.00     0.254 C 
HETATM    3  O   UNL     1     -40.202  58.229 -53.360  1.00  0.00    -0.267 OA
ENDROOT
BRANCH   1   4
HETATM    4  C   UNL     1     -41.418  56.876 -51.314  1.00  0.00     0.170 C 
BRANCH   4   5
HETATM    5  C   UNL     1     -41.046  55.416 -51.356  1.00  0.00     0.029 A 
HETATM    6  C   UNL     1     -40.850  54.820 -49.994  1.00  0.00     0.253 A 
HETATM    7  N   UNL     1     -40.473  53.508 -49.926  1.00  0.00    -0.322 N 
HETATM    8  O   UNL     1     -41.033  55.473 -48.969  1.00  0.00    -0.268 OA
HETATM    9  C   UNL     1     -40.274  52.700 -51.047  1.00  0.00     0.045 A 
HETATM   10  H   UNL     1     -40.337  53.138 -48.996  1.00  0.00     0.169 HD
HETATM   11  C   UNL     1     -40.474  53.239 -52.322  1.00  0.00    -0.008 A 
HETATM   12  C   UNL     1     -39.885  51.372 -50.886  1.00  0.00     0.031 A 
HETATM   13  C   UNL     1     -40.273  52.431 -53.446  1.00  0.00     0.020 A 
HETATM   14  C   UNL     1     -40.876  54.642 -52.444  1.00  0.00     0.028 A 
HETATM   15  C   UNL     1     -39.867  51.096 -53.298  1.00  0.00    -0.061 A 
HETATM   16  C   UNL     1     -39.675  50.218 -54.500  1.00  0.00     0.048 C 
HETATM   17  C   UNL     1     -39.686  50.571 -52.011  1.00  0.00     0.009 A 
ENDBRANCH   4   5
ENDBRANCH   1   4
BRANCH   1  18
HETATM   18  C   UNL     1     -43.624  57.364 -52.375  1.00  0.00     0.158 C 
BRANCH  18  19
HETATM   19  C   UNL     1     -44.118  58.059 -51.088  1.00  0.00     0.139 C 
HETATM   20  O   UNL     1     -45.541  57.875 -50.954  1.00  0.00    -0.384 OA
HETATM   21  C   UNL     1     -46.208  59.115 -51.227  1.00  0.00     0.168 C 
HETATM   22  C   UNL     1     -45.170  60.060 -51.790  1.00  0.00     0.029 C 
HETATM   23  C   UNL     1     -43.905  59.566 -51.133  1.00  0.00     0.035 C 
ENDBRANCH  18  19
ENDBRANCH   1  18
BRANCH   2  24
HETATM   24  C   UNL     1     -42.102  58.802 -54.534  1.00  0.00     0.034 A 
HETATM   25  C   UNL     1     -42.409  60.156 -54.334  1.00  0.00     0.053 A 
HETATM   26  C   UNL     1     -43.000  60.895 -55.357  1.00  0.00     0.069 A 
HETATM   27  C   UNL     1     -43.312  60.268 -56.565  1.00  0.00     0.037 A 
HETATM   28  C   UNL     1     -42.975  58.929 -56.779  1.00  0.00     0.004 A 
HETATM   29  C   UNL     1     -42.344  58.200 -55.772  1.00  0.00     0.017 A 
BRANCH  26  30
HETATM   30  O   UNL     1     -43.327  62.221 -55.283  1.00  0.00    -0.356 OA
HETATM   31  C   UNL     1     -43.186  62.819 -53.997  1.00  0.00     0.210 C 
ENDBRANCH  26  30
ENDBRANCH   2  24
TORSDOF 6
ENDMDL
MODEL 7
REMARK VINA RESULT:      -7.9      2.069      7.686
REMARK  6 active torsions:
REMARK  status: ('A' for Active; 'I' for Inactive)
REMARK    1  A    between atoms: C_9  and  C_10 
REMARK    2  A    between atoms: C_10  and  N_11 
REMARK       I    between atoms: N_11  and  C_12 
REMARK    3  A    between atoms: N_11  and  C_22 
REMARK    4  A    between atoms: C_12  and  C_13 
REMARK    5  A    between atoms: C_15  and  O_16 
REMARK    6  A    between atoms: C_22  and  C_23 
ROOT
HETATM    1  N   UNL     1     -42.230  57.109 -54.832  1.00  0.00    -0.341 N 
HETATM    2  C   UNL     1     -42.615  55.762 -54.852  1.00  0.00     0.254 C 
HETATM    3  O   UNL     1     -43.672  55.376 -55.351  1.00  0.00    -0.267 OA
ENDROOT
BRANCH   1   4
HETATM    4  C   UNL     1     -43.251  58.079 -55.257  1.00  0.00     0.170 C 
BRANCH   4   5
HETATM    5  C   UNL     1     -42.896  58.819 -56.521  1.00  0.00     0.029 A 
HETATM    6  C   UNL     1     -43.581  58.269 -57.736  1.00  0.00     0.253 A 
HETATM    7  N   UNL     1     -43.294  58.849 -58.940  1.00  0.00    -0.322 N 
HETATM    8  O   UNL     1     -44.382  57.340 -57.663  1.00  0.00    -0.268 OA
HETATM    9  C   UNL     1     -42.416  59.924 -59.094  1.00  0.00     0.045 A 
HETATM   10  H   UNL     1     -43.761  58.450 -59.742  1.00  0.00     0.169 HD
HETATM   11  C   UNL     1     -41.787  60.458 -57.964  1.00  0.00    -0.008 A 
HETATM   12  C   UNL     1     -42.179  60.451 -60.361  1.00  0.00     0.031 A 
HETATM   13  C   UNL     1     -40.905  61.533 -58.117  1.00  0.00     0.020 A 
HETATM   14  C   UNL     1     -42.061  59.867 -56.653  1.00  0.00     0.028 A 
HETATM   15  C   UNL     1     -40.646  62.065 -59.389  1.00  0.00    -0.061 A 
HETATM   16  C   UNL     1     -39.720  63.235 -59.555  1.00  0.00     0.048 C 
HETATM   17  C   UNL     1     -41.297  61.523 -60.506  1.00  0.00     0.009 A 
ENDBRANCH   4   5
ENDBRANCH   1   4
BRANCH   1  18
HETATM   18  C   UNL     1     -41.129  57.650 -54.015  1.00  0.00     0.158 C 
BRANCH  18  19
HETATM   19  C   UNL     1     -41.591  58.676 -52.958  1.00  0.00     0.139 C 
HETATM   20  O   UNL     1     -40.469  59.476 -52.535  1.00  0.00    -0.384 OA
HETATM   21  C   UNL     1     -40.090  59.096 -51.205  1.00  0.00     0.168 C 
HETATM   22  C   UNL     1     -40.860  57.837 -50.870  1.00  0.00     0.029 C 
HETATM   23  C   UNL     1     -42.111  58.003 -51.695  1.00  0.00     0.035 C 
ENDBRANCH  18  19
ENDBRANCH   1  18
BRANCH   2  24
HETATM   24  C   UNL     1     -41.768  54.719 -54.229  1.00  0.00     0.034 A 
HETATM   25  C   UNL     1     -41.973  54.454 -52.867  1.00  0.00     0.053 A 
HETATM   26  C   UNL     1     -41.245  53.447 -52.235  1.00  0.00     0.069 A 
HETATM   27  C   UNL     1     -40.288  52.734 -52.961  1.00  0.00     0.037 A 
HETATM   28  C   UNL     1     -40.107  52.972 -54.326  1.00  0.00     0.004 A 
HETATM   29  C   UNL     1     -40.866  53.949 -54.969  1.00  0.00     0.017 A 
BRANCH  26  30
HETATM   30  O   UNL     1     -41.372  53.089 -50.922  1.00  0.00    -0.356 OA
HETATM   31  C   UNL     1     -40.280  52.352 -50.376  1.00  0.00     0.210 C 
ENDBRANCH  26  30
ENDBRANCH   2  24
TORSDOF 6
ENDMDL
MODEL 8
REMARK VINA RESULT:      -7.8      2.273      4.308
REMARK  6 active torsions:
REMARK  status: ('A' for Active; 'I' for Inactive)
REMARK    1  A    between atoms: C_9  and  C_10 
REMARK    2  A    between atoms: C_10  and  N_11 
REMARK       I    between atoms: N_11  and  C_12 
REMARK    3  A    between atoms: N_11  and  C_22 
REMARK    4  A    between atoms: C_12  and  C_13 
REMARK    5  A    between atoms: C_15  and  O_16 
REMARK    6  A    between atoms: C_22  and  C_23 
ROOT
HETATM    1  N   UNL     1     -43.993  57.848 -55.784  1.00  0.00    -0.341 N 
HETATM    2  C   UNL     1     -43.758  59.192 -55.466  1.00  0.00     0.254 C 
HETATM    3  O   UNL     1     -43.862  59.637 -54.323  1.00  0.00    -0.267 OA
ENDROOT
BRANCH   1   4
HETATM    4  C   UNL     1     -44.574  57.023 -54.713  1.00  0.00     0.170 C 
BRANCH   4   5
HETATM    5  C   UNL     1     -43.590  56.078 -54.073  1.00  0.00     0.029 A 
HETATM    6  C   UNL     1     -43.189  56.496 -52.690  1.00  0.00     0.253 A 
HETATM    7  N   UNL     1     -42.269  55.723 -52.038  1.00  0.00    -0.322 N 
HETATM    8  O   UNL     1     -43.673  57.486 -52.147  1.00  0.00    -0.268 OA
HETATM    9  C   UNL     1     -41.698  54.571 -52.583  1.00  0.00     0.045 A 
HETATM   10  H   UNL     1     -42.010  56.035 -51.113  1.00  0.00     0.169 HD
HETATM   11  C   UNL     1     -42.079  54.162 -53.865  1.00  0.00    -0.008 A 
HETATM   12  C   UNL     1     -40.763  53.845 -51.849  1.00  0.00     0.031 A 
HETATM   13  C   UNL     1     -41.507  53.009 -54.413  1.00  0.00     0.020 A 
HETATM   14  C   UNL     1     -43.060  54.959 -54.603  1.00  0.00     0.028 A 
HETATM   15  C   UNL     1     -40.553  52.276 -53.690  1.00  0.00    -0.061 A 
HETATM   16  C   UNL     1     -39.955  51.025 -54.264  1.00  0.00     0.048 C 
HETATM   17  C   UNL     1     -40.195  52.697 -52.402  1.00  0.00     0.009 A 
ENDBRANCH   4   5
ENDBRANCH   1   4
BRANCH   1  18
HETATM   18  C   UNL     1     -44.155  57.331 -57.154  1.00  0.00     0.158 C 
BRANCH  18  19
HETATM   19  C   UNL     1     -42.879  56.669 -57.719  1.00  0.00     0.139 C 
HETATM   20  O   UNL     1     -42.221  57.578 -58.624  1.00  0.00    -0.384 OA
HETATM   21  C   UNL     1     -42.397  57.118 -59.970  1.00  0.00     0.168 C 
HETATM   22  C   UNL     1     -43.413  55.998 -59.925  1.00  0.00     0.029 C 
HETATM   23  C   UNL     1     -43.193  55.429 -58.545  1.00  0.00     0.035 C 
ENDBRANCH  18  19
ENDBRANCH   1  18
BRANCH   2  24
HETATM   24  C   UNL     1     -43.402  60.172 -56.518  1.00  0.00     0.034 A 
HETATM   25  C   UNL     1     -42.038  60.399 -56.749  1.00  0.00     0.053 A 
HETATM   26  C   UNL     1     -41.637  61.269 -57.761  1.00  0.00     0.069 A 
HETATM   27  C   UNL     1     -42.604  61.937 -58.515  1.00  0.00     0.037 A 
HETATM   28  C   UNL     1     -43.964  61.686 -58.310  1.00  0.00     0.004 A 
HETATM   29  C   UNL     1     -44.365  60.782 -57.327  1.00  0.00     0.017 A 
BRANCH  26  30
HETATM   30  O   UNL     1     -40.340  61.553 -58.088  1.00  0.00    -0.356 OA
HETATM   31  C   UNL     1     -40.143  62.742 -58.851  1.00  0.00     0.210 C 
ENDBRANCH  26  30
ENDBRANCH   2  24
TORSDOF 6
ENDMDL
MODEL 9
REMARK VINA RESULT:      -7.5     15.996     18.616
REMARK  6 active torsions:
REMARK  status: ('A' for Active; 'I' for Inactive)
REMARK    1  A    between atoms: C_9  and  C_10 
REMARK    2  A    between atoms: C_10  and  N_11 
REMARK       I    between atoms: N_11  and  C_12 
REMARK    3  A    between atoms: N_11  and  C_22 
REMARK    4  A    between atoms: C_12  and  C_13 
REMARK    5  A    between atoms: C_15  and  O_16 
REMARK    6  A    between atoms: C_22  and  C_23 
ROOT
HETATM    1  N   UNL     1     -35.108  41.074 -54.357  1.00  0.00    -0.341 N 
HETATM    2  C   UNL     1     -35.304  41.589 -53.069  1.00  0.00     0.254 C 
HETATM    3  O   UNL     1     -35.918  42.634 -52.852  1.00  0.00    -0.267 OA
ENDROOT
BRANCH   1   4
HETATM    4  C   UNL     1     -35.497  41.954 -55.470  1.00  0.00     0.170 C 
BRANCH   4   5
HETATM    5  C   UNL     1     -36.273  41.252 -56.555  1.00  0.00     0.029 A 
HETATM    6  C   UNL     1     -37.709  41.017 -56.192  1.00  0.00     0.253 A 
HETATM    7  N   UNL     1     -38.489  40.353 -57.097  1.00  0.00    -0.322 N 
HETATM    8  O   UNL     1     -38.182  41.415 -55.131  1.00  0.00    -0.268 OA
HETATM    9  C   UNL     1     -38.025  39.896 -58.333  1.00  0.00     0.045 A 
HETATM   10  H   UNL     1     -39.448  40.199 -56.821  1.00  0.00     0.169 HD
HETATM   11  C   UNL     1     -36.693  40.128 -58.690  1.00  0.00    -0.008 A 
HETATM   12  C   UNL     1     -38.889  39.222 -59.193  1.00  0.00     0.031 A 
HETATM   13  C   UNL     1     -36.227  39.669 -59.927  1.00  0.00     0.020 A 
HETATM   14  C   UNL     1     -35.819  40.834 -57.751  1.00  0.00     0.028 A 
HETATM   15  C   UNL     1     -37.082  38.976 -60.796  1.00  0.00    -0.061 A 
HETATM   16  C   UNL     1     -36.594  38.505 -62.135  1.00  0.00     0.048 C 
HETATM   17  C   UNL     1     -38.418  38.767 -60.425  1.00  0.00     0.009 A 
ENDBRANCH   4   5
ENDBRANCH   1   4
BRANCH   1  18
HETATM   18  C   UNL     1     -34.159  39.997 -54.690  1.00  0.00     0.158 C 
BRANCH  18  19
HETATM   19  C   UNL     1     -32.742  40.507 -55.032  1.00  0.00     0.139 C 
HETATM   20  O   UNL     1     -32.511  40.381 -56.449  1.00  0.00    -0.384 OA
HETATM   21  C   UNL     1     -31.589  39.308 -56.686  1.00  0.00     0.168 C 
HETATM   22  C   UNL     1     -31.418  38.575 -55.373  1.00  0.00     0.029 C 
HETATM   23  C   UNL     1     -31.656  39.673 -54.366  1.00  0.00     0.035 C 
ENDBRANCH  18  19
ENDBRANCH   1  18
BRANCH   2  24
HETATM   24  C   UNL     1     -34.739  40.906 -51.882  1.00  0.00     0.034 A 
HETATM   25  C   UNL     1     -35.520  39.906 -51.284  1.00  0.00     0.053 A 
HETATM   26  C   UNL     1     -35.024  39.190 -50.197  1.00  0.00     0.069 A 
HETATM   27  C   UNL     1     -33.760  39.501 -49.690  1.00  0.00     0.037 A 
HETATM   28  C   UNL     1     -32.966  40.472 -50.306  1.00  0.00     0.004 A 
HETATM   29  C   UNL     1     -33.444  41.159 -51.421  1.00  0.00     0.017 A 
BRANCH  26  30
HETATM   30  O   UNL     1     -35.685  38.185 -49.546  1.00  0.00    -0.356 OA
HETATM   31  C   UNL     1     -35.490  38.133 -48.135  1.00  0.00     0.210 C 
ENDBRANCH  26  30
ENDBRANCH   2  24
TORSDOF 6
ENDMDL
MODEL 10
REMARK VINA RESULT:      -7.4     16.019     18.889
REMARK  6 active torsions:
REMARK  status: ('A' for Active; 'I' for Inactive)
REMARK    1  A    between atoms: C_9  and  C_10 
REMARK    2  A    between atoms: C_10  and  N_11 
REMARK       I    between atoms: N_11  and  C_12 
REMARK    3  A    between atoms: N_11  and  C_22 
REMARK    4  A    between atoms: C_12  and  C_13 
REMARK    5  A    between atoms: C_15  and  O_16 
REMARK    6  A    between atoms: C_22  and  C_23 
ROOT
HETATM    1  N   UNL     1     -35.429  40.476 -53.651  1.00  0.00    -0.341 N 
HETATM    2  C   UNL     1     -35.539  40.595 -52.259  1.00  0.00     0.254 C 
HETATM    3  O   UNL     1     -36.309  41.386 -51.715  1.00  0.00    -0.267 OA
ENDROOT
BRANCH   1   4
HETATM    4  C   UNL     1     -36.133  41.494 -54.445  1.00  0.00     0.170 C 
BRANCH   4   5
HETATM    5  C   UNL     1     -36.436  41.062 -55.856  1.00  0.00     0.029 A 
HETATM    6  C   UNL     1     -35.765  41.917 -56.890  1.00  0.00     0.253 A 
HETATM    7  N   UNL     1     -36.008  41.628 -58.203  1.00  0.00    -0.322 N 
HETATM    8  O   UNL     1     -35.012  42.837 -56.579  1.00  0.00    -0.268 OA
HETATM    9  C   UNL     1     -36.831  40.583 -58.628  1.00  0.00     0.045 A 
HETATM   10  H   UNL     1     -35.553  42.228 -58.876  1.00  0.00     0.169 HD
HETATM   11  C   UNL     1     -37.445  39.767 -57.674  1.00  0.00    -0.008 A 
HETATM   12  C   UNL     1     -37.027  40.363 -59.990  1.00  0.00     0.031 A 
HETATM   13  C   UNL     1     -38.271  38.720 -58.098  1.00  0.00     0.020 A 
HETATM   14  C   UNL     1     -37.217  40.039 -56.253  1.00  0.00     0.028 A 
HETATM   15  C   UNL     1     -38.489  38.496 -59.466  1.00  0.00    -0.061 A 
HETATM   16  C   UNL     1     -39.353  37.359 -59.927  1.00  0.00     0.048 C 
HETATM   17  C   UNL     1     -37.852  39.318 -60.407  1.00  0.00     0.009 A 
ENDBRANCH   4   5
ENDBRANCH   1   4
BRANCH   1  18
HETATM   18  C   UNL     1     -34.343  39.758 -54.343  1.00  0.00     0.158 C 
BRANCH  18  19
HETATM   19  C   UNL     1     -33.020  40.551 -54.403  1.00  0.00     0.139 C 
HETATM   20  O   UNL     1     -32.616  40.717 -55.777  1.00  0.00    -0.384 OA
HETATM   21  C   UNL     1     -31.488  39.874 -56.046  1.00  0.00     0.168 C 
HETATM   22  C   UNL     1     -31.325  38.960 -54.851  1.00  0.00     0.029 C 
HETATM   23  C   UNL     1     -31.875  39.806 -53.730  1.00  0.00     0.035 C 
ENDBRANCH  18  19
ENDBRANCH   1  18
BRANCH   2  24
HETATM   24  C   UNL     1     -34.693  39.782 -51.356  1.00  0.00     0.034 A 
HETATM   25  C   UNL     1     -33.689  40.452 -50.642  1.00  0.00     0.053 A 
HETATM   26  C   UNL     1     -32.893  39.754 -49.736  1.00  0.00     0.069 A 
HETATM   27  C   UNL     1     -33.081  38.379 -49.575  1.00  0.00     0.037 A 
HETATM   28  C   UNL     1     -34.104  37.716 -50.259  1.00  0.00     0.004 A 
HETATM   29  C   UNL     1     -34.929  38.423 -51.133  1.00  0.00     0.017 A 
BRANCH  26  30
HETATM   30  O   UNL     1     -31.899  40.302 -48.973  1.00  0.00    -0.356 OA
HETATM   31  C   UNL     1     -31.391  39.470 -47.933  1.00  0.00     0.210 C 
ENDBRANCH  26  30
ENDBRANCH   2  24
TORSDOF 6
ENDMDL
