MODEL 1
REMARK VINA RESULT:      -9.0      0.000      0.000
REMARK  7 active torsions:
REMARK  status: ('A' for Active; 'I' for Inactive)
REMARK    1  A    between atoms: C_2  and  O_3 
REMARK    2  A    between atoms: O_3  and  C_4 
REMARK    3  A    between atoms: C_5  and  N_6 
REMARK       I    between atoms: N_6  and  C_7 
REMARK       I    between atoms: C_7  and  N_8 
REMARK    4  A    between atoms: N_8  and  C_9 
REMARK    5  A    between atoms: C_9  and  C_10 
REMARK       I    between atoms: C_10  and  N_11 
REMARK    6  A    between atoms: N_11  and  C_12 
REMARK    7  A    between atoms: C_25  and  C_26 
ROOT
HETATM    1  N   UNL     1     -41.070  54.874 -55.519  1.00  0.00    -0.306 N 
HETATM    2  C   UNL     1     -42.345  54.838 -56.048  1.00  0.00     0.321 C 
HETATM    3  N   UNL     1     -42.493  55.751 -57.057  1.00  0.00    -0.334 N 
HETATM    4  O   UNL     1     -43.227  54.042 -55.749  1.00  0.00    -0.247 OA
HETATM    5  H   UNL     1     -40.381  54.864 -56.257  1.00  0.00     0.171 HD
HETATM    6  H   UNL     1     -41.798  56.483 -57.112  1.00  0.00     0.164 HD
ENDROOT
BRANCH   3   7
HETATM    7  C   UNL     1     -43.355  55.539 -58.209  1.00  0.00     0.227 C 
BRANCH   7   8
HETATM    8  C   UNL     1     -44.156  56.708 -58.813  1.00  0.00     0.239 C 
HETATM    9  N   UNL     1     -45.464  56.394 -59.119  1.00  0.00    -0.326 N 
HETATM   10  H   UNL     1     -45.803  55.500 -58.755  1.00  0.00     0.169 HD
HETATM   11  O   UNL     1     -43.575  57.745 -59.132  1.00  0.00    -0.271 OA
BRANCH   9  12
HETATM   12  C   UNL     1     -46.352  57.091 -59.961  1.00  0.00     0.037 A 
HETATM   13  C   UNL     1     -47.080  56.486 -60.993  1.00  0.00     0.061 A 
HETATM   14  C   UNL     1     -47.971  57.280 -61.679  1.00  0.00     0.065 A 
HETATM   15  C   UNL     1     -48.149  58.631 -61.389  1.00  0.00     0.063 A 
HETATM   16  N   UNL     1     -48.841  56.947 -62.713  1.00  0.00    -0.306 N 
HETATM   17  N   UNL     1     -49.127  59.127 -62.244  1.00  0.00    -0.307 N 
HETATM   18  C   UNL     1     -47.441  59.261 -60.399  1.00  0.00     0.034 A 
HETATM   19  C   UNL     1     -49.573  58.088 -63.073  1.00  0.00     0.325 A 
HETATM   20  H   UNL     1     -49.491  60.065 -62.276  1.00  0.00     0.170 HD
HETATM   21  O   UNL     1     -50.433  58.162 -63.931  1.00  0.00    -0.247 OA
HETATM   22  C   UNL     1     -46.534  58.472 -59.679  1.00  0.00     0.032 A 
HETATM   23  H   UNL     1     -48.960  56.042 -63.138  1.00  0.00     0.170 HD
ENDBRANCH   9  12
ENDBRANCH   7   8
ENDBRANCH   3   7
BRANCH   1  24
HETATM   24  C   UNL     1     -40.764  54.065 -54.398  1.00  0.00     0.070 A 
HETATM   25  C   UNL     1     -40.808  54.584 -53.091  1.00  0.00     0.095 A 
HETATM   26  C   UNL     1     -40.493  53.743 -52.020  1.00  0.00     0.040 A 
HETATM   27  C   UNL     1     -40.177  52.398 -52.245  1.00  0.00     0.019 A 
HETATM   28  C   UNL     1     -40.143  51.876 -53.545  1.00  0.00     0.050 A 
HETATM   29  C   UNL     1     -40.403  52.731 -54.625  1.00  0.00     0.048 A 
BRANCH  25  30
HETATM   30  O   UNL     1     -41.097  55.919 -52.973  1.00  0.00    -0.349 OA
BRANCH  30  31
HETATM   31  C   UNL     1     -42.120  56.291 -52.052  1.00  0.00     0.171 C 
HETATM   32  C   UNL     1     -43.439  56.309 -52.805  1.00  0.00     0.034 C 
ENDBRANCH  30  31
ENDBRANCH  25  30
BRANCH  28  33
HETATM   33  C   UNL     1     -39.862  50.409 -53.764  1.00  0.00     0.417 C 
HETATM   34  F   UNL     1     -38.741  50.175 -54.502  1.00  0.00    -0.166 F 
HETATM   35  F   UNL     1     -39.688  49.732 -52.596  1.00  0.00    -0.166 F 
HETATM   36  F   UNL     1     -40.877  49.779 -54.416  1.00  0.00    -0.166 F 
ENDBRANCH  28  33
ENDBRANCH   1  24
TORSDOF 7
ENDMDL
MODEL 2
REMARK VINA RESULT:      -9.0      3.565      4.299
REMARK  7 active torsions:
REMARK  status: ('A' for Active; 'I' for Inactive)
REMARK    1  A    between atoms: C_2  and  O_3 
REMARK    2  A    between atoms: O_3  and  C_4 
REMARK    3  A    between atoms: C_5  and  N_6 
REMARK       I    between atoms: N_6  and  C_7 
REMARK       I    between atoms: C_7  and  N_8 
REMARK    4  A    between atoms: N_8  and  C_9 
REMARK    5  A    between atoms: C_9  and  C_10 
REMARK       I    between atoms: C_10  and  N_11 
REMARK    6  A    between atoms: N_11  and  C_12 
REMARK    7  A    between atoms: C_25  and  C_26 
ROOT
HETATM    1  N   UNL     1     -40.850  54.647 -55.193  1.00  0.00    -0.306 N 
HETATM    2  C   UNL     1     -42.141  54.734 -55.674  1.00  0.00     0.321 C 
HETATM    3  N   UNL     1     -42.262  55.736 -56.600  1.00  0.00    -0.334 N 
HETATM    4  O   UNL     1     -43.063  53.973 -55.407  1.00  0.00    -0.247 OA
HETATM    5  H   UNL     1     -40.188  54.655 -55.955  1.00  0.00     0.171 HD
HETATM    6  H   UNL     1     -41.524  56.425 -56.622  1.00  0.00     0.164 HD
ENDROOT
BRANCH   3   7
HETATM    7  C   UNL     1     -43.174  55.673 -57.731  1.00  0.00     0.227 C 
BRANCH   7   8
HETATM    8  C   UNL     1     -43.287  56.856 -58.713  1.00  0.00     0.239 C 
HETATM    9  N   UNL     1     -42.103  57.535 -58.912  1.00  0.00    -0.326 N 
HETATM   10  H   UNL     1     -41.264  57.082 -58.540  1.00  0.00     0.169 HD
HETATM   11  O   UNL     1     -44.395  57.217 -59.108  1.00  0.00    -0.271 OA
BRANCH   9  12
HETATM   12  C   UNL     1     -41.919  58.819 -59.460  1.00  0.00     0.037 A 
HETATM   13  C   UNL     1     -41.904  59.081 -60.835  1.00  0.00     0.061 A 
HETATM   14  C   UNL     1     -41.797  60.399 -61.220  1.00  0.00     0.065 A 
HETATM   15  C   UNL     1     -41.695  61.442 -60.302  1.00  0.00     0.063 A 
HETATM   16  N   UNL     1     -41.792  60.952 -62.497  1.00  0.00    -0.306 N 
HETATM   17  N   UNL     1     -41.626  62.634 -61.014  1.00  0.00    -0.307 N 
HETATM   18  C   UNL     1     -41.688  61.222 -58.949  1.00  0.00     0.034 A 
HETATM   19  C   UNL     1     -41.690  62.346 -62.385  1.00  0.00     0.325 A 
HETATM   20  H   UNL     1     -41.559  63.567 -60.641  1.00  0.00     0.170 HD
HETATM   21  O   UNL     1     -41.669  63.151 -63.298  1.00  0.00    -0.247 OA
HETATM   22  C   UNL     1     -41.805  59.890 -58.531  1.00  0.00     0.032 A 
HETATM   23  H   UNL     1     -41.866  60.459 -63.372  1.00  0.00     0.170 HD
ENDBRANCH   9  12
ENDBRANCH   7   8
ENDBRANCH   3   7
BRANCH   1  24
HETATM   24  C   UNL     1     -40.560  53.731 -54.153  1.00  0.00     0.070 A 
HETATM   25  C   UNL     1     -40.596  54.127 -52.802  1.00  0.00     0.095 A 
HETATM   26  C   UNL     1     -40.298  53.183 -51.816  1.00  0.00     0.040 A 
HETATM   27  C   UNL     1     -40.007  51.860 -52.166  1.00  0.00     0.019 A 
HETATM   28  C   UNL     1     -39.981  51.461 -53.510  1.00  0.00     0.050 A 
HETATM   29  C   UNL     1     -40.225  52.419 -54.504  1.00  0.00     0.048 A 
BRANCH  25  30
HETATM   30  O   UNL     1     -40.861  55.449 -52.560  1.00  0.00    -0.349 OA
BRANCH  30  31
HETATM   31  C   UNL     1     -41.832  55.753 -51.561  1.00  0.00     0.171 C 
HETATM   32  C   UNL     1     -43.197  55.384 -52.113  1.00  0.00     0.034 C 
ENDBRANCH  30  31
ENDBRANCH  25  30
BRANCH  28  33
HETATM   33  C   UNL     1     -39.728  50.016 -53.865  1.00  0.00     0.417 C 
HETATM   34  F   UNL     1     -40.731  49.452 -54.594  1.00  0.00    -0.166 F 
HETATM   35  F   UNL     1     -38.595  49.851 -54.600  1.00  0.00    -0.166 F 
HETATM   36  F   UNL     1     -39.579  49.230 -52.763  1.00  0.00    -0.166 F 
ENDBRANCH  28  33
ENDBRANCH   1  24
TORSDOF 7
ENDMDL
MODEL 3
REMARK VINA RESULT:      -8.9      5.372      7.324
REMARK  7 active torsions:
REMARK  status: ('A' for Active; 'I' for Inactive)
REMARK    1  A    between atoms: C_2  and  O_3 
REMARK    2  A    between atoms: O_3  and  C_4 
REMARK    3  A    between atoms: C_5  and  N_6 
REMARK       I    between atoms: N_6  and  C_7 
REMARK       I    between atoms: C_7  and  N_8 
REMARK    4  A    between atoms: N_8  and  C_9 
REMARK    5  A    between atoms: C_9  and  C_10 
REMARK       I    between atoms: C_10  and  N_11 
REMARK    6  A    between atoms: N_11  and  C_12 
REMARK    7  A    between atoms: C_25  and  C_26 
ROOT
HETATM    1  N   UNL     1     -41.950  54.329 -53.999  1.00  0.00    -0.306 N 
HETATM    2  C   UNL     1     -41.339  55.269 -54.804  1.00  0.00     0.321 C 
HETATM    3  N   UNL     1     -42.261  56.002 -55.504  1.00  0.00    -0.334 N 
HETATM    4  O   UNL     1     -40.140  55.515 -54.844  1.00  0.00    -0.247 OA
HETATM    5  H   UNL     1     -42.702  54.748 -53.474  1.00  0.00     0.171 HD
HETATM    6  H   UNL     1     -43.195  55.619 -55.562  1.00  0.00     0.164 HD
ENDROOT
BRANCH   3   7
HETATM    7  C   UNL     1     -42.071  57.399 -55.858  1.00  0.00     0.227 C 
BRANCH   7   8
HETATM    8  C   UNL     1     -42.006  58.483 -54.764  1.00  0.00     0.239 C 
HETATM    9  N   UNL     1     -42.557  58.098 -53.560  1.00  0.00    -0.326 N 
HETATM   10  H   UNL     1     -42.778  57.103 -53.471  1.00  0.00     0.169 HD
HETATM   11  O   UNL     1     -41.645  59.622 -55.055  1.00  0.00    -0.271 OA
BRANCH   9  12
HETATM   12  C   UNL     1     -42.957  58.916 -52.486  1.00  0.00     0.037 A 
HETATM   13  C   UNL     1     -44.291  59.092 -52.099  1.00  0.00     0.061 A 
HETATM   14  C   UNL     1     -44.522  59.857 -50.978  1.00  0.00     0.065 A 
HETATM   15  C   UNL     1     -43.494  60.451 -50.251  1.00  0.00     0.063 A 
HETATM   16  N   UNL     1     -45.725  60.169 -50.350  1.00  0.00    -0.306 N 
HETATM   17  N   UNL     1     -44.063  61.128 -49.178  1.00  0.00    -0.307 N 
HETATM   18  C   UNL     1     -42.178  60.316 -50.610  1.00  0.00     0.034 A 
HETATM   19  C   UNL     1     -45.454  60.957 -49.222  1.00  0.00     0.325 A 
HETATM   20  H   UNL     1     -43.585  61.647 -48.460  1.00  0.00     0.170 HD
HETATM   21  O   UNL     1     -46.266  61.401 -48.431  1.00  0.00    -0.247 OA
HETATM   22  C   UNL     1     -41.915  59.534 -51.742  1.00  0.00     0.032 A 
HETATM   23  H   UNL     1     -46.647  59.875 -50.627  1.00  0.00     0.170 HD
ENDBRANCH   9  12
ENDBRANCH   7   8
ENDBRANCH   3   7
BRANCH   1  24
HETATM   24  C   UNL     1     -41.147  53.413 -53.276  1.00  0.00     0.070 A 
HETATM   25  C   UNL     1     -40.771  53.667 -51.944  1.00  0.00     0.095 A 
HETATM   26  C   UNL     1     -39.976  52.731 -51.278  1.00  0.00     0.040 A 
HETATM   27  C   UNL     1     -39.594  51.544 -51.915  1.00  0.00     0.019 A 
HETATM   28  C   UNL     1     -39.976  51.284 -53.239  1.00  0.00     0.050 A 
HETATM   29  C   UNL     1     -40.726  52.247 -53.927  1.00  0.00     0.048 A 
BRANCH  25  30
HETATM   30  O   UNL     1     -41.168  54.868 -51.415  1.00  0.00    -0.349 OA
BRANCH  30  31
HETATM   31  C   UNL     1     -41.955  54.835 -50.228  1.00  0.00     0.171 C 
HETATM   32  C   UNL     1     -43.416  54.798 -50.640  1.00  0.00     0.034 C 
ENDBRANCH  30  31
ENDBRANCH  25  30
BRANCH  28  33
HETATM   33  C   UNL     1     -39.608  49.973 -53.888  1.00  0.00     0.417 C 
HETATM   34  F   UNL     1     -38.482  50.043 -54.653  1.00  0.00    -0.166 F 
HETATM   35  F   UNL     1     -39.381  48.986 -52.979  1.00  0.00    -0.166 F 
HETATM   36  F   UNL     1     -40.589  49.508 -54.710  1.00  0.00    -0.166 F 
ENDBRANCH  28  33
ENDBRANCH   1  24
TORSDOF 7
ENDMDL
MODEL 4
REMARK VINA RESULT:      -8.5      4.467      7.125
REMARK  7 active torsions:
REMARK  status: ('A' for Active; 'I' for Inactive)
REMARK    1  A    between atoms: C_2  and  O_3 
REMARK    2  A    between atoms: O_3  and  C_4 
REMARK    3  A    between atoms: C_5  and  N_6 
REMARK       I    between atoms: N_6  and  C_7 
REMARK       I    between atoms: C_7  and  N_8 
REMARK    4  A    between atoms: N_8  and  C_9 
REMARK    5  A    between atoms: C_9  and  C_10 
REMARK       I    between atoms: C_10  and  N_11 
REMARK    6  A    between atoms: N_11  and  C_12 
REMARK    7  A    between atoms: C_25  and  C_26 
ROOT
HETATM    1  N   UNL     1     -42.847  54.454 -54.302  1.00  0.00    -0.306 N 
HETATM    2  C   UNL     1     -42.436  55.426 -55.191  1.00  0.00     0.321 C 
HETATM    3  N   UNL     1     -43.481  55.887 -55.946  1.00  0.00    -0.334 N 
HETATM    4  O   UNL     1     -41.312  55.911 -55.260  1.00  0.00    -0.247 OA
HETATM    5  H   UNL     1     -43.676  54.753 -53.810  1.00  0.00     0.171 HD
HETATM    6  H   UNL     1     -44.314  55.316 -55.964  1.00  0.00     0.164 HD
ENDROOT
BRANCH   3   7
HETATM    7  C   UNL     1     -43.580  57.258 -56.423  1.00  0.00     0.227 C 
BRANCH   7   8
HETATM    8  C   UNL     1     -43.920  58.403 -55.451  1.00  0.00     0.239 C 
HETATM    9  N   UNL     1     -43.193  58.378 -54.279  1.00  0.00    -0.326 N 
HETATM   10  H   UNL     1     -42.403  57.729 -54.260  1.00  0.00     0.169 HD
HETATM   11  O   UNL     1     -44.884  59.133 -55.681  1.00  0.00    -0.271 OA
BRANCH   9  12
HETATM   12  C   UNL     1     -43.470  59.047 -53.070  1.00  0.00     0.037 A 
HETATM   13  C   UNL     1     -44.575  58.761 -52.260  1.00  0.00     0.061 A 
HETATM   14  C   UNL     1     -44.669  59.441 -51.066  1.00  0.00     0.065 A 
HETATM   15  C   UNL     1     -43.727  60.386 -50.666  1.00  0.00     0.063 A 
HETATM   16  N   UNL     1     -45.625  59.338 -50.060  1.00  0.00    -0.306 N 
HETATM   17  N   UNL     1     -44.104  60.863 -49.415  1.00  0.00    -0.307 N 
HETATM   18  C   UNL     1     -42.643  60.705 -51.441  1.00  0.00     0.034 A 
HETATM   19  C   UNL     1     -45.283  60.214 -49.021  1.00  0.00     0.325 A 
HETATM   20  H   UNL     1     -43.624  61.544 -48.851  1.00  0.00     0.170 HD
HETATM   21  O   UNL     1     -45.887  60.378 -47.976  1.00  0.00    -0.247 OA
HETATM   22  C   UNL     1     -42.519  60.020 -52.657  1.00  0.00     0.032 A 
HETATM   23  H   UNL     1     -46.427  58.729 -50.046  1.00  0.00     0.170 HD
ENDBRANCH   9  12
ENDBRANCH   7   8
ENDBRANCH   3   7
BRANCH   1  24
HETATM   24  C   UNL     1     -41.881  53.791 -53.506  1.00  0.00     0.070 A 
HETATM   25  C   UNL     1     -41.526  54.278 -52.235  1.00  0.00     0.095 A 
HETATM   26  C   UNL     1     -40.564  53.587 -51.493  1.00  0.00     0.040 A 
HETATM   27  C   UNL     1     -39.994  52.411 -51.993  1.00  0.00     0.019 A 
HETATM   28  C   UNL     1     -40.354  51.918 -53.255  1.00  0.00     0.050 A 
HETATM   29  C   UNL     1     -41.277  52.640 -54.024  1.00  0.00     0.048 A 
BRANCH  25  30
HETATM   30  O   UNL     1     -42.114  55.453 -51.843  1.00  0.00    -0.349 OA
BRANCH  30  31
HETATM   31  C   UNL     1     -41.810  55.938 -50.538  1.00  0.00     0.171 C 
HETATM   32  C   UNL     1     -40.970  57.193 -50.693  1.00  0.00     0.034 C 
ENDBRANCH  30  31
ENDBRANCH  25  30
BRANCH  28  33
HETATM   33  C   UNL     1     -39.777  50.615 -53.751  1.00  0.00     0.417 C 
HETATM   34  F   UNL     1     -40.501  50.048 -54.756  1.00  0.00    -0.166 F 
HETATM   35  F   UNL     1     -38.512  50.755 -54.234  1.00  0.00    -0.166 F 
HETATM   36  F   UNL     1     -39.702  49.674 -52.769  1.00  0.00    -0.166 F 
ENDBRANCH  28  33
ENDBRANCH   1  24
TORSDOF 7
ENDMDL
MODEL 5
REMARK VINA RESULT:      -8.5      3.538      5.238
REMARK  7 active torsions:
REMARK  status: ('A' for Active; 'I' for Inactive)
REMARK    1  A    between atoms: C_2  and  O_3 
REMARK    2  A    between atoms: O_3  and  C_4 
REMARK    3  A    between atoms: C_5  and  N_6 
REMARK       I    between atoms: N_6  and  C_7 
REMARK       I    between atoms: C_7  and  N_8 
REMARK    4  A    between atoms: N_8  and  C_9 
REMARK    5  A    between atoms: C_9  and  C_10 
REMARK       I    between atoms: C_10  and  N_11 
REMARK    6  A    between atoms: N_11  and  C_12 
REMARK    7  A    between atoms: C_25  and  C_26 
ROOT
HETATM    1  N   UNL     1     -41.492  56.284 -51.194  1.00  0.00    -0.306 N 
HETATM    2  C   UNL     1     -42.852  56.497 -51.287  1.00  0.00     0.321 C 
HETATM    3  N   UNL     1     -43.186  57.770 -50.908  1.00  0.00    -0.334 N 
HETATM    4  O   UNL     1     -43.676  55.709 -51.737  1.00  0.00    -0.247 OA
HETATM    5  H   UNL     1     -40.985  57.042 -51.626  1.00  0.00     0.171 HD
HETATM    6  H   UNL     1     -42.493  58.282 -50.380  1.00  0.00     0.164 HD
ENDROOT
BRANCH   3   7
HETATM    7  C   UNL     1     -44.290  58.515 -51.491  1.00  0.00     0.227 C 
BRANCH   7   8
HETATM    8  C   UNL     1     -44.277  58.894 -52.985  1.00  0.00     0.239 C 
HETATM    9  N   UNL     1     -44.677  57.876 -53.826  1.00  0.00    -0.326 N 
HETATM   10  H   UNL     1     -45.100  57.064 -53.370  1.00  0.00     0.169 HD
HETATM   11  O   UNL     1     -43.777  59.961 -53.339  1.00  0.00    -0.271 OA
BRANCH   9  12
HETATM   12  C   UNL     1     -44.474  57.766 -55.215  1.00  0.00     0.037 A 
HETATM   13  C   UNL     1     -43.347  57.165 -55.789  1.00  0.00     0.061 A 
HETATM   14  C   UNL     1     -43.326  57.057 -57.162  1.00  0.00     0.065 A 
HETATM   15  C   UNL     1     -44.360  57.528 -57.966  1.00  0.00     0.063 A 
HETATM   16  N   UNL     1     -42.367  56.482 -57.991  1.00  0.00    -0.306 N 
HETATM   17  N   UNL     1     -44.037  57.245 -59.289  1.00  0.00    -0.307 N 
HETATM   18  C   UNL     1     -45.469  58.138 -57.442  1.00  0.00     0.034 A 
HETATM   19  C   UNL     1     -42.799  56.587 -59.320  1.00  0.00     0.325 A 
HETATM   20  H   UNL     1     -44.586  57.446 -60.109  1.00  0.00     0.170 HD
HETATM   21  O   UNL     1     -42.218  56.182 -60.310  1.00  0.00    -0.247 OA
HETATM   22  C   UNL     1     -45.519  58.253 -56.046  1.00  0.00     0.032 A 
HETATM   23  H   UNL     1     -41.507  56.041 -57.708  1.00  0.00     0.170 HD
ENDBRANCH   9  12
ENDBRANCH   7   8
ENDBRANCH   3   7
BRANCH   1  24
HETATM   24  C   UNL     1     -40.975  54.991 -51.451  1.00  0.00     0.070 A 
HETATM   25  C   UNL     1     -40.469  54.188 -50.412  1.00  0.00     0.095 A 
HETATM   26  C   UNL     1     -39.968  52.921 -50.721  1.00  0.00     0.040 A 
HETATM   27  C   UNL     1     -40.005  52.447 -52.038  1.00  0.00     0.019 A 
HETATM   28  C   UNL     1     -40.518  53.241 -53.073  1.00  0.00     0.050 A 
HETATM   29  C   UNL     1     -40.970  54.534 -52.774  1.00  0.00     0.048 A 
BRANCH  25  30
HETATM   30  O   UNL     1     -40.446  54.749 -49.161  1.00  0.00    -0.349 OA
BRANCH  30  31
HETATM   31  C   UNL     1     -40.755  53.904 -48.056  1.00  0.00     0.171 C 
HETATM   32  C   UNL     1     -39.505  53.778 -47.203  1.00  0.00     0.034 C 
ENDBRANCH  30  31
ENDBRANCH  25  30
BRANCH  28  33
HETATM   33  C   UNL     1     -40.608  52.689 -54.475  1.00  0.00     0.417 C 
HETATM   34  F   UNL     1     -39.958  51.502 -54.635  1.00  0.00    -0.166 F 
HETATM   35  F   UNL     1     -41.892  52.467 -54.867  1.00  0.00    -0.166 F 
HETATM   36  F   UNL     1     -40.074  53.534 -55.400  1.00  0.00    -0.166 F 
ENDBRANCH  28  33
ENDBRANCH   1  24
TORSDOF 7
ENDMDL
MODEL 6
REMARK VINA RESULT:      -8.3      6.018     10.144
REMARK  7 active torsions:
REMARK  status: ('A' for Active; 'I' for Inactive)
REMARK    1  A    between atoms: C_2  and  O_3 
REMARK    2  A    between atoms: O_3  and  C_4 
REMARK    3  A    between atoms: C_5  and  N_6 
REMARK       I    between atoms: N_6  and  C_7 
REMARK       I    between atoms: C_7  and  N_8 
REMARK    4  A    between atoms: N_8  and  C_9 
REMARK    5  A    between atoms: C_9  and  C_10 
REMARK       I    between atoms: C_10  and  N_11 
REMARK    6  A    between atoms: N_11  and  C_12 
REMARK    7  A    between atoms: C_25  and  C_26 
ROOT
HETATM    1  N   UNL     1     -43.233  58.574 -54.763  1.00  0.00    -0.306 N 
HETATM    2  C   UNL     1     -42.280  58.412 -53.777  1.00  0.00     0.321 C 
HETATM    3  N   UNL     1     -42.813  58.607 -52.531  1.00  0.00    -0.334 N 
HETATM    4  O   UNL     1     -41.123  58.047 -53.946  1.00  0.00    -0.247 OA
HETATM    5  H   UNL     1     -44.070  58.060 -54.533  1.00  0.00     0.171 HD
HETATM    6  H   UNL     1     -43.704  59.083 -52.488  1.00  0.00     0.164 HD
ENDROOT
BRANCH   3   7
HETATM    7  C   UNL     1     -42.358  57.897 -51.346  1.00  0.00     0.227 C 
BRANCH   7   8
HETATM    8  C   UNL     1     -42.375  56.356 -51.302  1.00  0.00     0.239 C 
HETATM    9  N   UNL     1     -41.127  55.779 -51.409  1.00  0.00    -0.326 N 
HETATM   10  H   UNL     1     -40.333  56.419 -51.324  1.00  0.00     0.169 HD
HETATM   11  O   UNL     1     -43.448  55.756 -51.346  1.00  0.00    -0.271 OA
BRANCH   9  12
HETATM   12  C   UNL     1     -40.811  54.444 -51.731  1.00  0.00     0.037 A 
HETATM   13  C   UNL     1     -40.831  53.936 -53.035  1.00  0.00     0.061 A 
HETATM   14  C   UNL     1     -40.418  52.633 -53.205  1.00  0.00     0.065 A 
HETATM   15  C   UNL     1     -40.008  51.832 -52.143  1.00  0.00     0.063 A 
HETATM   16  N   UNL     1     -40.302  51.885 -54.374  1.00  0.00    -0.306 N 
HETATM   17  N   UNL     1     -39.639  50.594 -52.656  1.00  0.00    -0.307 N 
HETATM   18  C   UNL     1     -39.992  52.290 -50.851  1.00  0.00     0.034 A 
HETATM   19  C   UNL     1     -39.812  50.613 -54.048  1.00  0.00     0.325 A 
HETATM   20  H   UNL     1     -39.286  49.801 -52.147  1.00  0.00     0.170 HD
HETATM   21  O   UNL     1     -39.575  49.703 -54.821  1.00  0.00    -0.247 OA
HETATM   22  C   UNL     1     -40.399  53.616 -50.652  1.00  0.00     0.032 A 
HETATM   23  H   UNL     1     -40.509  52.189 -55.311  1.00  0.00     0.170 HD
ENDBRANCH   9  12
ENDBRANCH   7   8
ENDBRANCH   3   7
BRANCH   1  24
HETATM   24  C   UNL     1     -42.839  58.507 -56.122  1.00  0.00     0.070 A 
HETATM   25  C   UNL     1     -42.923  57.304 -56.847  1.00  0.00     0.095 A 
HETATM   26  C   UNL     1     -42.518  57.293 -58.184  1.00  0.00     0.040 A 
HETATM   27  C   UNL     1     -42.074  58.469 -58.800  1.00  0.00     0.019 A 
HETATM   28  C   UNL     1     -42.000  59.672 -58.082  1.00  0.00     0.050 A 
HETATM   29  C   UNL     1     -42.352  59.673 -56.726  1.00  0.00     0.048 A 
BRANCH  25  30
HETATM   30  O   UNL     1     -43.340  56.199 -56.151  1.00  0.00    -0.349 OA
BRANCH  30  31
HETATM   31  C   UNL     1     -42.507  55.043 -56.191  1.00  0.00     0.171 C 
HETATM   32  C   UNL     1     -43.303  53.876 -55.635  1.00  0.00     0.034 C 
ENDBRANCH  30  31
ENDBRANCH  25  30
BRANCH  28  33
HETATM   33  C   UNL     1     -41.579  60.943 -58.779  1.00  0.00     0.417 C 
HETATM   34  F   UNL     1     -41.247  60.760 -60.088  1.00  0.00    -0.166 F 
HETATM   35  F   UNL     1     -42.556  61.890 -58.770  1.00  0.00    -0.166 F 
HETATM   36  F   UNL     1     -40.492  61.518 -58.195  1.00  0.00    -0.166 F 
ENDBRANCH  28  33
ENDBRANCH   1  24
TORSDOF 7
ENDMDL
MODEL 7
REMARK VINA RESULT:      -8.3      4.394      5.375
REMARK  7 active torsions:
REMARK  status: ('A' for Active; 'I' for Inactive)
REMARK    1  A    between atoms: C_2  and  O_3 
REMARK    2  A    between atoms: O_3  and  C_4 
REMARK    3  A    between atoms: C_5  and  N_6 
REMARK       I    between atoms: N_6  and  C_7 
REMARK       I    between atoms: C_7  and  N_8 
REMARK    4  A    between atoms: N_8  and  C_9 
REMARK    5  A    between atoms: C_9  and  C_10 
REMARK       I    between atoms: C_10  and  N_11 
REMARK    6  A    between atoms: N_11  and  C_12 
REMARK    7  A    between atoms: C_25  and  C_26 
ROOT
HETATM    1  N   UNL     1     -40.746  54.321 -54.650  1.00  0.00    -0.306 N 
HETATM    2  C   UNL     1     -41.989  54.819 -54.983  1.00  0.00     0.321 C 
HETATM    3  N   UNL     1     -41.965  55.449 -56.198  1.00  0.00    -0.334 N 
HETATM    4  O   UNL     1     -43.025  54.656 -54.349  1.00  0.00    -0.247 OA
HETATM    5  H   UNL     1     -40.350  53.813 -55.426  1.00  0.00     0.171 HD
HETATM    6  H   UNL     1     -41.056  55.704 -56.559  1.00  0.00     0.164 HD
ENDROOT
BRANCH   3   7
HETATM    7  C   UNL     1     -43.094  55.463 -57.115  1.00  0.00     0.227 C 
BRANCH   7   8
HETATM    8  C   UNL     1     -43.267  56.612 -58.127  1.00  0.00     0.239 C 
HETATM    9  N   UNL     1     -42.089  57.246 -58.464  1.00  0.00    -0.326 N 
HETATM   10  H   UNL     1     -41.232  56.781 -58.154  1.00  0.00     0.169 HD
HETATM   11  O   UNL     1     -44.397  56.993 -58.430  1.00  0.00    -0.271 OA
BRANCH   9  12
HETATM   12  C   UNL     1     -41.923  58.503 -59.076  1.00  0.00     0.037 A 
HETATM   13  C   UNL     1     -41.954  58.700 -60.462  1.00  0.00     0.061 A 
HETATM   14  C   UNL     1     -41.859  59.999 -60.912  1.00  0.00     0.065 A 
HETATM   15  C   UNL     1     -41.724  61.082 -60.048  1.00  0.00     0.063 A 
HETATM   16  N   UNL     1     -41.897  60.492 -62.213  1.00  0.00    -0.306 N 
HETATM   17  N   UNL     1     -41.678  62.240 -60.816  1.00  0.00    -0.307 N 
HETATM   18  C   UNL     1     -41.670  60.926 -58.687  1.00  0.00     0.034 A 
HETATM   19  C   UNL     1     -41.790  61.889 -62.170  1.00  0.00     0.325 A 
HETATM   20  H   UNL     1     -41.597  63.189 -60.489  1.00  0.00     0.170 HD
HETATM   21  O   UNL     1     -41.800  62.651 -63.119  1.00  0.00    -0.247 OA
HETATM   22  C   UNL     1     -41.774  59.615 -58.204  1.00  0.00     0.032 A 
HETATM   23  H   UNL     1     -42.003  59.958 -63.060  1.00  0.00     0.170 HD
ENDBRANCH   9  12
ENDBRANCH   7   8
ENDBRANCH   3   7
BRANCH   1  24
HETATM   24  C   UNL     1     -40.559  53.722 -53.380  1.00  0.00     0.070 A 
HETATM   25  C   UNL     1     -40.185  52.371 -53.259  1.00  0.00     0.095 A 
HETATM   26  C   UNL     1     -40.017  51.830 -51.981  1.00  0.00     0.040 A 
HETATM   27  C   UNL     1     -40.181  52.631 -50.845  1.00  0.00     0.019 A 
HETATM   28  C   UNL     1     -40.543  53.981 -50.964  1.00  0.00     0.050 A 
HETATM   29  C   UNL     1     -40.767  54.511 -52.242  1.00  0.00     0.048 A 
BRANCH  25  30
HETATM   30  O   UNL     1     -40.078  51.659 -54.425  1.00  0.00    -0.349 OA
BRANCH  30  31
HETATM   31  C   UNL     1     -40.489  50.295 -54.403  1.00  0.00     0.171 C 
HETATM   32  C   UNL     1     -39.240  49.432 -54.450  1.00  0.00     0.034 C 
ENDBRANCH  30  31
ENDBRANCH  25  30
BRANCH  28  33
HETATM   33  C   UNL     1     -40.653  54.845 -49.731  1.00  0.00     0.417 C 
HETATM   34  F   UNL     1     -41.843  54.712 -49.080  1.00  0.00    -0.166 F 
HETATM   35  F   UNL     1     -39.691  54.566 -48.810  1.00  0.00    -0.166 F 
HETATM   36  F   UNL     1     -40.529  56.170 -50.015  1.00  0.00    -0.166 F 
ENDBRANCH  28  33
ENDBRANCH   1  24
TORSDOF 7
ENDMDL
MODEL 8
REMARK VINA RESULT:      -8.0      2.651      3.631
REMARK  7 active torsions:
REMARK  status: ('A' for Active; 'I' for Inactive)
REMARK    1  A    between atoms: C_2  and  O_3 
REMARK    2  A    between atoms: O_3  and  C_4 
REMARK    3  A    between atoms: C_5  and  N_6 
REMARK       I    between atoms: N_6  and  C_7 
REMARK       I    between atoms: C_7  and  N_8 
REMARK    4  A    between atoms: N_8  and  C_9 
REMARK    5  A    between atoms: C_9  and  C_10 
REMARK       I    between atoms: C_10  and  N_11 
REMARK    6  A    between atoms: N_11  and  C_12 
REMARK    7  A    between atoms: C_25  and  C_26 
ROOT
HETATM    1  N   UNL     1     -41.811  53.972 -54.401  1.00  0.00    -0.306 N 
HETATM    2  C   UNL     1     -41.423  55.170 -54.964  1.00  0.00     0.321 C 
HETATM    3  N   UNL     1     -42.007  55.361 -56.188  1.00  0.00    -0.334 N 
HETATM    4  O   UNL     1     -40.725  56.025 -54.431  1.00  0.00    -0.247 OA
HETATM    5  H   UNL     1     -42.813  53.864 -54.457  1.00  0.00     0.171 HD
HETATM    6  H   UNL     1     -42.406  54.545 -56.632  1.00  0.00     0.164 HD
ENDROOT
BRANCH   3   7
HETATM    7  C   UNL     1     -42.377  56.669 -56.704  1.00  0.00     0.227 C 
BRANCH   7   8
HETATM    8  C   UNL     1     -43.044  56.807 -58.086  1.00  0.00     0.239 C 
HETATM    9  N   UNL     1     -44.048  57.751 -58.133  1.00  0.00    -0.326 N 
HETATM   10  H   UNL     1     -44.116  58.368 -57.319  1.00  0.00     0.169 HD
HETATM   11  O   UNL     1     -42.781  55.996 -58.973  1.00  0.00    -0.271 OA
BRANCH   9  12
HETATM   12  C   UNL     1     -45.058  57.899 -59.103  1.00  0.00     0.037 A 
HETATM   13  C   UNL     1     -45.756  56.824 -59.666  1.00  0.00     0.061 A 
HETATM   14  C   UNL     1     -46.774  57.128 -60.543  1.00  0.00     0.065 A 
HETATM   15  C   UNL     1     -47.104  58.438 -60.881  1.00  0.00     0.063 A 
HETATM   16  N   UNL     1     -47.647  56.279 -61.217  1.00  0.00    -0.306 N 
HETATM   17  N   UNL     1     -48.179  58.395 -61.762  1.00  0.00    -0.307 N 
HETATM   18  C   UNL     1     -46.431  59.514 -60.364  1.00  0.00     0.034 A 
HETATM   19  C   UNL     1     -48.533  57.054 -61.977  1.00  0.00     0.325 A 
HETATM   20  H   UNL     1     -48.660  59.175 -62.179  1.00  0.00     0.170 HD
HETATM   21  O   UNL     1     -49.438  56.647 -62.682  1.00  0.00    -0.247 OA
HETATM   22  C   UNL     1     -45.397  59.232 -59.462  1.00  0.00     0.032 A 
HETATM   23  H   UNL     1     -47.672  55.274 -61.169  1.00  0.00     0.170 HD
ENDBRANCH   9  12
ENDBRANCH   7   8
ENDBRANCH   3   7
BRANCH   1  24
HETATM   24  C   UNL     1     -41.228  53.561 -53.178  1.00  0.00     0.070 A 
HETATM   25  C   UNL     1     -40.200  52.600 -53.147  1.00  0.00     0.095 A 
HETATM   26  C   UNL     1     -39.662  52.229 -51.912  1.00  0.00     0.040 A 
HETATM   27  C   UNL     1     -40.113  52.831 -50.732  1.00  0.00     0.019 A 
HETATM   28  C   UNL     1     -41.130  53.796 -50.762  1.00  0.00     0.050 A 
HETATM   29  C   UNL     1     -41.710  54.129 -51.993  1.00  0.00     0.048 A 
BRANCH  25  30
HETATM   30  O   UNL     1     -39.846  52.045 -54.349  1.00  0.00    -0.349 OA
BRANCH  30  31
HETATM   31  C   UNL     1     -39.432  50.681 -54.347  1.00  0.00     0.171 C 
HETATM   32  C   UNL     1     -40.679  49.817 -54.408  1.00  0.00     0.034 C 
ENDBRANCH  30  31
ENDBRANCH  25  30
BRANCH  28  33
HETATM   33  C   UNL     1     -41.560  54.480 -49.487  1.00  0.00     0.417 C 
HETATM   34  F   UNL     1     -42.909  54.645 -49.388  1.00  0.00    -0.166 F 
HETATM   35  F   UNL     1     -41.187  53.792 -48.374  1.00  0.00    -0.166 F 
HETATM   36  F   UNL     1     -41.022  55.724 -49.359  1.00  0.00    -0.166 F 
ENDBRANCH  28  33
ENDBRANCH   1  24
TORSDOF 7
ENDMDL
MODEL 9
REMARK VINA RESULT:      -8.0      4.460      5.358
REMARK  7 active torsions:
REMARK  status: ('A' for Active; 'I' for Inactive)
REMARK    1  A    between atoms: C_2  and  O_3 
REMARK    2  A    between atoms: O_3  and  C_4 
REMARK    3  A    between atoms: C_5  and  N_6 
REMARK       I    between atoms: N_6  and  C_7 
REMARK       I    between atoms: C_7  and  N_8 
REMARK    4  A    between atoms: N_8  and  C_9 
REMARK    5  A    between atoms: C_9  and  C_10 
REMARK       I    between atoms: C_10  and  N_11 
REMARK    6  A    between atoms: N_11  and  C_12 
REMARK    7  A    between atoms: C_25  and  C_26 
ROOT
HETATM    1  N   UNL     1     -43.376  54.532 -52.594  1.00  0.00    -0.306 N 
HETATM    2  C   UNL     1     -43.276  55.701 -53.322  1.00  0.00     0.321 C 
HETATM    3  N   UNL     1     -44.470  56.031 -53.904  1.00  0.00    -0.334 N 
HETATM    4  O   UNL     1     -42.292  56.429 -53.385  1.00  0.00    -0.247 OA
HETATM    5  H   UNL     1     -44.190  54.556 -51.998  1.00  0.00     0.171 HD
HETATM    6  H   UNL     1     -45.164  55.298 -53.963  1.00  0.00     0.164 HD
ENDROOT
BRANCH   3   7
HETATM    7  C   UNL     1     -44.904  57.403 -54.119  1.00  0.00     0.227 C 
BRANCH   7   8
HETATM    8  C   UNL     1     -44.770  58.058 -55.507  1.00  0.00     0.239 C 
HETATM    9  N   UNL     1     -43.503  57.978 -56.045  1.00  0.00    -0.326 N 
HETATM   10  H   UNL     1     -42.853  57.354 -55.561  1.00  0.00     0.169 HD
HETATM   11  O   UNL     1     -45.699  58.726 -55.958  1.00  0.00    -0.271 OA
BRANCH   9  12
HETATM   12  C   UNL     1     -42.959  58.732 -57.104  1.00  0.00     0.037 A 
HETATM   13  C   UNL     1     -43.227  58.478 -58.454  1.00  0.00     0.061 A 
HETATM   14  C   UNL     1     -42.690  59.351 -59.374  1.00  0.00     0.065 A 
HETATM   15  C   UNL     1     -41.901  60.437 -59.004  1.00  0.00     0.063 A 
HETATM   16  N   UNL     1     -42.816  59.367 -60.760  1.00  0.00    -0.306 N 
HETATM   17  N   UNL     1     -41.542  61.120 -60.161  1.00  0.00    -0.307 N 
HETATM   18  C   UNL     1     -41.602  60.706 -57.694  1.00  0.00     0.034 A 
HETATM   19  C   UNL     1     -42.110  60.468 -61.265  1.00  0.00     0.325 A 
HETATM   20  H   UNL     1     -40.986  61.956 -60.230  1.00  0.00     0.170 HD
HETATM   21  O   UNL     1     -42.013  60.799 -62.433  1.00  0.00    -0.247 OA
HETATM   22  C   UNL     1     -42.145  59.838 -56.737  1.00  0.00     0.032 A 
HETATM   23  H   UNL     1     -43.337  58.720 -61.329  1.00  0.00     0.170 HD
ENDBRANCH   9  12
ENDBRANCH   7   8
ENDBRANCH   3   7
BRANCH   1  24
HETATM   24  C   UNL     1     -42.212  53.984 -52.003  1.00  0.00     0.070 A 
HETATM   25  C   UNL     1     -41.297  53.228 -52.760  1.00  0.00     0.095 A 
HETATM   26  C   UNL     1     -40.166  52.707 -52.126  1.00  0.00     0.040 A 
HETATM   27  C   UNL     1     -39.931  52.966 -50.771  1.00  0.00     0.019 A 
HETATM   28  C   UNL     1     -40.836  53.727 -50.017  1.00  0.00     0.050 A 
HETATM   29  C   UNL     1     -41.999  54.204 -50.637  1.00  0.00     0.048 A 
BRANCH  25  30
HETATM   30  O   UNL     1     -41.628  53.002 -54.071  1.00  0.00    -0.349 OA
BRANCH  30  31
HETATM   31  C   UNL     1     -40.572  53.027 -55.029  1.00  0.00     0.171 C 
HETATM   32  C   UNL     1     -40.063  54.454 -55.122  1.00  0.00     0.034 C 
ENDBRANCH  30  31
ENDBRANCH  25  30
BRANCH  28  33
HETATM   33  C   UNL     1     -40.535  54.049 -48.574  1.00  0.00     0.417 C 
HETATM   34  F   UNL     1     -41.127  55.197 -48.138  1.00  0.00    -0.166 F 
HETATM   35  F   UNL     1     -40.948  53.070 -47.724  1.00  0.00    -0.166 F 
HETATM   36  F   UNL     1     -39.202  54.208 -48.345  1.00  0.00    -0.166 F 
ENDBRANCH  28  33
ENDBRANCH   1  24
TORSDOF 7
ENDMDL
MODEL 10
REMARK VINA RESULT:      -8.0      6.778     10.103
REMARK  7 active torsions:
REMARK  status: ('A' for Active; 'I' for Inactive)
REMARK    1  A    between atoms: C_2  and  O_3 
REMARK    2  A    between atoms: O_3  and  C_4 
REMARK    3  A    between atoms: C_5  and  N_6 
REMARK       I    between atoms: N_6  and  C_7 
REMARK       I    between atoms: C_7  and  N_8 
REMARK    4  A    between atoms: N_8  and  C_9 
REMARK    5  A    between atoms: C_9  and  C_10 
REMARK       I    between atoms: C_10  and  N_11 
REMARK    6  A    between atoms: N_11  and  C_12 
REMARK    7  A    between atoms: C_25  and  C_26 
ROOT
HETATM    1  N   UNL     1     -42.502  56.701 -52.483  1.00  0.00    -0.306 N 
HETATM    2  C   UNL     1     -43.518  56.691 -51.549  1.00  0.00     0.321 C 
HETATM    3  N   UNL     1     -43.902  57.962 -51.214  1.00  0.00    -0.334 N 
HETATM    4  O   UNL     1     -44.096  55.698 -51.122  1.00  0.00    -0.247 OA
HETATM    5  H   UNL     1     -42.724  57.332 -53.239  1.00  0.00     0.171 HD
HETATM    6  H   UNL     1     -43.263  58.707 -51.456  1.00  0.00     0.164 HD
ENDROOT
BRANCH   3   7
HETATM    7  C   UNL     1     -45.266  58.319 -50.857  1.00  0.00     0.227 C 
BRANCH   7   8
HETATM    8  C   UNL     1     -45.621  59.768 -50.473  1.00  0.00     0.239 C 
HETATM    9  N   UNL     1     -44.965  60.228 -49.350  1.00  0.00    -0.326 N 
HETATM   10  H   UNL     1     -44.200  59.639 -49.010  1.00  0.00     0.169 HD
HETATM   11  O   UNL     1     -46.543  60.343 -51.050  1.00  0.00    -0.271 OA
BRANCH   9  12
HETATM   12  C   UNL     1     -45.287  61.342 -48.551  1.00  0.00     0.037 A 
HETATM   13  C   UNL     1     -46.308  61.341 -47.593  1.00  0.00     0.061 A 
HETATM   14  C   UNL     1     -46.452  62.477 -46.829  1.00  0.00     0.065 A 
HETATM   15  C   UNL     1     -45.640  63.596 -46.991  1.00  0.00     0.063 A 
HETATM   16  N   UNL     1     -47.345  62.743 -45.794  1.00  0.00    -0.306 N 
HETATM   17  N   UNL     1     -46.032  64.549 -46.057  1.00  0.00    -0.307 N 
HETATM   18  C   UNL     1     -44.642  63.641 -47.930  1.00  0.00     0.034 A 
HETATM   19  C   UNL     1     -47.092  64.030 -45.299  1.00  0.00     0.325 A 
HETATM   20  H   UNL     1     -45.632  65.462 -45.910  1.00  0.00     0.170 HD
HETATM   21  O   UNL     1     -47.672  64.587 -44.386  1.00  0.00    -0.247 OA
HETATM   22  C   UNL     1     -44.469  62.493 -48.714  1.00  0.00     0.032 A 
HETATM   23  H   UNL     1     -48.051  62.125 -45.430  1.00  0.00     0.170 HD
ENDBRANCH   9  12
ENDBRANCH   7   8
ENDBRANCH   3   7
BRANCH   1  24
HETATM   24  C   UNL     1     -41.911  55.475 -52.874  1.00  0.00     0.070 A 
HETATM   25  C   UNL     1     -41.999  55.014 -54.201  1.00  0.00     0.095 A 
HETATM   26  C   UNL     1     -41.400  53.796 -54.533  1.00  0.00     0.040 A 
HETATM   27  C   UNL     1     -40.693  53.069 -53.568  1.00  0.00     0.019 A 
HETATM   28  C   UNL     1     -40.595  53.531 -52.248  1.00  0.00     0.050 A 
HETATM   29  C   UNL     1     -41.242  54.724 -51.900  1.00  0.00     0.048 A 
BRANCH  25  30
HETATM   30  O   UNL     1     -42.737  55.780 -55.066  1.00  0.00    -0.349 OA
BRANCH  30  31
HETATM   31  C   UNL     1     -42.614  55.501 -56.459  1.00  0.00     0.171 C 
HETATM   32  C   UNL     1     -43.366  56.580 -57.217  1.00  0.00     0.034 C 
ENDBRANCH  30  31
ENDBRANCH  25  30
BRANCH  28  33
HETATM   33  C   UNL     1     -39.776  52.765 -51.238  1.00  0.00     0.417 C 
HETATM   34  F   UNL     1     -38.899  51.888 -51.802  1.00  0.00    -0.166 F 
HETATM   35  F   UNL     1     -39.029  53.582 -50.445  1.00  0.00    -0.166 F 
HETATM   36  F   UNL     1     -40.551  52.029 -50.395  1.00  0.00    -0.166 F 
ENDBRANCH  28  33
ENDBRANCH   1  24
TORSDOF 7
ENDMDL
