MODEL 1
REMARK VINA RESULT:      -8.6      0.000      0.000
REMARK  11 active torsions:
REMARK  status: ('A' for Active; 'I' for Inactive)
REMARK       I    between atoms: N_6  and  C_7 
REMARK    1  A    between atoms: C_7  and  C_8 
REMARK    2  A    between atoms: C_10  and  S_11 
REMARK    3  A    between atoms: S_11  and  N_12 
REMARK    4  A    between atoms: N_12  and  C_13 
REMARK    5  A    between atoms: C_15  and  O_16 
REMARK    6  A    between atoms: C_23  and  N_24 
REMARK    7  A    between atoms: N_24  and  C_25 
REMARK    8  A    between atoms: C_25  and  C_26 
REMARK    9  A    between atoms: C_26  and  C_27 
REMARK   10  A    between atoms: C_29  and  O_30 
REMARK   11  A    between atoms: C_32  and  O_33 
ROOT
HETATM    1  C   UNL     1     -43.790  58.758 -52.707  1.00  0.00     0.033 A 
HETATM    2  C   UNL     1     -43.234  57.653 -52.066  1.00  0.00     0.044 A 
HETATM    3  C   UNL     1     -43.324  56.375 -52.651  1.00  0.00     0.102 A 
HETATM    4  C   UNL     1     -43.986  56.159 -53.879  1.00  0.00     0.031 A 
HETATM    5  C   UNL     1     -44.621  57.279 -54.443  1.00  0.00     0.026 A 
HETATM    6  C   UNL     1     -44.513  58.559 -53.882  1.00  0.00     0.019 A 
ENDROOT
BRANCH   4   7
HETATM    7  N   UNL     1     -44.167  54.879 -54.419  1.00  0.00    -0.291 NA
HETATM    8  H   UNL     1     -43.964  54.139 -53.732  1.00  0.00     0.127 HD
BRANCH   7   9
HETATM    9  C   UNL     1     -43.564  54.501 -55.708  1.00  0.00     0.097 C 
BRANCH   9  10
HETATM   10  C   UNL     1     -42.400  55.440 -56.059  1.00  0.00     0.053 C 
BRANCH  10  11
HETATM   11  C   UNL     1     -42.673  56.264 -57.294  1.00  0.00    -0.054 A 
HETATM   12  C   UNL     1     -43.162  55.660 -58.464  1.00  0.00     0.046 A 
HETATM   13  C   UNL     1     -43.424  56.423 -59.610  1.00  0.00     0.102 A 
HETATM   14  C   UNL     1     -43.188  57.812 -59.590  1.00  0.00     0.101 A 
HETATM   15  C   UNL     1     -42.700  58.411 -58.425  1.00  0.00     0.040 A 
HETATM   16  C   UNL     1     -42.446  57.643 -57.286  1.00  0.00     0.010 A 
BRANCH  13  17
HETATM   17  O   UNL     1     -43.909  55.913 -60.789  1.00  0.00    -0.353 OA
HETATM   18  C   UNL     1     -44.932  54.932 -60.721  1.00  0.00     0.210 C 
ENDBRANCH  13  17
BRANCH  14  19
HETATM   19  O   UNL     1     -43.472  58.490 -60.750  1.00  0.00    -0.353 OA
HETATM   20  C   UNL     1     -44.484  59.485 -60.703  1.00  0.00     0.210 C 
ENDBRANCH  14  19
ENDBRANCH  10  11
ENDBRANCH   9  10
ENDBRANCH   7   9
ENDBRANCH   4   7
BRANCH   3  21
HETATM   21  S   UNL     1     -42.422  55.062 -51.837  1.00  0.00     0.265 S 
HETATM   22  O   UNL     1     -41.863  55.615 -50.619  1.00  0.00    -0.200 OA
HETATM   23  O   UNL     1     -43.305  53.912 -51.786  1.00  0.00    -0.200 OA
BRANCH  21  24
HETATM   24  N   UNL     1     -41.130  54.770 -52.879  1.00  0.00    -0.280 N 
HETATM   25  H   UNL     1     -41.189  55.334 -53.727  1.00  0.00     0.179 HD
BRANCH  24  26
HETATM   26  C   UNL     1     -40.660  53.435 -53.025  1.00  0.00     0.045 A 
HETATM   27  C   UNL     1     -40.154  52.752 -51.916  1.00  0.00     0.066 A 
HETATM   28  C   UNL     1     -39.655  51.457 -52.074  1.00  0.00     0.070 A 
HETATM   29  C   UNL     1     -39.674  50.861 -53.338  1.00  0.00     0.037 A 
HETATM   30  C   UNL     1     -40.177  51.548 -54.443  1.00  0.00     0.005 A 
HETATM   31  C   UNL     1     -40.662  52.842 -54.287  1.00  0.00     0.030 A 
BRANCH  28  32
HETATM   32  O   UNL     1     -39.119  50.677 -51.088  1.00  0.00    -0.356 OA
HETATM   33  C   UNL     1     -39.730  49.412 -50.856  1.00  0.00     0.210 C 
ENDBRANCH  28  32
ENDBRANCH  24  26
ENDBRANCH  21  24
ENDBRANCH   3  21
BRANCH   1  34
HETATM   34  C   UNL     1     -43.695  60.139 -52.151  1.00  0.00     0.253 C 
HETATM   35  N   UNL     1     -44.854  60.804 -51.727  1.00  0.00    -0.345 N 
HETATM   36  C   UNL     1     -44.683  62.223 -51.394  1.00  0.00     0.154 C 
HETATM   37  C   UNL     1     -45.860  60.127 -50.895  1.00  0.00     0.154 C 
HETATM   38  C   UNL     1     -44.261  62.394 -49.925  1.00  0.00     0.254 C 
HETATM   39  N   UNL     1     -45.302  61.721 -49.020  1.00  0.00    -0.072 N 
HETATM   40  C   UNL     1     -44.961  61.878 -47.567  1.00  0.00     0.269 C 
HETATM   41  H   UNL     1     -46.194  62.207 -49.177  1.00  0.00     0.279 HD
HETATM   42  C   UNL     1     -45.510  60.255 -49.398  1.00  0.00     0.254 C 
HETATM   43  O   UNL     1     -42.591  60.669 -52.049  1.00  0.00    -0.267 OA
ENDBRANCH   1  34
TORSDOF 11
ENDMDL
MODEL 2
REMARK VINA RESULT:      -8.5      2.469      8.556
REMARK  11 active torsions:
REMARK  status: ('A' for Active; 'I' for Inactive)
REMARK       I    between atoms: N_6  and  C_7 
REMARK    1  A    between atoms: C_7  and  C_8 
REMARK    2  A    between atoms: C_10  and  S_11 
REMARK    3  A    between atoms: S_11  and  N_12 
REMARK    4  A    between atoms: N_12  and  C_13 
REMARK    5  A    between atoms: C_15  and  O_16 
REMARK    6  A    between atoms: C_23  and  N_24 
REMARK    7  A    between atoms: N_24  and  C_25 
REMARK    8  A    between atoms: C_25  and  C_26 
REMARK    9  A    between atoms: C_26  and  C_27 
REMARK   10  A    between atoms: C_29  and  O_30 
REMARK   11  A    between atoms: C_32  and  O_33 
ROOT
HETATM    1  C   UNL     1     -43.910  57.605 -54.259  1.00  0.00     0.033 A 
HETATM    2  C   UNL     1     -43.205  58.591 -53.573  1.00  0.00     0.044 A 
HETATM    3  C   UNL     1     -42.631  58.310 -52.317  1.00  0.00     0.102 A 
HETATM    4  C   UNL     1     -42.761  57.045 -51.703  1.00  0.00     0.031 A 
HETATM    5  C   UNL     1     -43.565  56.111 -52.377  1.00  0.00     0.026 A 
HETATM    6  C   UNL     1     -44.115  56.374 -53.639  1.00  0.00     0.019 A 
ENDROOT
BRANCH   4   7
HETATM    7  N   UNL     1     -42.280  56.786 -50.413  1.00  0.00    -0.291 NA
HETATM    8  H   UNL     1     -42.219  57.643 -49.845  1.00  0.00     0.127 HD
BRANCH   7   9
HETATM    9  C   UNL     1     -41.059  55.992 -50.197  1.00  0.00     0.097 C 
BRANCH   9  10
HETATM   10  C   UNL     1     -41.411  54.525 -49.904  1.00  0.00     0.053 C 
BRANCH  10  11
HETATM   11  C   UNL     1     -40.833  53.576 -50.927  1.00  0.00    -0.054 A 
HETATM   12  C   UNL     1     -40.818  53.914 -52.289  1.00  0.00     0.046 A 
HETATM   13  C   UNL     1     -40.275  53.039 -53.240  1.00  0.00     0.102 A 
HETATM   14  C   UNL     1     -39.744  51.802 -52.824  1.00  0.00     0.101 A 
HETATM   15  C   UNL     1     -39.763  51.467 -51.468  1.00  0.00     0.040 A 
HETATM   16  C   UNL     1     -40.301  52.348 -50.526  1.00  0.00     0.010 A 
BRANCH  13  17
HETATM   17  O   UNL     1     -40.214  53.296 -54.587  1.00  0.00    -0.353 OA
HETATM   18  C   UNL     1     -40.196  54.651 -55.008  1.00  0.00     0.210 C 
ENDBRANCH  13  17
BRANCH  14  19
HETATM   19  O   UNL     1     -39.230  51.002 -53.814  1.00  0.00    -0.353 OA
HETATM   20  C   UNL     1     -39.990  49.871 -54.212  1.00  0.00     0.210 C 
ENDBRANCH  14  19
ENDBRANCH  10  11
ENDBRANCH   9  10
ENDBRANCH   7   9
ENDBRANCH   4   7
BRANCH   3  21
HETATM   21  S   UNL     1     -41.597  59.587 -51.610  1.00  0.00     0.265 S 
HETATM   22  O   UNL     1     -41.579  59.380 -50.176  1.00  0.00    -0.200 OA
HETATM   23  O   UNL     1     -40.362  59.598 -52.370  1.00  0.00    -0.200 OA
BRANCH  21  24
HETATM   24  N   UNL     1     -42.475  60.999 -51.888  1.00  0.00    -0.280 N 
HETATM   25  H   UNL     1     -41.976  61.645 -52.502  1.00  0.00     0.179 HD
BRANCH  24  26
HETATM   26  C   UNL     1     -43.205  61.572 -50.810  1.00  0.00     0.045 A 
HETATM   27  C   UNL     1     -44.229  60.842 -50.199  1.00  0.00     0.066 A 
HETATM   28  C   UNL     1     -44.969  61.424 -49.168  1.00  0.00     0.070 A 
HETATM   29  C   UNL     1     -44.673  62.727 -48.758  1.00  0.00     0.037 A 
HETATM   30  C   UNL     1     -43.652  63.453 -49.372  1.00  0.00     0.005 A 
HETATM   31  C   UNL     1     -42.923  62.876 -50.407  1.00  0.00     0.030 A 
BRANCH  28  32
HETATM   32  O   UNL     1     -46.003  60.839 -48.492  1.00  0.00    -0.356 OA
HETATM   33  C   UNL     1     -45.822  60.613 -47.099  1.00  0.00     0.210 C 
ENDBRANCH  28  32
ENDBRANCH  24  26
ENDBRANCH  21  24
ENDBRANCH   3  21
BRANCH   1  34
HETATM   34  C   UNL     1     -44.509  57.837 -55.605  1.00  0.00     0.253 C 
HETATM   35  N   UNL     1     -43.679  57.952 -56.730  1.00  0.00    -0.345 N 
HETATM   36  C   UNL     1     -44.345  58.386 -57.964  1.00  0.00     0.154 C 
HETATM   37  C   UNL     1     -42.575  57.010 -56.962  1.00  0.00     0.154 C 
HETATM   38  C   UNL     1     -44.917  57.181 -58.730  1.00  0.00     0.254 C 
HETATM   39  N   UNL     1     -43.786  56.182 -59.015  1.00  0.00    -0.072 N 
HETATM   40  C   UNL     1     -44.276  54.992 -59.788  1.00  0.00     0.269 C 
HETATM   41  H   UNL     1     -43.100  56.667 -59.607  1.00  0.00     0.279 HD
HETATM   42  C   UNL     1     -43.067  55.767 -57.732  1.00  0.00     0.254 C 
HETATM   43  O   UNL     1     -45.731  57.901 -55.714  1.00  0.00    -0.267 OA
ENDBRANCH   1  34
TORSDOF 11
ENDMDL
MODEL 3
REMARK VINA RESULT:      -8.5      2.677      8.518
REMARK  11 active torsions:
REMARK  status: ('A' for Active; 'I' for Inactive)
REMARK       I    between atoms: N_6  and  C_7 
REMARK    1  A    between atoms: C_7  and  C_8 
REMARK    2  A    between atoms: C_10  and  S_11 
REMARK    3  A    between atoms: S_11  and  N_12 
REMARK    4  A    between atoms: N_12  and  C_13 
REMARK    5  A    between atoms: C_15  and  O_16 
REMARK    6  A    between atoms: C_23  and  N_24 
REMARK    7  A    between atoms: N_24  and  C_25 
REMARK    8  A    between atoms: C_25  and  C_26 
REMARK    9  A    between atoms: C_26  and  C_27 
REMARK   10  A    between atoms: C_29  and  O_30 
REMARK   11  A    between atoms: C_32  and  O_33 
ROOT
HETATM    1  C   UNL     1     -42.184  58.463 -54.522  1.00  0.00     0.033 A 
HETATM    2  C   UNL     1     -43.243  58.816 -53.688  1.00  0.00     0.044 A 
HETATM    3  C   UNL     1     -43.273  58.369 -52.353  1.00  0.00     0.102 A 
HETATM    4  C   UNL     1     -42.261  57.543 -51.818  1.00  0.00     0.031 A 
HETATM    5  C   UNL     1     -41.266  57.125 -52.717  1.00  0.00     0.026 A 
HETATM    6  C   UNL     1     -41.213  57.588 -54.039  1.00  0.00     0.019 A 
ENDROOT
BRANCH   4   7
HETATM    7  N   UNL     1     -42.332  57.012 -50.523  1.00  0.00    -0.291 NA
HETATM    8  H   UNL     1     -42.496  57.744 -49.816  1.00  0.00     0.127 HD
BRANCH   7   9
HETATM    9  C   UNL     1     -41.301  56.092 -50.015  1.00  0.00     0.097 C 
BRANCH   9  10
HETATM   10  C   UNL     1     -41.835  54.653 -49.966  1.00  0.00     0.053 C 
BRANCH  10  11
HETATM   11  C   UNL     1     -41.292  53.795 -51.084  1.00  0.00    -0.054 A 
HETATM   12  C   UNL     1     -41.849  53.859 -52.371  1.00  0.00     0.046 A 
HETATM   13  C   UNL     1     -41.342  53.070 -53.413  1.00  0.00     0.102 A 
HETATM   14  C   UNL     1     -40.265  52.198 -53.164  1.00  0.00     0.101 A 
HETATM   15  C   UNL     1     -39.713  52.134 -51.881  1.00  0.00     0.040 A 
HETATM   16  C   UNL     1     -40.222  52.928 -50.850  1.00  0.00     0.010 A 
BRANCH  13  17
HETATM   17  O   UNL     1     -41.823  53.079 -54.698  1.00  0.00    -0.353 OA
HETATM   18  C   UNL     1     -42.701  54.129 -55.076  1.00  0.00     0.210 C 
ENDBRANCH  13  17
BRANCH  14  19
HETATM   19  O   UNL     1     -39.824  51.461 -54.235  1.00  0.00    -0.353 OA
HETATM   20  C   UNL     1     -39.757  50.051 -54.084  1.00  0.00     0.210 C 
ENDBRANCH  14  19
ENDBRANCH  10  11
ENDBRANCH   9  10
ENDBRANCH   7   9
ENDBRANCH   4   7
BRANCH   3  21
HETATM   21  S   UNL     1     -44.579  59.028 -51.322  1.00  0.00     0.265 S 
HETATM   22  O   UNL     1     -45.311  59.992 -52.120  1.00  0.00    -0.200 OA
HETATM   23  O   UNL     1     -45.259  57.894 -50.727  1.00  0.00    -0.200 OA
BRANCH  21  24
HETATM   24  N   UNL     1     -43.745  59.901 -50.145  1.00  0.00    -0.280 N 
HETATM   25  H   UNL     1     -43.220  59.291 -49.518  1.00  0.00     0.179 HD
BRANCH  24  26
HETATM   26  C   UNL     1     -44.378  61.034 -49.562  1.00  0.00     0.045 A 
HETATM   27  C   UNL     1     -45.464  60.856 -48.701  1.00  0.00     0.066 A 
HETATM   28  C   UNL     1     -46.108  61.972 -48.164  1.00  0.00     0.070 A 
HETATM   29  C   UNL     1     -45.652  63.253 -48.490  1.00  0.00     0.037 A 
HETATM   30  C   UNL     1     -44.570  63.427 -49.352  1.00  0.00     0.005 A 
HETATM   31  C   UNL     1     -43.937  62.314 -49.896  1.00  0.00     0.030 A 
BRANCH  28  32
HETATM   32  O   UNL     1     -47.186  61.952 -47.324  1.00  0.00    -0.356 OA
HETATM   33  C   UNL     1     -47.109  61.097 -46.189  1.00  0.00     0.210 C 
ENDBRANCH  28  32
ENDBRANCH  24  26
ENDBRANCH  21  24
ENDBRANCH   3  21
BRANCH   1  34
HETATM   34  C   UNL     1     -42.083  58.935 -55.933  1.00  0.00     0.253 C 
HETATM   35  N   UNL     1     -42.429  58.075 -56.986  1.00  0.00    -0.345 N 
HETATM   36  C   UNL     1     -42.098  58.559 -58.331  1.00  0.00     0.154 C 
HETATM   37  C   UNL     1     -43.659  57.271 -56.940  1.00  0.00     0.154 C 
HETATM   38  C   UNL     1     -43.237  59.422 -58.898  1.00  0.00     0.254 C 
HETATM   39  N   UNL     1     -44.539  58.607 -58.892  1.00  0.00    -0.072 N 
HETATM   40  C   UNL     1     -45.687  59.387 -59.462  1.00  0.00     0.269 C 
HETATM   41  H   UNL     1     -44.387  57.797 -59.506  1.00  0.00     0.279 HD
HETATM   42  C   UNL     1     -44.856  58.068 -57.498  1.00  0.00     0.254 C 
HETATM   43  O   UNL     1     -41.719  60.088 -56.155  1.00  0.00    -0.267 OA
ENDBRANCH   1  34
TORSDOF 11
ENDMDL
MODEL 4
REMARK VINA RESULT:      -8.4      1.176      1.836
REMARK  11 active torsions:
REMARK  status: ('A' for Active; 'I' for Inactive)
REMARK       I    between atoms: N_6  and  C_7 
REMARK    1  A    between atoms: C_7  and  C_8 
REMARK    2  A    between atoms: C_10  and  S_11 
REMARK    3  A    between atoms: S_11  and  N_12 
REMARK    4  A    between atoms: N_12  and  C_13 
REMARK    5  A    between atoms: C_15  and  O_16 
REMARK    6  A    between atoms: C_23  and  N_24 
REMARK    7  A    between atoms: N_24  and  C_25 
REMARK    8  A    between atoms: C_25  and  C_26 
REMARK    9  A    between atoms: C_26  and  C_27 
REMARK   10  A    between atoms: C_29  and  O_30 
REMARK   11  A    between atoms: C_32  and  O_33 
ROOT
HETATM    1  C   UNL     1     -44.111  58.603 -52.287  1.00  0.00     0.033 A 
HETATM    2  C   UNL     1     -43.483  57.513 -51.690  1.00  0.00     0.044 A 
HETATM    3  C   UNL     1     -43.416  56.277 -52.363  1.00  0.00     0.102 A 
HETATM    4  C   UNL     1     -43.990  56.089 -53.639  1.00  0.00     0.031 A 
HETATM    5  C   UNL     1     -44.702  57.180 -54.163  1.00  0.00     0.026 A 
HETATM    6  C   UNL     1     -44.749  58.422 -53.513  1.00  0.00     0.019 A 
ENDROOT
BRANCH   4   7
HETATM    7  N   UNL     1     -44.016  54.839 -54.273  1.00  0.00    -0.291 NA
HETATM    8  H   UNL     1     -43.568  54.108 -53.701  1.00  0.00     0.127 HD
BRANCH   7   9
HETATM    9  C   UNL     1     -43.573  54.680 -55.668  1.00  0.00     0.097 C 
BRANCH   9  10
HETATM   10  C   UNL     1     -42.417  55.642 -55.983  1.00  0.00     0.053 C 
BRANCH  10  11
HETATM   11  C   UNL     1     -42.679  56.479 -57.212  1.00  0.00    -0.054 A 
HETATM   12  C   UNL     1     -43.070  55.877 -58.419  1.00  0.00     0.046 A 
HETATM   13  C   UNL     1     -43.322  56.652 -59.559  1.00  0.00     0.102 A 
HETATM   14  C   UNL     1     -43.175  58.052 -59.496  1.00  0.00     0.101 A 
HETATM   15  C   UNL     1     -42.784  58.649 -58.294  1.00  0.00     0.040 A 
HETATM   16  C   UNL     1     -42.539  57.868 -57.161  1.00  0.00     0.010 A 
BRANCH  13  17
HETATM   17  O   UNL     1     -43.714  56.144 -60.772  1.00  0.00    -0.353 OA
HETATM   18  C   UNL     1     -44.909  55.379 -60.821  1.00  0.00     0.210 C 
ENDBRANCH  13  17
BRANCH  14  19
HETATM   19  O   UNL     1     -43.442  58.740 -60.652  1.00  0.00    -0.353 OA
HETATM   20  C   UNL     1     -44.550  59.629 -60.652  1.00  0.00     0.210 C 
ENDBRANCH  14  19
ENDBRANCH  10  11
ENDBRANCH   9  10
ENDBRANCH   7   9
ENDBRANCH   4   7
BRANCH   3  21
HETATM   21  S   UNL     1     -42.433  55.000 -51.586  1.00  0.00     0.265 S 
HETATM   22  O   UNL     1     -41.867  55.568 -50.379  1.00  0.00    -0.200 OA
HETATM   23  O   UNL     1     -43.259  53.810 -51.525  1.00  0.00    -0.200 OA
BRANCH  21  24
HETATM   24  N   UNL     1     -41.156  54.779 -52.666  1.00  0.00    -0.280 N 
HETATM   25  H   UNL     1     -41.226  55.401 -53.472  1.00  0.00     0.179 HD
BRANCH  24  26
HETATM   26  C   UNL     1     -40.693  53.457 -52.912  1.00  0.00     0.045 A 
HETATM   27  C   UNL     1     -40.117  52.718 -51.874  1.00  0.00     0.066 A 
HETATM   28  C   UNL     1     -39.625  51.437 -52.131  1.00  0.00     0.070 A 
HETATM   29  C   UNL     1     -39.722  50.908 -53.422  1.00  0.00     0.037 A 
HETATM   30  C   UNL     1     -40.294  51.649 -54.455  1.00  0.00     0.005 A 
HETATM   31  C   UNL     1     -40.772  52.931 -54.200  1.00  0.00     0.030 A 
BRANCH  28  32
HETATM   32  O   UNL     1     -39.027  50.609 -51.223  1.00  0.00    -0.356 OA
HETATM   33  C   UNL     1     -39.860  49.667 -50.556  1.00  0.00     0.210 C 
ENDBRANCH  28  32
ENDBRANCH  24  26
ENDBRANCH  21  24
ENDBRANCH   3  21
BRANCH   1  34
HETATM   34  C   UNL     1     -44.181  59.943 -51.636  1.00  0.00     0.253 C 
HETATM   35  N   UNL     1     -43.097  60.827 -51.733  1.00  0.00    -0.345 N 
HETATM   36  C   UNL     1     -43.180  62.025 -50.889  1.00  0.00     0.154 C 
HETATM   37  C   UNL     1     -42.419  61.063 -53.017  1.00  0.00     0.154 C 
HETATM   38  C   UNL     1     -43.936  63.153 -51.612  1.00  0.00     0.254 C 
HETATM   39  N   UNL     1     -43.242  63.448 -52.950  1.00  0.00    -0.072 N 
HETATM   40  C   UNL     1     -43.918  64.563 -53.693  1.00  0.00     0.269 C 
HETATM   41  H   UNL     1     -42.289  63.763 -52.729  1.00  0.00     0.279 HD
HETATM   42  C   UNL     1     -43.118  62.189 -53.807  1.00  0.00     0.254 C 
HETATM   43  O   UNL     1     -45.205  60.266 -51.038  1.00  0.00    -0.267 OA
ENDBRANCH   1  34
TORSDOF 11
ENDMDL
MODEL 5
REMARK VINA RESULT:      -8.3      2.407      8.983
REMARK  11 active torsions:
REMARK  status: ('A' for Active; 'I' for Inactive)
REMARK       I    between atoms: N_6  and  C_7 
REMARK    1  A    between atoms: C_7  and  C_8 
REMARK    2  A    between atoms: C_10  and  S_11 
REMARK    3  A    between atoms: S_11  and  N_12 
REMARK    4  A    between atoms: N_12  and  C_13 
REMARK    5  A    between atoms: C_15  and  O_16 
REMARK    6  A    between atoms: C_23  and  N_24 
REMARK    7  A    between atoms: N_24  and  C_25 
REMARK    8  A    between atoms: C_25  and  C_26 
REMARK    9  A    between atoms: C_26  and  C_27 
REMARK   10  A    between atoms: C_29  and  O_30 
REMARK   11  A    between atoms: C_32  and  O_33 
ROOT
HETATM    1  C   UNL     1     -44.055  57.750 -54.711  1.00  0.00     0.033 A 
HETATM    2  C   UNL     1     -43.387  58.773 -54.042  1.00  0.00     0.044 A 
HETATM    3  C   UNL     1     -42.802  58.534 -52.782  1.00  0.00     0.102 A 
HETATM    4  C   UNL     1     -42.883  57.275 -52.148  1.00  0.00     0.031 A 
HETATM    5  C   UNL     1     -43.651  56.300 -52.807  1.00  0.00     0.026 A 
HETATM    6  C   UNL     1     -44.212  56.522 -54.072  1.00  0.00     0.019 A 
ENDROOT
BRANCH   4   7
HETATM    7  N   UNL     1     -42.392  57.054 -50.855  1.00  0.00    -0.291 NA
HETATM    8  H   UNL     1     -42.369  57.921 -50.298  1.00  0.00     0.127 HD
BRANCH   7   9
HETATM    9  C   UNL     1     -41.136  56.318 -50.629  1.00  0.00     0.097 C 
BRANCH   9  10
HETATM   10  C   UNL     1     -41.425  54.867 -50.217  1.00  0.00     0.053 C 
BRANCH  10  11
HETATM   11  C   UNL     1     -40.867  53.865 -51.199  1.00  0.00    -0.054 A 
HETATM   12  C   UNL     1     -40.244  52.690 -50.748  1.00  0.00     0.046 A 
HETATM   13  C   UNL     1     -39.732  51.754 -51.657  1.00  0.00     0.102 A 
HETATM   14  C   UNL     1     -39.838  51.998 -53.040  1.00  0.00     0.101 A 
HETATM   15  C   UNL     1     -40.456  53.169 -53.487  1.00  0.00     0.040 A 
HETATM   16  C   UNL     1     -40.968  54.094 -52.574  1.00  0.00     0.010 A 
BRANCH  13  17
HETATM   17  O   UNL     1     -39.117  50.580 -51.299  1.00  0.00    -0.353 OA
HETATM   18  C   UNL     1     -39.871  49.627 -50.567  1.00  0.00     0.210 C 
ENDBRANCH  13  17
BRANCH  14  19
HETATM   19  O   UNL     1     -39.315  51.034 -53.865  1.00  0.00    -0.353 OA
HETATM   20  C   UNL     1     -40.205  50.059 -54.389  1.00  0.00     0.210 C 
ENDBRANCH  14  19
ENDBRANCH  10  11
ENDBRANCH   9  10
ENDBRANCH   7   9
ENDBRANCH   4   7
BRANCH   3  21
HETATM   21  S   UNL     1     -41.817  59.860 -52.097  1.00  0.00     0.265 S 
HETATM   22  O   UNL     1     -40.460  59.367 -51.970  1.00  0.00    -0.200 OA
HETATM   23  O   UNL     1     -42.100  61.045 -52.882  1.00  0.00    -0.200 OA
BRANCH  21  24
HETATM   24  N   UNL     1     -42.423  60.029 -50.532  1.00  0.00    -0.280 N 
HETATM   25  H   UNL     1     -42.323  59.170 -49.990  1.00  0.00     0.179 HD
BRANCH  24  26
HETATM   26  C   UNL     1     -43.618  60.776 -50.341  1.00  0.00     0.045 A 
HETATM   27  C   UNL     1     -43.553  62.065 -49.806  1.00  0.00     0.066 A 
HETATM   28  C   UNL     1     -44.733  62.778 -49.581  1.00  0.00     0.070 A 
HETATM   29  C   UNL     1     -45.962  62.193 -49.900  1.00  0.00     0.037 A 
HETATM   30  C   UNL     1     -46.023  60.905 -50.431  1.00  0.00     0.005 A 
HETATM   31  C   UNL     1     -44.847  60.191 -50.643  1.00  0.00     0.030 A 
BRANCH  28  32
HETATM   32  O   UNL     1     -44.824  64.036 -49.054  1.00  0.00    -0.356 OA
HETATM   33  C   UNL     1     -46.112  64.639 -49.033  1.00  0.00     0.210 C 
ENDBRANCH  28  32
ENDBRANCH  24  26
ENDBRANCH  21  24
ENDBRANCH   3  21
BRANCH   1  34
HETATM   34  C   UNL     1     -44.662  57.938 -56.059  1.00  0.00     0.253 C 
HETATM   35  N   UNL     1     -43.843  57.987 -57.196  1.00  0.00    -0.345 N 
HETATM   36  C   UNL     1     -44.513  58.383 -58.441  1.00  0.00     0.154 C 
HETATM   37  C   UNL     1     -42.762  57.012 -57.399  1.00  0.00     0.154 C 
HETATM   38  C   UNL     1     -45.119  57.159 -59.149  1.00  0.00     0.254 C 
HETATM   39  N   UNL     1     -44.014  56.124 -59.403  1.00  0.00    -0.072 N 
HETATM   40  C   UNL     1     -44.538  54.914 -60.119  1.00  0.00     0.269 C 
HETATM   41  H   UNL     1     -43.324  56.569 -60.022  1.00  0.00     0.279 HD
HETATM   42  C   UNL     1     -43.290  55.748 -58.111  1.00  0.00     0.254 C 
HETATM   43  O   UNL     1     -45.884  58.024 -56.159  1.00  0.00    -0.267 OA
ENDBRANCH   1  34
TORSDOF 11
ENDMDL
MODEL 6
REMARK VINA RESULT:      -7.9      1.932      6.848
REMARK  11 active torsions:
REMARK  status: ('A' for Active; 'I' for Inactive)
REMARK       I    between atoms: N_6  and  C_7 
REMARK    1  A    between atoms: C_7  and  C_8 
REMARK    2  A    between atoms: C_10  and  S_11 
REMARK    3  A    between atoms: S_11  and  N_12 
REMARK    4  A    between atoms: N_12  and  C_13 
REMARK    5  A    between atoms: C_15  and  O_16 
REMARK    6  A    between atoms: C_23  and  N_24 
REMARK    7  A    between atoms: N_24  and  C_25 
REMARK    8  A    between atoms: C_25  and  C_26 
REMARK    9  A    between atoms: C_26  and  C_27 
REMARK   10  A    between atoms: C_29  and  O_30 
REMARK   11  A    between atoms: C_32  and  O_33 
ROOT
HETATM    1  C   UNL     1     -43.449  59.954 -51.888  1.00  0.00     0.033 A 
HETATM    2  C   UNL     1     -43.220  60.032 -53.260  1.00  0.00     0.044 A 
HETATM    3  C   UNL     1     -43.434  58.906 -54.080  1.00  0.00     0.102 A 
HETATM    4  C   UNL     1     -43.864  57.669 -53.552  1.00  0.00     0.031 A 
HETATM    5  C   UNL     1     -43.985  57.602 -52.155  1.00  0.00     0.026 A 
HETATM    6  C   UNL     1     -43.801  58.725 -51.335  1.00  0.00     0.019 A 
ENDROOT
BRANCH   4   7
HETATM    7  N   UNL     1     -43.985  56.519 -54.343  1.00  0.00    -0.291 NA
HETATM    8  H   UNL     1     -44.910  56.455 -54.791  1.00  0.00     0.127 HD
BRANCH   7   9
HETATM    9  C   UNL     1     -43.623  55.190 -53.821  1.00  0.00     0.097 C 
BRANCH   9  10
HETATM   10  C   UNL     1     -42.514  54.556 -54.674  1.00  0.00     0.053 C 
BRANCH  10  11
HETATM   11  C   UNL     1     -41.597  53.670 -53.865  1.00  0.00    -0.054 A 
HETATM   12  C   UNL     1     -41.425  53.884 -52.488  1.00  0.00     0.046 A 
HETATM   13  C   UNL     1     -40.581  53.059 -51.732  1.00  0.00     0.102 A 
HETATM   14  C   UNL     1     -39.892  52.005 -52.364  1.00  0.00     0.101 A 
HETATM   15  C   UNL     1     -40.062  51.795 -53.735  1.00  0.00     0.040 A 
HETATM   16  C   UNL     1     -40.909  52.620 -54.479  1.00  0.00     0.010 A 
BRANCH  13  17
HETATM   17  O   UNL     1     -40.365  53.195 -50.384  1.00  0.00    -0.353 OA
HETATM   18  C   UNL     1     -40.110  54.497 -49.877  1.00  0.00     0.210 C 
ENDBRANCH  13  17
BRANCH  14  19
HETATM   19  O   UNL     1     -39.087  51.241 -51.556  1.00  0.00    -0.353 OA
HETATM   20  C   UNL     1     -39.506  49.914 -51.270  1.00  0.00     0.210 C 
ENDBRANCH  14  19
ENDBRANCH  10  11
ENDBRANCH   9  10
ENDBRANCH   7   9
ENDBRANCH   4   7
BRANCH   3  21
HETATM   21  S   UNL     1     -43.285  59.166 -55.843  1.00  0.00     0.265 S 
HETATM   22  O   UNL     1     -44.606  58.996 -56.416  1.00  0.00    -0.200 OA
HETATM   23  O   UNL     1     -42.555  60.405 -56.027  1.00  0.00    -0.200 OA
BRANCH  21  24
HETATM   24  N   UNL     1     -42.359  57.853 -56.355  1.00  0.00    -0.280 N 
HETATM   25  H   UNL     1     -41.415  57.877 -55.967  1.00  0.00     0.179 HD
BRANCH  24  26
HETATM   26  C   UNL     1     -42.492  57.408 -57.699  1.00  0.00     0.045 A 
HETATM   27  C   UNL     1     -43.196  56.234 -57.977  1.00  0.00     0.066 A 
HETATM   28  C   UNL     1     -43.287  55.779 -59.294  1.00  0.00     0.070 A 
HETATM   29  C   UNL     1     -42.677  56.510 -60.318  1.00  0.00     0.037 A 
HETATM   30  C   UNL     1     -41.972  57.680 -60.037  1.00  0.00     0.005 A 
HETATM   31  C   UNL     1     -41.872  58.125 -58.722  1.00  0.00     0.030 A 
BRANCH  28  32
HETATM   32  O   UNL     1     -43.928  54.646 -59.711  1.00  0.00    -0.356 OA
HETATM   33  C   UNL     1     -45.136  54.815 -60.443  1.00  0.00     0.210 C 
ENDBRANCH  28  32
ENDBRANCH  24  26
ENDBRANCH  21  24
ENDBRANCH   3  21
BRANCH   1  34
HETATM   34  C   UNL     1     -43.271  61.123 -50.979  1.00  0.00     0.253 C 
HETATM   35  N   UNL     1     -44.154  62.210 -51.054  1.00  0.00    -0.345 N 
HETATM   36  C   UNL     1     -43.772  63.390 -50.269  1.00  0.00     0.154 C 
HETATM   37  C   UNL     1     -45.608  62.006 -51.132  1.00  0.00     0.154 C 
HETATM   38  C   UNL     1     -44.303  63.286 -48.830  1.00  0.00     0.254 C 
HETATM   39  N   UNL     1     -45.827  63.098 -48.867  1.00  0.00    -0.072 N 
HETATM   40  C   UNL     1     -46.412  63.018 -47.487  1.00  0.00     0.269 C 
HETATM   41  H   UNL     1     -46.221  63.935 -49.316  1.00  0.00     0.279 HD
HETATM   42  C   UNL     1     -46.223  61.894 -49.721  1.00  0.00     0.254 C 
HETATM   43  O   UNL     1     -42.361  61.107 -50.153  1.00  0.00    -0.267 OA
ENDBRANCH   1  34
TORSDOF 11
ENDMDL
MODEL 7
REMARK VINA RESULT:      -7.9      2.297      7.213
REMARK  11 active torsions:
REMARK  status: ('A' for Active; 'I' for Inactive)
REMARK       I    between atoms: N_6  and  C_7 
REMARK    1  A    between atoms: C_7  and  C_8 
REMARK    2  A    between atoms: C_10  and  S_11 
REMARK    3  A    between atoms: S_11  and  N_12 
REMARK    4  A    between atoms: N_12  and  C_13 
REMARK    5  A    between atoms: C_15  and  O_16 
REMARK    6  A    between atoms: C_23  and  N_24 
REMARK    7  A    between atoms: N_24  and  C_25 
REMARK    8  A    between atoms: C_25  and  C_26 
REMARK    9  A    between atoms: C_26  and  C_27 
REMARK   10  A    between atoms: C_29  and  O_30 
REMARK   11  A    between atoms: C_32  and  O_33 
ROOT
HETATM    1  C   UNL     1     -42.788  61.320 -51.302  1.00  0.00     0.033 A 
HETATM    2  C   UNL     1     -42.952  61.191 -52.679  1.00  0.00     0.044 A 
HETATM    3  C   UNL     1     -42.444  60.062 -53.351  1.00  0.00     0.102 A 
HETATM    4  C   UNL     1     -41.743  59.041 -52.674  1.00  0.00     0.031 A 
HETATM    5  C   UNL     1     -41.509  59.257 -51.305  1.00  0.00     0.026 A 
HETATM    6  C   UNL     1     -42.034  60.364 -50.624  1.00  0.00     0.019 A 
ENDROOT
BRANCH   4   7
HETATM    7  N   UNL     1     -41.149  57.965 -53.346  1.00  0.00    -0.291 NA
HETATM    8  H   UNL     1     -41.241  58.052 -54.369  1.00  0.00     0.127 HD
BRANCH   7   9
HETATM    9  C   UNL     1     -41.437  56.572 -52.966  1.00  0.00     0.097 C 
BRANCH   9  10
HETATM   10  C   UNL     1     -40.979  55.604 -54.067  1.00  0.00     0.053 C 
BRANCH  10  11
HETATM   11  C   UNL     1     -40.586  54.252 -53.522  1.00  0.00    -0.054 A 
HETATM   12  C   UNL     1     -40.570  54.014 -52.138  1.00  0.00     0.046 A 
HETATM   13  C   UNL     1     -40.214  52.758 -51.629  1.00  0.00     0.102 A 
HETATM   14  C   UNL     1     -39.860  51.723 -52.517  1.00  0.00     0.101 A 
HETATM   15  C   UNL     1     -39.874  51.962 -53.894  1.00  0.00     0.040 A 
HETATM   16  C   UNL     1     -40.236  53.216 -54.392  1.00  0.00     0.010 A 
BRANCH  13  17
HETATM   17  O   UNL     1     -40.180  52.442 -50.294  1.00  0.00    -0.353 OA
HETATM   18  C   UNL     1     -40.379  53.487 -49.355  1.00  0.00     0.210 C 
ENDBRANCH  13  17
BRANCH  14  19
HETATM   19  O   UNL     1     -39.525  50.522 -51.942  1.00  0.00    -0.353 OA
HETATM   20  C   UNL     1     -39.554  49.365 -52.764  1.00  0.00     0.210 C 
ENDBRANCH  14  19
ENDBRANCH  10  11
ENDBRANCH   9  10
ENDBRANCH   7   9
ENDBRANCH   4   7
BRANCH   3  21
HETATM   21  S   UNL     1     -42.868  59.909 -55.083  1.00  0.00     0.265 S 
HETATM   22  O   UNL     1     -43.883  60.904 -55.367  1.00  0.00    -0.200 OA
HETATM   23  O   UNL     1     -41.621  59.895 -55.822  1.00  0.00    -0.200 OA
BRANCH  21  24
HETATM   24  N   UNL     1     -43.623  58.404 -55.169  1.00  0.00    -0.280 N 
HETATM   25  H   UNL     1     -43.343  57.791 -54.402  1.00  0.00     0.179 HD
BRANCH  24  26
HETATM   26  C   UNL     1     -43.794  57.799 -56.445  1.00  0.00     0.045 A 
HETATM   27  C   UNL     1     -44.931  58.087 -57.204  1.00  0.00     0.066 A 
HETATM   28  C   UNL     1     -45.115  57.459 -58.437  1.00  0.00     0.070 A 
HETATM   29  C   UNL     1     -44.154  56.554 -58.899  1.00  0.00     0.037 A 
HETATM   30  C   UNL     1     -43.021  56.267 -58.137  1.00  0.00     0.005 A 
HETATM   31  C   UNL     1     -42.846  56.884 -56.903  1.00  0.00     0.030 A 
BRANCH  28  32
HETATM   32  O   UNL     1     -46.179  57.631 -59.277  1.00  0.00    -0.356 OA
HETATM   33  C   UNL     1     -46.469  56.574 -60.185  1.00  0.00     0.210 C 
ENDBRANCH  28  32
ENDBRANCH  24  26
ENDBRANCH  21  24
ENDBRANCH   3  21
BRANCH   1  34
HETATM   34  C   UNL     1     -43.333  62.476 -50.535  1.00  0.00     0.253 C 
HETATM   35  N   UNL     1     -44.689  62.502 -50.176  1.00  0.00    -0.345 N 
HETATM   36  C   UNL     1     -45.169  63.769 -49.611  1.00  0.00     0.154 C 
HETATM   37  C   UNL     1     -45.347  61.319 -49.601  1.00  0.00     0.154 C 
HETATM   38  C   UNL     1     -44.949  63.808 -48.090  1.00  0.00     0.254 C 
HETATM   39  N   UNL     1     -45.645  62.600 -47.448  1.00  0.00    -0.072 N 
HETATM   40  C   UNL     1     -45.490  62.596 -45.955  1.00  0.00     0.269 C 
HETATM   41  H   UNL     1     -46.649  62.691 -47.649  1.00  0.00     0.279 HD
HETATM   42  C   UNL     1     -45.174  61.286 -48.069  1.00  0.00     0.254 C 
HETATM   43  O   UNL     1     -42.577  63.387 -50.204  1.00  0.00    -0.267 OA
ENDBRANCH   1  34
TORSDOF 11
ENDMDL
MODEL 8
REMARK VINA RESULT:      -7.9      2.061      7.523
REMARK  11 active torsions:
REMARK  status: ('A' for Active; 'I' for Inactive)
REMARK       I    between atoms: N_6  and  C_7 
REMARK    1  A    between atoms: C_7  and  C_8 
REMARK    2  A    between atoms: C_10  and  S_11 
REMARK    3  A    between atoms: S_11  and  N_12 
REMARK    4  A    between atoms: N_12  and  C_13 
REMARK    5  A    between atoms: C_15  and  O_16 
REMARK    6  A    between atoms: C_23  and  N_24 
REMARK    7  A    between atoms: N_24  and  C_25 
REMARK    8  A    between atoms: C_25  and  C_26 
REMARK    9  A    between atoms: C_26  and  C_27 
REMARK   10  A    between atoms: C_29  and  O_30 
REMARK   11  A    between atoms: C_32  and  O_33 
ROOT
HETATM    1  C   UNL     1     -44.608  58.659 -51.624  1.00  0.00     0.033 A 
HETATM    2  C   UNL     1     -44.580  59.135 -52.932  1.00  0.00     0.044 A 
HETATM    3  C   UNL     1     -43.944  58.390 -53.945  1.00  0.00     0.102 A 
HETATM    4  C   UNL     1     -43.302  57.161 -53.677  1.00  0.00     0.031 A 
HETATM    5  C   UNL     1     -43.264  56.766 -52.330  1.00  0.00     0.026 A 
HETATM    6  C   UNL     1     -43.918  57.487 -51.321  1.00  0.00     0.019 A 
ENDROOT
BRANCH   4   7
HETATM    7  N   UNL     1     -42.583  56.462 -54.656  1.00  0.00    -0.291 NA
HETATM    8  H   UNL     1     -42.849  56.750 -55.609  1.00  0.00     0.127 HD
BRANCH   7   9
HETATM    9  C   UNL     1     -42.474  54.994 -54.622  1.00  0.00     0.097 C 
BRANCH   9  10
HETATM   10  C   UNL     1     -41.021  54.553 -54.854  1.00  0.00     0.053 C 
BRANCH  10  11
HETATM   11  C   UNL     1     -40.563  53.520 -53.853  1.00  0.00    -0.054 A 
HETATM   12  C   UNL     1     -40.536  53.814 -52.481  1.00  0.00     0.046 A 
HETATM   13  C   UNL     1     -40.120  52.855 -51.548  1.00  0.00     0.102 A 
HETATM   14  C   UNL     1     -39.715  51.581 -51.994  1.00  0.00     0.101 A 
HETATM   15  C   UNL     1     -39.740  51.290 -53.361  1.00  0.00     0.040 A 
HETATM   16  C   UNL     1     -40.162  52.252 -54.283  1.00  0.00     0.010 A 
BRANCH  13  17
HETATM   17  O   UNL     1     -40.072  53.059 -50.192  1.00  0.00    -0.353 OA
HETATM   18  C   UNL     1     -39.770  54.364 -49.723  1.00  0.00     0.210 C 
ENDBRANCH  13  17
BRANCH  14  19
HETATM   19  O   UNL     1     -39.323  50.696 -51.021  1.00  0.00    -0.353 OA
HETATM   20  C   UNL     1     -39.785  49.357 -51.120  1.00  0.00     0.210 C 
ENDBRANCH  14  19
ENDBRANCH  10  11
ENDBRANCH   9  10
ENDBRANCH   7   9
ENDBRANCH   4   7
BRANCH   3  21
HETATM   21  S   UNL     1     -44.124  59.002 -55.616  1.00  0.00     0.265 S 
HETATM   22  O   UNL     1     -45.252  59.913 -55.621  1.00  0.00    -0.200 OA
HETATM   23  O   UNL     1     -42.813  59.450 -56.045  1.00  0.00    -0.200 OA
BRANCH  21  24
HETATM   24  N   UNL     1     -44.596  57.636 -56.484  1.00  0.00    -0.280 N 
HETATM   25  H   UNL     1     -44.632  56.803 -55.896  1.00  0.00     0.179 HD
BRANCH  24  26
HETATM   26  C   UNL     1     -44.105  57.467 -57.809  1.00  0.00     0.045 A 
HETATM   27  C   UNL     1     -44.295  58.478 -58.755  1.00  0.00     0.066 A 
HETATM   28  C   UNL     1     -43.848  58.290 -60.064  1.00  0.00     0.070 A 
HETATM   29  C   UNL     1     -43.211  57.094 -60.409  1.00  0.00     0.037 A 
HETATM   30  C   UNL     1     -43.027  56.086 -59.463  1.00  0.00     0.005 A 
HETATM   31  C   UNL     1     -43.483  56.270 -58.162  1.00  0.00     0.030 A 
BRANCH  28  32
HETATM   32  O   UNL     1     -43.976  59.180 -61.093  1.00  0.00    -0.356 OA
HETATM   33  C   UNL     1     -45.051  60.110 -61.018  1.00  0.00     0.210 C 
ENDBRANCH  28  32
ENDBRANCH  24  26
ENDBRANCH  21  24
ENDBRANCH   3  21
BRANCH   1  34
HETATM   34  C   UNL     1     -45.296  59.389 -50.520  1.00  0.00     0.253 C 
HETATM   35  N   UNL     1     -44.658  60.468 -49.890  1.00  0.00    -0.345 N 
HETATM   36  C   UNL     1     -45.325  60.980 -48.687  1.00  0.00     0.154 C 
HETATM   37  C   UNL     1     -43.977  61.511 -50.670  1.00  0.00     0.154 C 
HETATM   38  C   UNL     1     -46.373  62.044 -49.053  1.00  0.00     0.254 C 
HETATM   39  N   UNL     1     -45.695  63.168 -49.850  1.00  0.00    -0.072 N 
HETATM   40  C   UNL     1     -46.663  64.255 -50.214  1.00  0.00     0.269 C 
HETATM   41  H   UNL     1     -44.987  63.586 -49.233  1.00  0.00     0.279 HD
HETATM   42  C   UNL     1     -44.965  62.625 -51.077  1.00  0.00     0.254 C 
HETATM   43  O   UNL     1     -46.430  59.048 -50.191  1.00  0.00    -0.267 OA
ENDBRANCH   1  34
TORSDOF 11
ENDMDL
MODEL 9
REMARK VINA RESULT:      -7.8      2.849      8.771
REMARK  11 active torsions:
REMARK  status: ('A' for Active; 'I' for Inactive)
REMARK       I    between atoms: N_6  and  C_7 
REMARK    1  A    between atoms: C_7  and  C_8 
REMARK    2  A    between atoms: C_10  and  S_11 
REMARK    3  A    between atoms: S_11  and  N_12 
REMARK    4  A    between atoms: N_12  and  C_13 
REMARK    5  A    between atoms: C_15  and  O_16 
REMARK    6  A    between atoms: C_23  and  N_24 
REMARK    7  A    between atoms: N_24  and  C_25 
REMARK    8  A    between atoms: C_25  and  C_26 
REMARK    9  A    between atoms: C_26  and  C_27 
REMARK   10  A    between atoms: C_29  and  O_30 
REMARK   11  A    between atoms: C_32  and  O_33 
ROOT
HETATM    1  C   UNL     1     -45.215  58.686 -55.503  1.00  0.00     0.033 A 
HETATM    2  C   UNL     1     -44.639  57.753 -54.644  1.00  0.00     0.044 A 
HETATM    3  C   UNL     1     -44.148  58.155 -53.386  1.00  0.00     0.102 A 
HETATM    4  C   UNL     1     -44.201  59.499 -52.958  1.00  0.00     0.031 A 
HETATM    5  C   UNL     1     -44.695  60.425 -53.892  1.00  0.00     0.026 A 
HETATM    6  C   UNL     1     -45.210  60.030 -55.134  1.00  0.00     0.019 A 
ENDROOT
BRANCH   4   7
HETATM    7  N   UNL     1     -43.628  59.926 -51.752  1.00  0.00    -0.291 NA
HETATM    8  H   UNL     1     -43.596  59.170 -51.053  1.00  0.00     0.127 HD
BRANCH   7   9
HETATM    9  C   UNL     1     -44.075  61.161 -51.088  1.00  0.00     0.097 C 
BRANCH   9  10
HETATM   10  C   UNL     1     -43.608  61.189 -49.625  1.00  0.00     0.053 C 
BRANCH  10  11
HETATM   11  C   UNL     1     -44.648  61.766 -48.695  1.00  0.00    -0.054 A 
HETATM   12  C   UNL     1     -45.463  60.925 -47.921  1.00  0.00     0.046 A 
HETATM   13  C   UNL     1     -46.424  61.458 -47.051  1.00  0.00     0.102 A 
HETATM   14  C   UNL     1     -46.579  62.855 -46.958  1.00  0.00     0.101 A 
HETATM   15  C   UNL     1     -45.769  63.690 -47.731  1.00  0.00     0.040 A 
HETATM   16  C   UNL     1     -44.810  63.150 -48.592  1.00  0.00     0.010 A 
BRANCH  13  17
HETATM   17  O   UNL     1     -47.253  60.707 -46.256  1.00  0.00    -0.353 OA
HETATM   18  C   UNL     1     -46.831  59.400 -45.897  1.00  0.00     0.210 C 
ENDBRANCH  13  17
BRANCH  14  19
HETATM   19  O   UNL     1     -47.539  63.299 -46.083  1.00  0.00    -0.353 OA
HETATM   20  C   UNL     1     -47.111  64.053 -44.959  1.00  0.00     0.210 C 
ENDBRANCH  14  19
ENDBRANCH  10  11
ENDBRANCH   9  10
ENDBRANCH   7   9
ENDBRANCH   4   7
BRANCH   3  21
HETATM   21  S   UNL     1     -43.596  56.851 -52.293  1.00  0.00     0.265 S 
HETATM   22  O   UNL     1     -42.170  57.024 -52.102  1.00  0.00    -0.200 OA
HETATM   23  O   UNL     1     -44.497  56.843 -51.156  1.00  0.00    -0.200 OA
BRANCH  21  24
HETATM   24  N   UNL     1     -43.798  55.455 -53.217  1.00  0.00    -0.280 N 
HETATM   25  H   UNL     1     -44.579  54.887 -52.884  1.00  0.00     0.179 HD
BRANCH  24  26
HETATM   26  C   UNL     1     -42.640  54.759 -53.663  1.00  0.00     0.045 A 
HETATM   27  C   UNL     1     -42.040  53.806 -52.836  1.00  0.00     0.066 A 
HETATM   28  C   UNL     1     -40.880  53.157 -53.261  1.00  0.00     0.070 A 
HETATM   29  C   UNL     1     -40.338  53.466 -54.512  1.00  0.00     0.037 A 
HETATM   30  C   UNL     1     -40.938  54.420 -55.334  1.00  0.00     0.005 A 
HETATM   31  C   UNL     1     -42.087  55.075 -54.903  1.00  0.00     0.030 A 
BRANCH  28  32
HETATM   32  O   UNL     1     -40.180  52.218 -52.557  1.00  0.00    -0.356 OA
HETATM   33  C   UNL     1     -39.568  51.170 -53.301  1.00  0.00     0.210 C 
ENDBRANCH  28  32
ENDBRANCH  24  26
ENDBRANCH  21  24
ENDBRANCH   3  21
BRANCH   1  34
HETATM   34  C   UNL     1     -45.780  58.311 -56.831  1.00  0.00     0.253 C 
HETATM   35  N   UNL     1     -44.967  58.343 -57.973  1.00  0.00    -0.345 N 
HETATM   36  C   UNL     1     -45.664  58.162 -59.251  1.00  0.00     0.154 C 
HETATM   37  C   UNL     1     -43.612  57.771 -57.960  1.00  0.00     0.154 C 
HETATM   38  C   UNL     1     -45.788  56.669 -59.600  1.00  0.00     0.254 C 
HETATM   39  N   UNL     1     -44.388  56.038 -59.622  1.00  0.00    -0.072 N 
HETATM   40  C   UNL     1     -44.439  54.582 -59.985  1.00  0.00     0.269 C 
HETATM   41  H   UNL     1     -43.856  56.517 -60.360  1.00  0.00     0.279 HD
HETATM   42  C   UNL     1     -43.648  56.267 -58.305  1.00  0.00     0.254 C 
HETATM   43  O   UNL     1     -46.953  57.952 -56.903  1.00  0.00    -0.267 OA
ENDBRANCH   1  34
TORSDOF 11
ENDMDL
MODEL 10
REMARK VINA RESULT:      -7.7      1.897      2.686
REMARK  11 active torsions:
REMARK  status: ('A' for Active; 'I' for Inactive)
REMARK       I    between atoms: N_6  and  C_7 
REMARK    1  A    between atoms: C_7  and  C_8 
REMARK    2  A    between atoms: C_10  and  S_11 
REMARK    3  A    between atoms: S_11  and  N_12 
REMARK    4  A    between atoms: N_12  and  C_13 
REMARK    5  A    between atoms: C_15  and  O_16 
REMARK    6  A    between atoms: C_23  and  N_24 
REMARK    7  A    between atoms: N_24  and  C_25 
REMARK    8  A    between atoms: C_25  and  C_26 
REMARK    9  A    between atoms: C_26  and  C_27 
REMARK   10  A    between atoms: C_29  and  O_30 
REMARK   11  A    between atoms: C_32  and  O_33 
ROOT
HETATM    1  C   UNL     1     -44.346  58.897 -52.999  1.00  0.00     0.033 A 
HETATM    2  C   UNL     1     -44.186  57.516 -52.902  1.00  0.00     0.044 A 
HETATM    3  C   UNL     1     -43.443  56.819 -53.875  1.00  0.00     0.102 A 
HETATM    4  C   UNL     1     -42.857  57.474 -54.980  1.00  0.00     0.031 A 
HETATM    5  C   UNL     1     -43.127  58.847 -55.097  1.00  0.00     0.026 A 
HETATM    6  C   UNL     1     -43.841  59.554 -54.119  1.00  0.00     0.019 A 
ENDROOT
BRANCH   4   7
HETATM    7  N   UNL     1     -42.202  56.777 -56.004  1.00  0.00    -0.291 NA
HETATM    8  H   UNL     1     -41.182  56.746 -55.857  1.00  0.00     0.127 HD
BRANCH   7   9
HETATM    9  C   UNL     1     -42.463  57.076 -57.421  1.00  0.00     0.097 C 
BRANCH   9  10
HETATM   10  C   UNL     1     -43.112  55.871 -58.119  1.00  0.00     0.053 C 
BRANCH  10  11
HETATM   11  C   UNL     1     -44.355  56.248 -58.889  1.00  0.00    -0.054 A 
HETATM   12  C   UNL     1     -45.038  57.442 -58.605  1.00  0.00     0.046 A 
HETATM   13  C   UNL     1     -46.188  57.799 -59.324  1.00  0.00     0.102 A 
HETATM   14  C   UNL     1     -46.667  56.947 -60.338  1.00  0.00     0.101 A 
HETATM   15  C   UNL     1     -45.986  55.758 -60.617  1.00  0.00     0.040 A 
HETATM   16  C   UNL     1     -44.838  55.413 -59.899  1.00  0.00     0.010 A 
BRANCH  13  17
HETATM   17  O   UNL     1     -46.908  58.948 -59.115  1.00  0.00    -0.353 OA
HETATM   18  C   UNL     1     -46.313  60.185 -59.479  1.00  0.00     0.210 C 
ENDBRANCH  13  17
BRANCH  14  19
HETATM   19  O   UNL     1     -47.795  57.367 -60.997  1.00  0.00    -0.353 OA
HETATM   20  C   UNL     1     -48.138  56.707 -62.207  1.00  0.00     0.210 C 
ENDBRANCH  14  19
ENDBRANCH  10  11
ENDBRANCH   9  10
ENDBRANCH   7   9
ENDBRANCH   4   7
BRANCH   3  21
HETATM   21  S   UNL     1     -43.148  55.083 -53.557  1.00  0.00     0.265 S 
HETATM   22  O   UNL     1     -43.652  54.797 -52.229  1.00  0.00    -0.200 OA
HETATM   23  O   UNL     1     -43.645  54.353 -54.708  1.00  0.00    -0.200 OA
BRANCH  21  24
HETATM   24  N   UNL     1     -41.467  54.981 -53.473  1.00  0.00    -0.280 N 
HETATM   25  H   UNL     1     -41.012  55.658 -54.087  1.00  0.00     0.179 HD
BRANCH  24  26
HETATM   26  C   UNL     1     -40.866  53.695 -53.377  1.00  0.00     0.045 A 
HETATM   27  C   UNL     1     -40.579  53.155 -52.121  1.00  0.00     0.066 A 
HETATM   28  C   UNL     1     -39.951  51.911 -52.033  1.00  0.00     0.070 A 
HETATM   29  C   UNL     1     -39.623  51.221 -53.204  1.00  0.00     0.037 A 
HETATM   30  C   UNL     1     -39.908  51.765 -54.456  1.00  0.00     0.005 A 
HETATM   31  C   UNL     1     -40.523  53.010 -54.542  1.00  0.00     0.030 A 
BRANCH  28  32
HETATM   32  O   UNL     1     -39.598  51.268 -50.879  1.00  0.00    -0.356 OA
HETATM   33  C   UNL     1     -39.587  49.846 -50.906  1.00  0.00     0.210 C 
ENDBRANCH  28  32
ENDBRANCH  24  26
ENDBRANCH  21  24
ENDBRANCH   3  21
BRANCH   1  34
HETATM   34  C   UNL     1     -45.093  59.690 -51.981  1.00  0.00     0.253 C 
HETATM   35  N   UNL     1     -44.533  59.906 -50.713  1.00  0.00    -0.345 N 
HETATM   36  C   UNL     1     -45.429  60.514 -49.722  1.00  0.00     0.154 C 
HETATM   37  C   UNL     1     -43.129  60.316 -50.559  1.00  0.00     0.154 C 
HETATM   38  C   UNL     1     -45.381  62.049 -49.809  1.00  0.00     0.254 C 
HETATM   39  N   UNL     1     -43.931  62.519 -49.628  1.00  0.00    -0.072 N 
HETATM   40  C   UNL     1     -43.821  64.015 -49.674  1.00  0.00     0.269 C 
HETATM   41  H   UNL     1     -43.635  62.222 -48.689  1.00  0.00     0.279 HD
HETATM   42  C   UNL     1     -42.994  61.851 -50.633  1.00  0.00     0.254 C 
HETATM   43  O   UNL     1     -46.186  60.167 -52.276  1.00  0.00    -0.267 OA
ENDBRANCH   1  34
TORSDOF 11
ENDMDL
