MODEL 1
REMARK VINA RESULT:      -7.7      0.000      0.000
REMARK  6 active torsions:
REMARK  status: ('A' for Active; 'I' for Inactive)
REMARK    1  A    between atoms: C_2  and  N_3 
REMARK    2  A    between atoms: C_7  and  N_8 
REMARK       I    between atoms: N_8  and  C_9 
REMARK       I    between atoms: C_9  and  N_10 
REMARK    3  A    between atoms: N_10  and  C_11 
REMARK    4  A    between atoms: C_11  and  C_12 
REMARK    5  A    between atoms: C_15  and  N_16 
REMARK       I    between atoms: N_16  and  C_17 
REMARK    6  A    between atoms: C_17  and  C_18 
ROOT
HETATM    1  N   UNL     1     -44.921  60.966 -48.037  1.00  0.00    -0.338 N 
HETATM    2  C   UNL     1     -44.972  60.460 -49.316  1.00  0.00     0.316 C 
HETATM    3  N   UNL     1     -43.748  60.545 -49.923  1.00  0.00    -0.339 N 
HETATM    4  O   UNL     1     -45.992  60.074 -49.863  1.00  0.00    -0.247 OA
HETATM    5  H   UNL     1     -44.065  60.670 -47.583  1.00  0.00     0.164 HD
HETATM    6  H   UNL     1     -43.041  61.114 -49.483  1.00  0.00     0.164 HD
ENDROOT
BRANCH   3   7
HETATM    7  C   UNL     1     -43.622  60.358 -51.356  1.00  0.00     0.162 C 
BRANCH   7   8
HETATM    8  C   UNL     1     -43.027  59.018 -51.737  1.00  0.00    -0.040 A 
HETATM    9  C   UNL     1     -43.575  58.200 -52.737  1.00  0.00     0.011 A 
HETATM   10  C   UNL     1     -43.037  56.937 -53.008  1.00  0.00     0.030 A 
HETATM   11  C   UNL     1     -41.923  56.477 -52.307  1.00  0.00     0.035 A 
HETATM   12  C   UNL     1     -41.324  57.320 -51.367  1.00  0.00     0.030 A 
HETATM   13  C   UNL     1     -41.873  58.574 -51.080  1.00  0.00     0.011 A 
BRANCH  11  14
HETATM   14  N   UNL     1     -41.364  55.200 -52.479  1.00  0.00    -0.321 N 
HETATM   15  C   UNL     1     -40.682  54.704 -53.578  1.00  0.00     0.279 C 
HETATM   16  O   UNL     1     -40.442  55.333 -54.605  1.00  0.00    -0.265 OA
HETATM   17  H   UNL     1     -41.543  54.513 -51.751  1.00  0.00     0.169 HD
BRANCH  15  18
HETATM   18  C   UNL     1     -40.308  53.310 -53.413  1.00  0.00     0.142 A 
HETATM   19  O   UNL     1     -39.930  52.860 -52.172  1.00  0.00    -0.317 OA
HETATM   20  C   UNL     1     -39.651  51.537 -52.293  1.00  0.00     0.143 A 
HETATM   21  C   UNL     1     -39.844  51.120 -53.587  1.00  0.00     0.027 A 
HETATM   22  C   UNL     1     -40.265  52.261 -54.311  1.00  0.00     0.045 A 
ENDBRANCH  15  18
ENDBRANCH  11  14
ENDBRANCH   7   8
ENDBRANCH   3   7
BRANCH   1  23
HETATM   23  C   UNL     1     -46.093  61.048 -47.159  1.00  0.00     0.089 C 
HETATM   24  C   UNL     1     -46.601  62.457 -46.846  1.00  0.00     0.053 C 
HETATM   25  C   UNL     1     -45.553  63.288 -46.128  1.00  0.00     0.237 C 
HETATM   26  N   UNL     1     -45.166  62.618 -44.810  1.00  0.00    -0.067 N 
HETATM   27  H   UNL     1     -46.013  62.590 -44.226  1.00  0.00     0.280 HD
HETATM   28  C   UNL     1     -44.718  61.185 -45.043  1.00  0.00     0.237 C 
HETATM   29  C   UNL     1     -45.756  60.384 -45.824  1.00  0.00     0.053 C 
BRANCH  26  30
HETATM   30  C   UNL     1     -44.120  63.449 -44.036  1.00  0.00     0.180 C 
HETATM   31  C   UNL     1     -43.439  62.587 -42.969  1.00  0.00     0.039 C 
HETATM   32  C   UNL     1     -44.791  64.643 -43.353  1.00  0.00     0.039 C 
ENDBRANCH  26  30
ENDBRANCH   1  23
TORSDOF 6
ENDMDL
MODEL 2
REMARK VINA RESULT:      -7.5      4.675     11.315
REMARK  6 active torsions:
REMARK  status: ('A' for Active; 'I' for Inactive)
REMARK    1  A    between atoms: C_2  and  N_3 
REMARK    2  A    between atoms: C_7  and  N_8 
REMARK       I    between atoms: N_8  and  C_9 
REMARK       I    between atoms: C_9  and  N_10 
REMARK    3  A    between atoms: N_10  and  C_11 
REMARK    4  A    between atoms: C_11  and  C_12 
REMARK    5  A    between atoms: C_15  and  N_16 
REMARK       I    between atoms: N_16  and  C_17 
REMARK    6  A    between atoms: C_17  and  C_18 
ROOT
HETATM    1  N   UNL     1     -43.564  55.282 -57.484  1.00  0.00    -0.338 N 
HETATM    2  C   UNL     1     -42.819  55.062 -56.347  1.00  0.00     0.316 C 
HETATM    3  N   UNL     1     -43.568  54.438 -55.386  1.00  0.00    -0.339 N 
HETATM    4  O   UNL     1     -41.675  55.454 -56.188  1.00  0.00    -0.247 OA
HETATM    5  H   UNL     1     -44.139  54.470 -57.681  1.00  0.00     0.164 HD
HETATM    6  H   UNL     1     -44.566  54.394 -55.520  1.00  0.00     0.164 HD
ENDROOT
BRANCH   3   7
HETATM    7  C   UNL     1     -43.100  54.374 -54.015  1.00  0.00     0.162 C 
BRANCH   7   8
HETATM    8  C   UNL     1     -43.498  55.579 -53.187  1.00  0.00    -0.040 A 
HETATM    9  C   UNL     1     -44.102  56.716 -53.741  1.00  0.00     0.011 A 
HETATM   10  C   UNL     1     -44.387  57.836 -52.953  1.00  0.00     0.030 A 
HETATM   11  C   UNL     1     -44.102  57.833 -51.588  1.00  0.00     0.035 A 
HETATM   12  C   UNL     1     -43.574  56.673 -51.014  1.00  0.00     0.030 A 
HETATM   13  C   UNL     1     -43.269  55.559 -51.805  1.00  0.00     0.011 A 
BRANCH  11  14
HETATM   14  N   UNL     1     -44.301  58.938 -50.745  1.00  0.00    -0.321 N 
HETATM   15  C   UNL     1     -45.493  59.412 -50.222  1.00  0.00     0.279 C 
HETATM   16  O   UNL     1     -46.599  58.913 -50.414  1.00  0.00    -0.265 OA
HETATM   17  H   UNL     1     -43.495  59.524 -50.548  1.00  0.00     0.169 HD
BRANCH  15  18
HETATM   18  C   UNL     1     -45.311  60.622 -49.439  1.00  0.00     0.142 A 
HETATM   19  O   UNL     1     -46.189  60.899 -48.420  1.00  0.00    -0.317 OA
HETATM   20  C   UNL     1     -45.786  62.063 -47.849  1.00  0.00     0.143 A 
HETATM   21  C   UNL     1     -44.663  62.545 -48.477  1.00  0.00     0.027 A 
HETATM   22  C   UNL     1     -44.356  61.619 -49.503  1.00  0.00     0.045 A 
ENDBRANCH  15  18
ENDBRANCH  11  14
ENDBRANCH   7   8
ENDBRANCH   3   7
BRANCH   1  23
HETATM   23  C   UNL     1     -43.040  55.973 -58.666  1.00  0.00     0.089 C 
HETATM   24  C   UNL     1     -43.336  57.472 -58.753  1.00  0.00     0.053 C 
HETATM   25  C   UNL     1     -44.826  57.751 -58.803  1.00  0.00     0.237 C 
HETATM   26  N   UNL     1     -45.446  57.072 -60.024  1.00  0.00    -0.067 N 
HETATM   27  H   UNL     1     -45.011  57.492 -60.856  1.00  0.00     0.280 HD
HETATM   28  C   UNL     1     -45.129  55.586 -60.036  1.00  0.00     0.237 C 
HETATM   29  C   UNL     1     -43.629  55.324 -59.918  1.00  0.00     0.053 C 
BRANCH  26  30
HETATM   30  C   UNL     1     -46.961  57.356 -60.125  1.00  0.00     0.180 C 
HETATM   31  C   UNL     1     -47.574  56.570 -61.286  1.00  0.00     0.039 C 
HETATM   32  C   UNL     1     -47.206  58.850 -60.353  1.00  0.00     0.039 C 
ENDBRANCH  26  30
ENDBRANCH   1  23
TORSDOF 6
ENDMDL
MODEL 3
REMARK VINA RESULT:      -7.3      2.451     10.028
REMARK  6 active torsions:
REMARK  status: ('A' for Active; 'I' for Inactive)
REMARK    1  A    between atoms: C_2  and  N_3 
REMARK    2  A    between atoms: C_7  and  N_8 
REMARK       I    between atoms: N_8  and  C_9 
REMARK       I    between atoms: C_9  and  N_10 
REMARK    3  A    between atoms: N_10  and  C_11 
REMARK    4  A    between atoms: C_11  and  C_12 
REMARK    5  A    between atoms: C_15  and  N_16 
REMARK       I    between atoms: N_16  and  C_17 
REMARK    6  A    between atoms: C_17  and  C_18 
ROOT
HETATM    1  N   UNL     1     -41.747  56.204 -54.040  1.00  0.00    -0.338 N 
HETATM    2  C   UNL     1     -42.285  57.415 -54.415  1.00  0.00     0.316 C 
HETATM    3  N   UNL     1     -41.388  58.429 -54.214  1.00  0.00    -0.339 N 
HETATM    4  O   UNL     1     -43.436  57.571 -54.787  1.00  0.00    -0.247 OA
HETATM    5  H   UNL     1     -40.782  56.147 -54.344  1.00  0.00     0.164 HD
HETATM    6  H   UNL     1     -40.567  58.232 -53.663  1.00  0.00     0.164 HD
ENDROOT
BRANCH   3   7
HETATM    7  C   UNL     1     -41.822  59.813 -54.247  1.00  0.00     0.162 C 
BRANCH   7   8
HETATM    8  C   UNL     1     -42.372  60.303 -52.923  1.00  0.00    -0.040 A 
HETATM    9  C   UNL     1     -41.805  59.953 -51.689  1.00  0.00     0.011 A 
HETATM   10  C   UNL     1     -42.387  60.369 -50.487  1.00  0.00     0.030 A 
HETATM   11  C   UNL     1     -43.530  61.168 -50.492  1.00  0.00     0.035 A 
HETATM   12  C   UNL     1     -44.052  61.587 -51.719  1.00  0.00     0.030 A 
HETATM   13  C   UNL     1     -43.483  61.156 -52.922  1.00  0.00     0.011 A 
BRANCH  11  14
HETATM   14  N   UNL     1     -44.206  61.574 -49.330  1.00  0.00    -0.321 N 
HETATM   15  C   UNL     1     -45.317  60.995 -48.739  1.00  0.00     0.279 C 
HETATM   16  O   UNL     1     -45.896  59.992 -49.149  1.00  0.00    -0.265 OA
HETATM   17  H   UNL     1     -43.909  62.446 -48.900  1.00  0.00     0.169 HD
BRANCH  15  18
HETATM   18  C   UNL     1     -45.775  61.737 -47.577  1.00  0.00     0.142 A 
HETATM   19  O   UNL     1     -47.114  61.743 -47.273  1.00  0.00    -0.317 OA
HETATM   20  C   UNL     1     -47.266  62.488 -46.147  1.00  0.00     0.143 A 
HETATM   21  C   UNL     1     -46.050  62.961 -45.715  1.00  0.00     0.027 A 
HETATM   22  C   UNL     1     -45.089  62.480 -46.637  1.00  0.00     0.045 A 
ENDBRANCH  15  18
ENDBRANCH  11  14
ENDBRANCH   7   8
ENDBRANCH   3   7
BRANCH   1  23
HETATM   23  C   UNL     1     -42.492  54.943 -54.101  1.00  0.00     0.089 C 
HETATM   24  C   UNL     1     -43.031  54.417 -52.769  1.00  0.00     0.053 C 
HETATM   25  C   UNL     1     -41.915  54.131 -51.781  1.00  0.00     0.237 C 
HETATM   26  N   UNL     1     -40.964  53.081 -52.356  1.00  0.00    -0.067 N 
HETATM   27  H   UNL     1     -41.509  52.219 -52.487  1.00  0.00     0.280 HD
HETATM   28  C   UNL     1     -40.444  53.511 -53.718  1.00  0.00     0.237 C 
HETATM   29  C   UNL     1     -41.580  53.859 -54.676  1.00  0.00     0.053 C 
BRANCH  26  30
HETATM   30  C   UNL     1     -39.826  52.743 -51.367  1.00  0.00     0.180 C 
HETATM   31  C   UNL     1     -39.988  51.315 -50.839  1.00  0.00     0.039 C 
HETATM   32  C   UNL     1     -39.847  53.714 -50.184  1.00  0.00     0.039 C 
ENDBRANCH  26  30
ENDBRANCH   1  23
TORSDOF 6
ENDMDL
MODEL 4
REMARK VINA RESULT:      -7.2     19.391     21.706
REMARK  6 active torsions:
REMARK  status: ('A' for Active; 'I' for Inactive)
REMARK    1  A    between atoms: C_2  and  N_3 
REMARK    2  A    between atoms: C_7  and  N_8 
REMARK       I    between atoms: N_8  and  C_9 
REMARK       I    between atoms: C_9  and  N_10 
REMARK    3  A    between atoms: N_10  and  C_11 
REMARK    4  A    between atoms: C_11  and  C_12 
REMARK    5  A    between atoms: C_15  and  N_16 
REMARK       I    between atoms: N_16  and  C_17 
REMARK    6  A    between atoms: C_17  and  C_18 
ROOT
HETATM    1  N   UNL     1     -34.765  41.427 -53.475  1.00  0.00    -0.338 N 
HETATM    2  C   UNL     1     -35.352  41.758 -54.675  1.00  0.00     0.316 C 
HETATM    3  N   UNL     1     -34.509  41.490 -55.720  1.00  0.00    -0.339 N 
HETATM    4  O   UNL     1     -36.439  42.302 -54.782  1.00  0.00    -0.247 OA
HETATM    5  H   UNL     1     -34.270  40.547 -53.564  1.00  0.00     0.164 HD
HETATM    6  H   UNL     1     -33.544  41.289 -55.509  1.00  0.00     0.164 HD
ENDROOT
BRANCH   3   7
HETATM    7  C   UNL     1     -34.781  42.027 -57.040  1.00  0.00     0.162 C 
BRANCH   7   8
HETATM    8  C   UNL     1     -35.736  41.176 -57.851  1.00  0.00    -0.040 A 
HETATM    9  C   UNL     1     -35.632  39.779 -57.927  1.00  0.00     0.011 A 
HETATM   10  C   UNL     1     -36.491  39.037 -58.746  1.00  0.00     0.030 A 
HETATM   11  C   UNL     1     -37.491  39.672 -59.482  1.00  0.00     0.035 A 
HETATM   12  C   UNL     1     -37.652  41.053 -59.347  1.00  0.00     0.030 A 
HETATM   13  C   UNL     1     -36.781  41.800 -58.545  1.00  0.00     0.011 A 
BRANCH  11  14
HETATM   14  N   UNL     1     -38.350  39.005 -60.371  1.00  0.00    -0.321 N 
HETATM   15  C   UNL     1     -38.113  38.653 -61.689  1.00  0.00     0.279 C 
HETATM   16  O   UNL     1     -37.071  38.866 -62.303  1.00  0.00    -0.265 OA
HETATM   17  H   UNL     1     -39.298  38.824 -60.052  1.00  0.00     0.169 HD
BRANCH  15  18
HETATM   18  C   UNL     1     -39.268  38.029 -62.311  1.00  0.00     0.142 A 
HETATM   19  O   UNL     1     -39.104  37.334 -63.484  1.00  0.00    -0.317 OA
HETATM   20  C   UNL     1     -40.322  36.846 -63.835  1.00  0.00     0.143 A 
HETATM   21  C   UNL     1     -41.271  37.209 -62.910  1.00  0.00     0.027 A 
HETATM   22  C   UNL     1     -40.595  37.973 -61.929  1.00  0.00     0.045 A 
ENDBRANCH  15  18
ENDBRANCH  11  14
ENDBRANCH   7   8
ENDBRANCH   3   7
BRANCH   1  23
HETATM   23  C   UNL     1     -35.414  41.644 -52.177  1.00  0.00     0.089 C 
HETATM   24  C   UNL     1     -34.503  42.122 -51.043  1.00  0.00     0.053 C 
HETATM   25  C   UNL     1     -33.409  41.117 -50.736  1.00  0.00     0.237 C 
HETATM   26  N   UNL     1     -34.026  39.781 -50.321  1.00  0.00    -0.067 N 
HETATM   27  H   UNL     1     -34.560  39.951 -49.459  1.00  0.00     0.280 HD
HETATM   28  C   UNL     1     -34.999  39.283 -51.377  1.00  0.00     0.237 C 
HETATM   29  C   UNL     1     -36.052  40.333 -51.720  1.00  0.00     0.053 C 
BRANCH  26  30
HETATM   30  C   UNL     1     -32.941  38.738 -49.974  1.00  0.00     0.180 C 
HETATM   31  C   UNL     1     -31.908  39.341 -49.019  1.00  0.00     0.039 C 
HETATM   32  C   UNL     1     -32.229  38.272 -51.246  1.00  0.00     0.039 C 
ENDBRANCH  26  30
ENDBRANCH   1  23
TORSDOF 6
ENDMDL
MODEL 5
REMARK VINA RESULT:      -7.2      6.230      9.614
REMARK  6 active torsions:
REMARK  status: ('A' for Active; 'I' for Inactive)
REMARK    1  A    between atoms: C_2  and  N_3 
REMARK    2  A    between atoms: C_7  and  N_8 
REMARK       I    between atoms: N_8  and  C_9 
REMARK       I    between atoms: C_9  and  N_10 
REMARK    3  A    between atoms: N_10  and  C_11 
REMARK    4  A    between atoms: C_11  and  C_12 
REMARK    5  A    between atoms: C_15  and  N_16 
REMARK       I    between atoms: N_16  and  C_17 
REMARK    6  A    between atoms: C_17  and  C_18 
ROOT
HETATM    1  N   UNL     1     -44.574  59.215 -57.331  1.00  0.00    -0.338 N 
HETATM    2  C   UNL     1     -43.769  58.944 -56.248  1.00  0.00     0.316 C 
HETATM    3  N   UNL     1     -44.522  58.655 -55.141  1.00  0.00    -0.339 N 
HETATM    4  O   UNL     1     -42.553  59.041 -56.253  1.00  0.00    -0.247 OA
HETATM    5  H   UNL     1     -45.351  58.563 -57.354  1.00  0.00     0.164 HD
HETATM    6  H   UNL     1     -45.509  58.857 -55.176  1.00  0.00     0.164 HD
ENDROOT
BRANCH   3   7
HETATM    7  C   UNL     1     -43.916  58.634 -53.824  1.00  0.00     0.162 C 
BRANCH   7   8
HETATM    8  C   UNL     1     -43.198  57.337 -53.513  1.00  0.00    -0.040 A 
HETATM    9  C   UNL     1     -41.905  57.295 -52.971  1.00  0.00     0.011 A 
HETATM   10  C   UNL     1     -41.250  56.075 -52.766  1.00  0.00     0.030 A 
HETATM   11  C   UNL     1     -41.883  54.871 -53.070  1.00  0.00     0.035 A 
HETATM   12  C   UNL     1     -43.202  54.903 -53.534  1.00  0.00     0.030 A 
HETATM   13  C   UNL     1     -43.851  56.122 -53.759  1.00  0.00     0.011 A 
BRANCH  11  14
HETATM   14  N   UNL     1     -41.271  53.613 -52.951  1.00  0.00    -0.321 N 
HETATM   15  C   UNL     1     -40.432  52.980 -53.853  1.00  0.00     0.279 C 
HETATM   16  O   UNL     1     -40.072  53.444 -54.931  1.00  0.00    -0.265 OA
HETATM   17  H   UNL     1     -41.527  53.046 -52.147  1.00  0.00     0.169 HD
BRANCH  15  18
HETATM   18  C   UNL     1     -40.045  51.652 -53.409  1.00  0.00     0.142 A 
HETATM   19  O   UNL     1     -39.792  51.439 -52.076  1.00  0.00    -0.317 OA
HETATM   20  C   UNL     1     -39.471  50.127 -51.934  1.00  0.00     0.143 A 
HETATM   21  C   UNL     1     -39.514  49.486 -53.148  1.00  0.00     0.027 A 
HETATM   22  C   UNL     1     -39.882  50.467 -54.100  1.00  0.00     0.045 A 
ENDBRANCH  15  18
ENDBRANCH  11  14
ENDBRANCH   7   8
ENDBRANCH   3   7
BRANCH   1  23
HETATM   23  C   UNL     1     -44.049  59.600 -58.645  1.00  0.00     0.089 C 
HETATM   24  C   UNL     1     -45.088  59.809 -59.749  1.00  0.00     0.053 C 
HETATM   25  C   UNL     1     -45.873  58.542 -60.032  1.00  0.00     0.237 C 
HETATM   26  N   UNL     1     -44.926  57.427 -60.474  1.00  0.00    -0.067 N 
HETATM   27  H   UNL     1     -44.485  57.736 -61.350  1.00  0.00     0.280 HD
HETATM   28  C   UNL     1     -43.823  57.215 -59.451  1.00  0.00     0.237 C 
HETATM   29  C   UNL     1     -43.089  58.514 -59.130  1.00  0.00     0.053 C 
BRANCH  26  30
HETATM   30  C   UNL     1     -45.693  56.125 -60.798  1.00  0.00     0.180 C 
HETATM   31  C   UNL     1     -47.160  56.254 -60.380  1.00  0.00     0.039 C 
HETATM   32  C   UNL     1     -45.067  54.943 -60.054  1.00  0.00     0.039 C 
ENDBRANCH  26  30
ENDBRANCH   1  23
TORSDOF 6
ENDMDL
MODEL 6
REMARK VINA RESULT:      -7.1     19.716     22.060
REMARK  6 active torsions:
REMARK  status: ('A' for Active; 'I' for Inactive)
REMARK    1  A    between atoms: C_2  and  N_3 
REMARK    2  A    between atoms: C_7  and  N_8 
REMARK       I    between atoms: N_8  and  C_9 
REMARK       I    between atoms: C_9  and  N_10 
REMARK    3  A    between atoms: N_10  and  C_11 
REMARK    4  A    between atoms: C_11  and  C_12 
REMARK    5  A    between atoms: C_15  and  N_16 
REMARK       I    between atoms: N_16  and  C_17 
REMARK    6  A    between atoms: C_17  and  C_18 
ROOT
HETATM    1  N   UNL     1     -33.952  39.834 -53.482  1.00  0.00    -0.338 N 
HETATM    2  C   UNL     1     -33.973  40.745 -54.515  1.00  0.00     0.316 C 
HETATM    3  N   UNL     1     -34.909  41.718 -54.287  1.00  0.00    -0.339 N 
HETATM    4  O   UNL     1     -33.311  40.644 -55.535  1.00  0.00    -0.247 OA
HETATM    5  H   UNL     1     -34.032  40.317 -52.595  1.00  0.00     0.164 HD
HETATM    6  H   UNL     1     -35.578  41.566 -53.548  1.00  0.00     0.164 HD
ENDROOT
BRANCH   3   7
HETATM    7  C   UNL     1     -35.323  42.605 -55.357  1.00  0.00     0.162 C 
BRANCH   7   8
HETATM    8  C   UNL     1     -36.271  41.955 -56.345  1.00  0.00    -0.040 A 
HETATM    9  C   UNL     1     -37.506  41.409 -55.966  1.00  0.00     0.011 A 
HETATM   10  C   UNL     1     -38.318  40.753 -56.897  1.00  0.00     0.030 A 
HETATM   11  C   UNL     1     -37.928  40.655 -58.232  1.00  0.00     0.035 A 
HETATM   12  C   UNL     1     -36.738  41.268 -58.632  1.00  0.00     0.030 A 
HETATM   13  C   UNL     1     -35.914  41.906 -57.698  1.00  0.00     0.011 A 
BRANCH  11  14
HETATM   14  N   UNL     1     -38.658  39.961 -59.211  1.00  0.00    -0.321 N 
HETATM   15  C   UNL     1     -38.705  38.596 -59.437  1.00  0.00     0.279 C 
HETATM   16  O   UNL     1     -38.103  37.749 -58.784  1.00  0.00    -0.265 OA
HETATM   17  H   UNL     1     -39.155  40.518 -59.901  1.00  0.00     0.169 HD
BRANCH  15  18
HETATM   18  C   UNL     1     -39.524  38.253 -60.587  1.00  0.00     0.142 A 
HETATM   19  O   UNL     1     -40.883  38.131 -60.429  1.00  0.00    -0.317 OA
HETATM   20  C   UNL     1     -41.402  37.825 -61.646  1.00  0.00     0.143 A 
HETATM   21  C   UNL     1     -40.407  37.750 -62.590  1.00  0.00     0.027 A 
HETATM   22  C   UNL     1     -39.196  38.024 -61.909  1.00  0.00     0.045 A 
ENDBRANCH  15  18
ENDBRANCH  11  14
ENDBRANCH   7   8
ENDBRANCH   3   7
BRANCH   1  23
HETATM   23  C   UNL     1     -33.080  38.656 -53.470  1.00  0.00     0.089 C 
HETATM   24  C   UNL     1     -33.600  37.444 -52.694  1.00  0.00     0.053 C 
HETATM   25  C   UNL     1     -33.801  37.759 -51.223  1.00  0.00     0.237 C 
HETATM   26  N   UNL     1     -32.477  38.195 -50.595  1.00  0.00    -0.067 N 
HETATM   27  H   UNL     1     -31.832  37.397 -50.668  1.00  0.00     0.280 HD
HETATM   28  C   UNL     1     -31.869  39.355 -51.364  1.00  0.00     0.237 C 
HETATM   29  C   UNL     1     -31.736  39.043 -52.853  1.00  0.00     0.053 C 
BRANCH  26  30
HETATM   30  C   UNL     1     -32.636  38.499 -49.089  1.00  0.00     0.180 C 
HETATM   31  C   UNL     1     -34.119  38.546 -48.708  1.00  0.00     0.039 C 
HETATM   32  C   UNL     1     -31.996  39.848 -48.751  1.00  0.00     0.039 C 
ENDBRANCH  26  30
ENDBRANCH   1  23
TORSDOF 6
ENDMDL
MODEL 7
REMARK VINA RESULT:      -7.0      5.572      8.672
REMARK  6 active torsions:
REMARK  status: ('A' for Active; 'I' for Inactive)
REMARK    1  A    between atoms: C_2  and  N_3 
REMARK    2  A    between atoms: C_7  and  N_8 
REMARK       I    between atoms: N_8  and  C_9 
REMARK       I    between atoms: C_9  and  N_10 
REMARK    3  A    between atoms: N_10  and  C_11 
REMARK    4  A    between atoms: C_11  and  C_12 
REMARK    5  A    between atoms: C_15  and  N_16 
REMARK       I    between atoms: N_16  and  C_17 
REMARK    6  A    between atoms: C_17  and  C_18 
ROOT
HETATM    1  N   UNL     1     -44.113  60.276 -56.135  1.00  0.00    -0.338 N 
HETATM    2  C   UNL     1     -44.265  59.863 -54.830  1.00  0.00     0.316 C 
HETATM    3  N   UNL     1     -43.074  59.927 -54.158  1.00  0.00    -0.339 N 
HETATM    4  O   UNL     1     -45.300  59.415 -54.366  1.00  0.00    -0.247 OA
HETATM    5  H   UNL     1     -43.508  61.088 -56.171  1.00  0.00     0.164 HD
HETATM    6  H   UNL     1     -42.233  60.060 -54.697  1.00  0.00     0.164 HD
ENDROOT
BRANCH   3   7
HETATM    7  C   UNL     1     -42.918  59.268 -52.875  1.00  0.00     0.162 C 
BRANCH   7   8
HETATM    8  C   UNL     1     -42.340  57.871 -52.983  1.00  0.00    -0.040 A 
HETATM    9  C   UNL     1     -41.144  57.593 -53.660  1.00  0.00     0.011 A 
HETATM   10  C   UNL     1     -40.684  56.279 -53.798  1.00  0.00     0.030 A 
HETATM   11  C   UNL     1     -41.394  55.218 -53.238  1.00  0.00     0.035 A 
HETATM   12  C   UNL     1     -42.543  55.496 -52.492  1.00  0.00     0.030 A 
HETATM   13  C   UNL     1     -43.016  56.807 -52.371  1.00  0.00     0.011 A 
BRANCH  11  14
HETATM   14  N   UNL     1     -41.030  53.869 -53.385  1.00  0.00    -0.321 N 
HETATM   15  C   UNL     1     -40.283  53.084 -52.522  1.00  0.00     0.279 C 
HETATM   16  O   UNL     1     -39.818  53.458 -51.449  1.00  0.00    -0.265 OA
HETATM   17  H   UNL     1     -41.264  53.419 -54.265  1.00  0.00     0.169 HD
BRANCH  15  18
HETATM   18  C   UNL     1     -40.057  51.748 -53.046  1.00  0.00     0.142 A 
HETATM   19  O   UNL     1     -39.730  50.736 -52.178  1.00  0.00    -0.317 OA
HETATM   20  C   UNL     1     -39.591  49.604 -52.916  1.00  0.00     0.143 A 
HETATM   21  C   UNL     1     -39.824  49.864 -54.245  1.00  0.00     0.027 A 
HETATM   22  C   UNL     1     -40.123  51.246 -54.331  1.00  0.00     0.045 A 
ENDBRANCH  15  18
ENDBRANCH  11  14
ENDBRANCH   7   8
ENDBRANCH   3   7
BRANCH   1  23
HETATM   23  C   UNL     1     -45.209  60.273 -57.109  1.00  0.00     0.089 C 
HETATM   24  C   UNL     1     -45.867  58.917 -57.376  1.00  0.00     0.053 C 
HETATM   25  C   UNL     1     -44.881  57.911 -57.939  1.00  0.00     0.237 C 
HETATM   26  N   UNL     1     -44.302  58.426 -59.257  1.00  0.00    -0.067 N 
HETATM   27  H   UNL     1     -45.086  58.514 -59.916  1.00  0.00     0.280 HD
HETATM   28  C   UNL     1     -43.692  59.806 -59.077  1.00  0.00     0.237 C 
HETATM   29  C   UNL     1     -44.679  60.787 -58.448  1.00  0.00     0.053 C 
BRANCH  26  30
HETATM   30  C   UNL     1     -43.312  57.415 -59.876  1.00  0.00     0.180 C 
HETATM   31  C   UNL     1     -43.078  56.244 -58.918  1.00  0.00     0.039 C 
HETATM   32  C   UNL     1     -41.972  58.096 -60.163  1.00  0.00     0.039 C 
ENDBRANCH  26  30
ENDBRANCH   1  23
TORSDOF 6
ENDMDL
MODEL 8
REMARK VINA RESULT:      -7.0     19.321     22.556
REMARK  6 active torsions:
REMARK  status: ('A' for Active; 'I' for Inactive)
REMARK    1  A    between atoms: C_2  and  N_3 
REMARK    2  A    between atoms: C_7  and  N_8 
REMARK       I    between atoms: N_8  and  C_9 
REMARK       I    between atoms: C_9  and  N_10 
REMARK    3  A    between atoms: N_10  and  C_11 
REMARK    4  A    between atoms: C_11  and  C_12 
REMARK    5  A    between atoms: C_15  and  N_16 
REMARK       I    between atoms: N_16  and  C_17 
REMARK    6  A    between atoms: C_17  and  C_18 
ROOT
HETATM    1  N   UNL     1     -35.798  41.258 -54.736  1.00  0.00    -0.338 N 
HETATM    2  C   UNL     1     -35.829  41.538 -53.388  1.00  0.00     0.316 C 
HETATM    3  N   UNL     1     -35.643  40.400 -52.650  1.00  0.00    -0.339 N 
HETATM    4  O   UNL     1     -36.080  42.636 -52.919  1.00  0.00    -0.247 OA
HETATM    5  H   UNL     1     -35.058  40.595 -54.933  1.00  0.00     0.164 HD
HETATM    6  H   UNL     1     -35.706  39.513 -53.125  1.00  0.00     0.164 HD
ENDROOT
BRANCH   3   7
HETATM    7  C   UNL     1     -35.932  40.390 -51.229  1.00  0.00     0.162 C 
BRANCH   7   8
HETATM    8  C   UNL     1     -34.783  39.879 -50.384  1.00  0.00    -0.040 A 
HETATM    9  C   UNL     1     -34.943  38.894 -49.400  1.00  0.00     0.011 A 
HETATM   10  C   UNL     1     -33.869  38.502 -48.592  1.00  0.00     0.030 A 
HETATM   11  C   UNL     1     -32.606  39.065 -48.772  1.00  0.00     0.035 A 
HETATM   12  C   UNL     1     -32.422  39.988 -49.805  1.00  0.00     0.030 A 
HETATM   13  C   UNL     1     -33.499  40.396 -50.600  1.00  0.00     0.011 A 
BRANCH  11  14
HETATM   14  N   UNL     1     -31.496  38.770 -47.964  1.00  0.00    -0.321 N 
HETATM   15  C   UNL     1     -30.687  39.651 -47.264  1.00  0.00     0.279 C 
HETATM   16  O   UNL     1     -30.830  40.870 -47.233  1.00  0.00    -0.265 OA
HETATM   17  H   UNL     1     -31.181  37.804 -47.942  1.00  0.00     0.169 HD
BRANCH  15  18
HETATM   18  C   UNL     1     -29.592  38.978 -46.589  1.00  0.00     0.142 A 
HETATM   19  O   UNL     1     -29.582  37.606 -46.532  1.00  0.00    -0.317 OA
HETATM   20  C   UNL     1     -28.455  37.240 -45.868  1.00  0.00     0.143 A 
HETATM   21  C   UNL     1     -27.733  38.349 -45.496  1.00  0.00     0.027 A 
HETATM   22  C   UNL     1     -28.465  39.469 -45.957  1.00  0.00     0.045 A 
ENDBRANCH  15  18
ENDBRANCH  11  14
ENDBRANCH   7   8
ENDBRANCH   3   7
BRANCH   1  23
HETATM   23  C   UNL     1     -36.012  42.275 -55.771  1.00  0.00     0.089 C 
HETATM   24  C   UNL     1     -37.393  42.281 -56.430  1.00  0.00     0.053 C 
HETATM   25  C   UNL     1     -37.685  40.973 -57.142  1.00  0.00     0.237 C 
HETATM   26  N   UNL     1     -36.640  40.724 -58.230  1.00  0.00    -0.067 N 
HETATM   27  H   UNL     1     -36.726  41.489 -58.911  1.00  0.00     0.280 HD
HETATM   28  C   UNL     1     -35.235  40.775 -57.652  1.00  0.00     0.237 C 
HETATM   29  C   UNL     1     -34.984  42.070 -56.883  1.00  0.00     0.053 C 
BRANCH  26  30
HETATM   30  C   UNL     1     -36.918  39.412 -58.996  1.00  0.00     0.180 C 
HETATM   31  C   UNL     1     -37.010  39.684 -60.500  1.00  0.00     0.039 C 
HETATM   32  C   UNL     1     -38.236  38.793 -58.524  1.00  0.00     0.039 C 
ENDBRANCH  26  30
ENDBRANCH   1  23
TORSDOF 6
ENDMDL
MODEL 9
REMARK VINA RESULT:      -6.9      7.974     12.336
REMARK  6 active torsions:
REMARK  status: ('A' for Active; 'I' for Inactive)
REMARK    1  A    between atoms: C_2  and  N_3 
REMARK    2  A    between atoms: C_7  and  N_8 
REMARK       I    between atoms: N_8  and  C_9 
REMARK       I    between atoms: C_9  and  N_10 
REMARK    3  A    between atoms: N_10  and  C_11 
REMARK    4  A    between atoms: C_11  and  C_12 
REMARK    5  A    between atoms: C_15  and  N_16 
REMARK       I    between atoms: N_16  and  C_17 
REMARK    6  A    between atoms: C_17  and  C_18 
ROOT
HETATM    1  N   UNL     1     -43.043  55.293 -55.584  1.00  0.00    -0.338 N 
HETATM    2  C   UNL     1     -43.080  56.024 -56.750  1.00  0.00     0.316 C 
HETATM    3  N   UNL     1     -43.576  55.271 -57.781  1.00  0.00    -0.339 N 
HETATM    4  O   UNL     1     -42.644  57.157 -56.867  1.00  0.00    -0.247 OA
HETATM    5  H   UNL     1     -43.887  54.739 -55.498  1.00  0.00     0.164 HD
HETATM    6  H   UNL     1     -43.661  54.277 -57.641  1.00  0.00     0.164 HD
ENDROOT
BRANCH   3   7
HETATM    7  C   UNL     1     -43.431  55.717 -59.154  1.00  0.00     0.162 C 
BRANCH   7   8
HETATM    8  C   UNL     1     -44.717  56.252 -59.751  1.00  0.00    -0.040 A 
HETATM    9  C   UNL     1     -45.664  55.428 -60.375  1.00  0.00     0.011 A 
HETATM   10  C   UNL     1     -46.804  55.971 -60.979  1.00  0.00     0.030 A 
HETATM   11  C   UNL     1     -47.036  57.346 -60.945  1.00  0.00     0.035 A 
HETATM   12  C   UNL     1     -46.137  58.163 -60.254  1.00  0.00     0.030 A 
HETATM   13  C   UNL     1     -44.986  57.624 -59.668  1.00  0.00     0.011 A 
BRANCH  11  14
HETATM   14  N   UNL     1     -48.122  57.972 -61.578  1.00  0.00    -0.321 N 
HETATM   15  C   UNL     1     -48.993  57.436 -62.513  1.00  0.00     0.279 C 
HETATM   16  O   UNL     1     -48.955  56.285 -62.938  1.00  0.00    -0.265 OA
HETATM   17  H   UNL     1     -48.252  58.964 -61.405  1.00  0.00     0.169 HD
BRANCH  15  18
HETATM   18  C   UNL     1     -49.957  58.411 -62.993  1.00  0.00     0.142 A 
HETATM   19  O   UNL     1     -51.117  58.611 -62.285  1.00  0.00    -0.317 OA
HETATM   20  C   UNL     1     -51.822  59.573 -62.934  1.00  0.00     0.143 A 
HETATM   21  C   UNL     1     -51.141  60.002 -64.046  1.00  0.00     0.027 A 
HETATM   22  C   UNL     1     -49.940  59.254 -64.088  1.00  0.00     0.045 A 
ENDBRANCH  15  18
ENDBRANCH  11  14
ENDBRANCH   7   8
ENDBRANCH   3   7
BRANCH   1  23
HETATM   23  C   UNL     1     -42.518  55.824 -54.322  1.00  0.00     0.089 C 
HETATM   24  C   UNL     1     -41.004  56.044 -54.264  1.00  0.00     0.053 C 
HETATM   25  C   UNL     1     -40.238  54.750 -54.459  1.00  0.00     0.237 C 
HETATM   26  N   UNL     1     -40.614  53.748 -53.367  1.00  0.00    -0.067 N 
HETATM   27  H   UNL     1     -40.330  54.161 -52.469  1.00  0.00     0.280 HD
HETATM   28  C   UNL     1     -42.118  53.536 -53.323  1.00  0.00     0.237 C 
HETATM   29  C   UNL     1     -42.875  54.856 -53.194  1.00  0.00     0.053 C 
BRANCH  26  30
HETATM   30  C   UNL     1     -39.833  52.424 -53.516  1.00  0.00     0.180 C 
HETATM   31  C   UNL     1     -40.645  51.415 -54.332  1.00  0.00     0.039 C 
HETATM   32  C   UNL     1     -39.539  51.826 -52.138  1.00  0.00     0.039 C 
ENDBRANCH  26  30
ENDBRANCH   1  23
TORSDOF 6
ENDMDL
MODEL 10
REMARK VINA RESULT:      -6.9      2.177      3.423
REMARK  6 active torsions:
REMARK  status: ('A' for Active; 'I' for Inactive)
REMARK    1  A    between atoms: C_2  and  N_3 
REMARK    2  A    between atoms: C_7  and  N_8 
REMARK       I    between atoms: N_8  and  C_9 
REMARK       I    between atoms: C_9  and  N_10 
REMARK    3  A    between atoms: N_10  and  C_11 
REMARK    4  A    between atoms: C_11  and  C_12 
REMARK    5  A    between atoms: C_15  and  N_16 
REMARK       I    between atoms: N_16  and  C_17 
REMARK    6  A    between atoms: C_17  and  C_18 
ROOT
HETATM    1  N   UNL     1     -44.941  61.134 -51.690  1.00  0.00    -0.338 N 
HETATM    2  C   UNL     1     -44.562  60.762 -52.961  1.00  0.00     0.316 C 
HETATM    3  N   UNL     1     -45.060  59.525 -53.274  1.00  0.00    -0.339 N 
HETATM    4  O   UNL     1     -43.809  61.407 -53.671  1.00  0.00    -0.247 OA
HETATM    5  H   UNL     1     -45.909  60.879 -51.530  1.00  0.00     0.164 HD
HETATM    6  H   UNL     1     -45.447  58.969 -52.528  1.00  0.00     0.164 HD
ENDROOT
BRANCH   3   7
HETATM    7  C   UNL     1     -44.554  58.798 -54.423  1.00  0.00     0.162 C 
BRANCH   7   8
HETATM    8  C   UNL     1     -43.782  57.549 -54.052  1.00  0.00    -0.040 A 
HETATM    9  C   UNL     1     -42.586  57.584 -53.321  1.00  0.00     0.011 A 
HETATM   10  C   UNL     1     -41.866  56.413 -53.062  1.00  0.00     0.030 A 
HETATM   11  C   UNL     1     -42.341  55.178 -53.502  1.00  0.00     0.035 A 
HETATM   12  C   UNL     1     -43.573  55.127 -54.160  1.00  0.00     0.030 A 
HETATM   13  C   UNL     1     -44.284  56.299 -54.438  1.00  0.00     0.011 A 
BRANCH  11  14
HETATM   14  N   UNL     1     -41.647  53.968 -53.335  1.00  0.00    -0.321 N 
HETATM   15  C   UNL     1     -40.724  53.386 -54.188  1.00  0.00     0.279 C 
HETATM   16  O   UNL     1     -40.347  53.861 -55.255  1.00  0.00    -0.265 OA
HETATM   17  H   UNL     1     -41.900  53.394 -52.536  1.00  0.00     0.169 HD
BRANCH  15  18
HETATM   18  C   UNL     1     -40.265  52.094 -53.706  1.00  0.00     0.142 A 
HETATM   19  O   UNL     1     -39.880  51.967 -52.394  1.00  0.00    -0.317 OA
HETATM   20  C   UNL     1     -39.516  50.672 -52.206  1.00  0.00     0.143 A 
HETATM   21  C   UNL     1     -39.660  49.958 -53.371  1.00  0.00     0.027 A 
HETATM   22  C   UNL     1     -40.141  50.873 -54.339  1.00  0.00     0.045 A 
ENDBRANCH  15  18
ENDBRANCH  11  14
ENDBRANCH   7   8
ENDBRANCH   3   7
BRANCH   1  23
HETATM   23  C   UNL     1     -44.519  62.391 -51.064  1.00  0.00     0.089 C 
HETATM   24  C   UNL     1     -43.661  62.258 -49.803  1.00  0.00     0.053 C 
HETATM   25  C   UNL     1     -44.397  61.530 -48.694  1.00  0.00     0.237 C 
HETATM   26  N   UNL     1     -45.671  62.290 -48.324  1.00  0.00    -0.067 N 
HETATM   27  H   UNL     1     -45.381  63.211 -47.970  1.00  0.00     0.280 HD
HETATM   28  C   UNL     1     -46.540  62.519 -49.550  1.00  0.00     0.237 C 
HETATM   29  C   UNL     1     -45.763  63.192 -50.680  1.00  0.00     0.053 C 
BRANCH  26  30
HETATM   30  C   UNL     1     -46.436  61.593 -47.177  1.00  0.00     0.180 C 
HETATM   31  C   UNL     1     -47.010  62.633 -46.211  1.00  0.00     0.039 C 
HETATM   32  C   UNL     1     -45.497  60.664 -46.404  1.00  0.00     0.039 C 
ENDBRANCH  26  30
ENDBRANCH   1  23
TORSDOF 6
ENDMDL
