MODEL 1
REMARK VINA RESULT:      -7.8      0.000      0.000
REMARK  3 active torsions:
REMARK  status: ('A' for Active; 'I' for Inactive)
REMARK    1  A    between atoms: C_4  and  C_5 
REMARK    2  A    between atoms: C_5  and  N_6 
REMARK    3  A    between atoms: N_10  and  S_11 
ROOT
HETATM    1  N   UNL     1     -43.662  55.247 -52.723  1.00  0.00    -0.063 N 
HETATM    2  H   UNL     1     -43.423  54.787 -53.606  1.00  0.00     0.280 HD
HETATM    3  C   UNL     1     -43.414  57.103 -52.839  1.00  0.00     0.267 C 
HETATM    4  C   UNL     1     -42.004  57.707 -51.652  1.00  0.00     0.067 C 
HETATM    5  N   UNL     1     -42.373  58.936 -50.835  1.00  0.00    -0.300 N 
HETATM    6  C   UNL     1     -41.304  59.454 -49.932  1.00  0.00     0.136 C 
HETATM    7  C   UNL     1     -40.042  59.795 -50.720  1.00  0.00     0.021 C 
HETATM    8  C   UNL     1     -39.635  58.719 -51.720  1.00  0.00     0.004 C 
HETATM    9  C   UNL     1     -40.817  58.204 -52.548  1.00  0.00     0.033 C 
HETATM   10  C   UNL     1     -41.283  56.364 -50.485  1.00  0.00     0.035 C 
HETATM   11  C   UNL     1     -42.124  54.702 -50.108  1.00  0.00     0.030 C 
HETATM   12  C   UNL     1     -43.506  54.094 -51.279  1.00  0.00     0.235 C 
ENDROOT
BRANCH   5  13
HETATM   13  S   UNL     1     -43.560  60.068 -51.295  1.00  0.00     0.225 S 
HETATM   14  C   UNL     1     -43.326  61.469 -50.219  1.00  0.00     0.186 C 
HETATM   15  O   UNL     1     -43.259  60.544 -52.624  1.00  0.00    -0.206 OA
HETATM   16  O   UNL     1     -44.841  59.484 -50.970  1.00  0.00    -0.206 OA
ENDBRANCH   5  13
BRANCH   1  17
HETATM   17  C   UNL     1     -42.600  55.596 -52.004  1.00  0.00     0.299 C 
BRANCH  17  18
HETATM   18  C   UNL     1     -41.479  54.835 -53.355  1.00  0.00     0.079 A 
HETATM   19  O   UNL     1     -41.397  53.436 -53.296  1.00  0.00    -0.318 OA
HETATM   20  C   UNL     1     -40.572  52.983 -54.269  1.00  0.00     0.049 A 
HETATM   21  C   UNL     1     -40.304  51.531 -54.289  1.00  0.00     0.076 C 
HETATM   22  C   UNL     1     -40.141  54.028 -55.038  1.00  0.00     0.035 A 
HETATM   23  C   UNL     1     -40.725  55.198 -54.486  1.00  0.00     0.037 A 
ENDBRANCH  17  18
ENDBRANCH   1  17
TORSDOF 3
ENDMDL
MODEL 2
REMARK VINA RESULT:      -7.6      2.423      3.667
REMARK  3 active torsions:
REMARK  status: ('A' for Active; 'I' for Inactive)
REMARK    1  A    between atoms: C_4  and  C_5 
REMARK    2  A    between atoms: C_5  and  N_6 
REMARK    3  A    between atoms: N_10  and  S_11 
ROOT
HETATM    1  N   UNL     1     -40.228  55.395 -54.353  1.00  0.00    -0.063 N 
HETATM    2  H   UNL     1     -39.606  54.900 -53.707  1.00  0.00     0.280 HD
HETATM    3  C   UNL     1     -40.678  57.092 -53.690  1.00  0.00     0.267 C 
HETATM    4  C   UNL     1     -42.572  57.223 -53.296  1.00  0.00     0.067 C 
HETATM    5  N   UNL     1     -43.223  58.491 -53.826  1.00  0.00    -0.300 N 
HETATM    6  C   UNL     1     -44.675  58.648 -53.517  1.00  0.00     0.136 C 
HETATM    7  C   UNL     1     -44.920  58.605 -52.011  1.00  0.00     0.021 C 
HETATM    8  C   UNL     1     -44.184  57.474 -51.301  1.00  0.00     0.004 C 
HETATM    9  C   UNL     1     -42.721  57.354 -51.741  1.00  0.00     0.033 C 
HETATM   10  C   UNL     1     -43.624  55.704 -53.820  1.00  0.00     0.035 C 
HETATM   11  C   UNL     1     -43.050  54.367 -55.042  1.00  0.00     0.030 C 
HETATM   12  C   UNL     1     -41.184  54.224 -55.426  1.00  0.00     0.235 C 
ENDROOT
BRANCH   5  13
HETATM   13  S   UNL     1     -42.380  59.937 -54.147  1.00  0.00     0.225 S 
HETATM   14  C   UNL     1     -43.636  61.175 -54.401  1.00  0.00     0.186 C 
HETATM   15  O   UNL     1     -41.674  60.337 -52.953  1.00  0.00    -0.206 OA
HETATM   16  O   UNL     1     -41.698  59.749 -55.406  1.00  0.00    -0.206 OA
ENDBRANCH   5  13
BRANCH   1  17
HETATM   17  C   UNL     1     -41.499  55.396 -53.966  1.00  0.00     0.299 C 
BRANCH  17  18
HETATM   18  C   UNL     1     -40.997  54.373 -52.429  1.00  0.00     0.079 A 
HETATM   19  O   UNL     1     -40.383  53.151 -52.742  1.00  0.00    -0.318 OA
HETATM   20  C   UNL     1     -40.080  52.485 -51.604  1.00  0.00     0.049 A 
HETATM   21  C   UNL     1     -39.507  51.133 -51.758  1.00  0.00     0.076 C 
HETATM   22  C   UNL     1     -40.405  53.249 -50.517  1.00  0.00     0.035 A 
HETATM   23  C   UNL     1     -40.961  54.451 -51.026  1.00  0.00     0.037 A 
ENDBRANCH  17  18
ENDBRANCH   1  17
TORSDOF 3
ENDMDL
MODEL 3
REMARK VINA RESULT:      -7.2      1.726      2.228
REMARK  3 active torsions:
REMARK  status: ('A' for Active; 'I' for Inactive)
REMARK    1  A    between atoms: C_4  and  C_5 
REMARK    2  A    between atoms: C_5  and  N_6 
REMARK    3  A    between atoms: N_10  and  S_11 
ROOT
HETATM    1  N   UNL     1     -44.017  55.255 -50.944  1.00  0.00    -0.063 N 
HETATM    2  H   UNL     1     -44.175  54.543 -51.663  1.00  0.00     0.280 HD
HETATM    3  C   UNL     1     -44.867  56.867 -51.391  1.00  0.00     0.267 C 
HETATM    4  C   UNL     1     -43.582  58.285 -51.703  1.00  0.00     0.067 C 
HETATM    5  N   UNL     1     -43.930  59.594 -51.009  1.00  0.00    -0.300 N 
HETATM    6  C   UNL     1     -42.984  60.722 -51.250  1.00  0.00     0.136 C 
HETATM    7  C   UNL     1     -42.856  61.019 -52.742  1.00  0.00     0.021 C 
HETATM    8  C   UNL     1     -42.672  59.773 -53.601  1.00  0.00     0.004 C 
HETATM    9  C   UNL     1     -43.644  58.649 -53.227  1.00  0.00     0.033 C 
HETATM   10  C   UNL     1     -41.754  57.834 -51.323  1.00  0.00     0.035 C 
HETATM   11  C   UNL     1     -41.209  56.340 -50.284  1.00  0.00     0.030 C 
HETATM   12  C   UNL     1     -42.466  54.933 -49.981  1.00  0.00     0.235 C 
ENDROOT
BRANCH   5  13
HETATM   13  S   UNL     1     -45.509  60.042 -50.553  1.00  0.00     0.225 S 
HETATM   14  C   UNL     1     -45.383  61.730 -49.996  1.00  0.00     0.186 C 
HETATM   15  O   UNL     1     -46.341  60.082 -51.732  1.00  0.00    -0.206 OA
HETATM   16  O   UNL     1     -45.856  59.234 -49.406  1.00  0.00    -0.206 OA
ENDBRANCH   5  13
BRANCH   1  17
HETATM   17  C   UNL     1     -43.102  56.156 -51.285  1.00  0.00     0.299 C 
BRANCH  17  18
HETATM   18  C   UNL     1     -42.858  55.231 -52.941  1.00  0.00     0.079 A 
HETATM   19  O   UNL     1     -41.943  54.171 -52.864  1.00  0.00    -0.318 OA
HETATM   20  C   UNL     1     -41.814  53.586 -54.078  1.00  0.00     0.049 A 
HETATM   21  C   UNL     1     -40.816  52.504 -54.192  1.00  0.00     0.076 C 
HETATM   22  C   UNL     1     -42.669  54.172 -54.971  1.00  0.00     0.035 A 
HETATM   23  C   UNL     1     -43.350  55.194 -54.259  1.00  0.00     0.037 A 
ENDBRANCH  17  18
ENDBRANCH   1  17
TORSDOF 3
ENDMDL
MODEL 4
REMARK VINA RESULT:      -6.9      4.699      6.758
REMARK  3 active torsions:
REMARK  status: ('A' for Active; 'I' for Inactive)
REMARK    1  A    between atoms: C_4  and  C_5 
REMARK    2  A    between atoms: C_5  and  N_6 
REMARK    3  A    between atoms: N_10  and  S_11 
ROOT
HETATM    1  N   UNL     1     -42.705  56.641 -58.483  1.00  0.00    -0.063 N 
HETATM    2  H   UNL     1     -43.555  56.514 -59.040  1.00  0.00     0.280 HD
HETATM    3  C   UNL     1     -42.740  55.572 -56.942  1.00  0.00     0.267 C 
HETATM    4  C   UNL     1     -42.794  56.649 -55.330  1.00  0.00     0.067 C 
HETATM    5  N   UNL     1     -41.810  56.202 -54.259  1.00  0.00    -0.300 N 
HETATM    6  C   UNL     1     -41.842  56.984 -52.989  1.00  0.00     0.136 C 
HETATM    7  C   UNL     1     -43.235  56.958 -52.366  1.00  0.00     0.021 C 
HETATM    8  C   UNL     1     -44.358  57.221 -53.364  1.00  0.00     0.004 C 
HETATM    9  C   UNL     1     -44.194  56.424 -54.662  1.00  0.00     0.033 C 
HETATM   10  C   UNL     1     -42.616  58.542 -55.603  1.00  0.00     0.035 C 
HETATM   11  C   UNL     1     -41.963  59.342 -57.197  1.00  0.00     0.030 C 
HETATM   12  C   UNL     1     -41.918  58.291 -58.792  1.00  0.00     0.235 C 
ENDROOT
BRANCH   5  13
HETATM   13  S   UNL     1     -41.186  54.621 -54.135  1.00  0.00     0.225 S 
HETATM   14  C   UNL     1     -40.658  54.449 -52.442  1.00  0.00     0.186 C 
HETATM   15  O   UNL     1     -42.268  53.680 -54.302  1.00  0.00    -0.206 OA
HETATM   16  O   UNL     1     -40.004  54.575 -54.963  1.00  0.00    -0.206 OA
ENDBRANCH   5  13
BRANCH   1  17
HETATM   17  C   UNL     1     -42.883  57.412 -57.415  1.00  0.00     0.299 C 
BRANCH  17  18
HETATM   18  C   UNL     1     -44.707  57.657 -57.939  1.00  0.00     0.079 A 
HETATM   19  O   UNL     1     -45.105  56.827 -58.997  1.00  0.00    -0.318 OA
HETATM   20  C   UNL     1     -46.396  57.078 -59.318  1.00  0.00     0.049 A 
HETATM   21  C   UNL     1     -46.947  56.348 -60.477  1.00  0.00     0.076 C 
HETATM   22  C   UNL     1     -46.916  58.009 -58.461  1.00  0.00     0.035 A 
HETATM   23  C   UNL     1     -45.867  58.363 -57.573  1.00  0.00     0.037 A 
ENDBRANCH  17  18
ENDBRANCH   1  17
TORSDOF 3
ENDMDL
MODEL 5
REMARK VINA RESULT:      -6.7     17.015     18.826
REMARK  3 active torsions:
REMARK  status: ('A' for Active; 'I' for Inactive)
REMARK    1  A    between atoms: C_4  and  C_5 
REMARK    2  A    between atoms: C_5  and  N_6 
REMARK    3  A    between atoms: N_10  and  S_11 
ROOT
HETATM    1  N   UNL     1     -35.100  38.344 -56.996  1.00  0.00    -0.063 N 
HETATM    2  H   UNL     1     -35.755  38.523 -57.764  1.00  0.00     0.280 HD
HETATM    3  C   UNL     1     -35.938  38.554 -55.331  1.00  0.00     0.267 C 
HETATM    4  C   UNL     1     -35.186  40.041 -54.339  1.00  0.00     0.067 C 
HETATM    5  N   UNL     1     -34.877  39.716 -52.885  1.00  0.00    -0.300 N 
HETATM    6  C   UNL     1     -34.327  40.843 -52.076  1.00  0.00     0.136 C 
HETATM    7  C   UNL     1     -35.279  42.036 -52.083  1.00  0.00     0.021 C 
HETATM    8  C   UNL     1     -35.817  42.382 -53.467  1.00  0.00     0.004 C 
HETATM    9  C   UNL     1     -36.291  41.149 -54.242  1.00  0.00     0.033 C 
HETATM   10  C   UNL     1     -33.651  40.869 -55.142  1.00  0.00     0.035 C 
HETATM   11  C   UNL     1     -32.602  40.085 -56.519  1.00  0.00     0.030 C 
HETATM   12  C   UNL     1     -33.341  38.628 -57.509  1.00  0.00     0.235 C 
ENDROOT
BRANCH   5  13
HETATM   13  S   UNL     1     -35.645  38.480 -51.998  1.00  0.00     0.225 S 
HETATM   14  C   UNL     1     -35.245  38.798 -50.291  1.00  0.00     0.186 C 
HETATM   15  O   UNL     1     -37.075  38.653 -52.101  1.00  0.00    -0.206 OA
HETATM   16  O   UNL     1     -35.001  37.241 -52.369  1.00  0.00    -0.206 OA
ENDBRANCH   5  13
BRANCH   1  17
HETATM   17  C   UNL     1     -34.654  39.452 -56.414  1.00  0.00     0.299 C 
BRANCH  17  18
HETATM   18  C   UNL     1     -35.702  40.479 -57.642  1.00  0.00     0.079 A 
HETATM   19  O   UNL     1     -36.233  39.723 -58.698  1.00  0.00    -0.318 OA
HETATM   20  C   UNL     1     -36.940  40.525 -59.528  1.00  0.00     0.049 A 
HETATM   21  C   UNL     1     -37.493  39.899 -60.745  1.00  0.00     0.076 C 
HETATM   22  C   UNL     1     -36.967  41.800 -59.031  1.00  0.00     0.035 A 
HETATM   23  C   UNL     1     -36.210  41.776 -57.831  1.00  0.00     0.037 A 
ENDBRANCH  17  18
ENDBRANCH   1  17
TORSDOF 3
ENDMDL
MODEL 6
REMARK VINA RESULT:      -6.5      2.779      4.594
REMARK  3 active torsions:
REMARK  status: ('A' for Active; 'I' for Inactive)
REMARK    1  A    between atoms: C_4  and  C_5 
REMARK    2  A    between atoms: C_5  and  N_6 
REMARK    3  A    between atoms: N_10  and  S_11 
ROOT
HETATM    1  N   UNL     1     -43.037  57.989 -50.976  1.00  0.00    -0.063 N 
HETATM    2  H   UNL     1     -43.122  57.163 -50.376  1.00  0.00     0.280 HD
HETATM    3  C   UNL     1     -44.052  57.794 -52.542  1.00  0.00     0.267 C 
HETATM    4  C   UNL     1     -42.923  57.730 -54.118  1.00  0.00     0.067 C 
HETATM    5  N   UNL     1     -43.404  58.619 -55.255  1.00  0.00    -0.300 N 
HETATM    6  C   UNL     1     -42.581  58.575 -56.499  1.00  0.00     0.136 C 
HETATM    7  C   UNL     1     -42.490  57.152 -57.043  1.00  0.00     0.021 C 
HETATM    8  C   UNL     1     -42.179  56.107 -55.976  1.00  0.00     0.004 C 
HETATM    9  C   UNL     1     -43.027  56.283 -54.713  1.00  0.00     0.033 C 
HETATM   10  C   UNL     1     -41.057  58.058 -53.803  1.00  0.00     0.035 C 
HETATM   11  C   UNL     1     -40.356  58.853 -52.226  1.00  0.00     0.030 C 
HETATM   12  C   UNL     1     -41.458  58.909 -50.666  1.00  0.00     0.235 C 
ENDROOT
BRANCH   5  13
HETATM   13  S   UNL     1     -45.020  59.120 -55.458  1.00  0.00     0.225 S 
HETATM   14  C   UNL     1     -45.071  59.932 -57.043  1.00  0.00     0.186 C 
HETATM   15  O   UNL     1     -45.855  57.951 -55.593  1.00  0.00    -0.206 OA
HETATM   16  O   UNL     1     -45.274  60.124 -54.450  1.00  0.00    -0.206 OA
ENDBRANCH   5  13
BRANCH   1  17
HETATM   17  C   UNL     1     -42.223  57.809 -52.010  1.00  0.00     0.299 C 
BRANCH  17  18
HETATM   18  C   UNL     1     -41.949  56.004 -51.437  1.00  0.00     0.079 A 
HETATM   19  O   UNL     1     -40.877  55.853 -50.546  1.00  0.00    -0.318 OA
HETATM   20  C   UNL     1     -40.740  54.549 -50.209  1.00  0.00     0.049 A 
HETATM   21  C   UNL     1     -39.595  54.204 -49.343  1.00  0.00     0.076 C 
HETATM   22  C   UNL     1     -41.735  53.812 -50.789  1.00  0.00     0.035 A 
HETATM   23  C   UNL     1     -42.517  54.722 -51.546  1.00  0.00     0.037 A 
ENDBRANCH  17  18
ENDBRANCH   1  17
TORSDOF 3
ENDMDL
MODEL 7
REMARK VINA RESULT:      -6.4      2.339      3.862
REMARK  3 active torsions:
REMARK  status: ('A' for Active; 'I' for Inactive)
REMARK    1  A    between atoms: C_4  and  C_5 
REMARK    2  A    between atoms: C_5  and  N_6 
REMARK    3  A    between atoms: N_10  and  S_11 
ROOT
HETATM    1  N   UNL     1     -40.952  56.979 -53.910  1.00  0.00    -0.063 N 
HETATM    2  H   UNL     1     -40.389  56.333 -53.349  1.00  0.00     0.280 HD
HETATM    3  C   UNL     1     -41.531  58.438 -52.882  1.00  0.00     0.267 C 
HETATM    4  C   UNL     1     -43.461  58.452 -52.691  1.00  0.00     0.067 C 
HETATM    5  N   UNL     1     -44.094  59.812 -52.942  1.00  0.00    -0.300 N 
HETATM    6  C   UNL     1     -45.576  59.874 -52.773  1.00  0.00     0.136 C 
HETATM    7  C   UNL     1     -45.984  59.434 -51.370  1.00  0.00     0.021 C 
HETATM    8  C   UNL     1     -45.292  58.159 -50.901  1.00  0.00     0.004 C 
HETATM    9  C   UNL     1     -43.786  58.166 -51.184  1.00  0.00     0.033 C 
HETATM   10  C   UNL     1     -44.395  57.121 -53.714  1.00  0.00     0.035 C 
HETATM   11  C   UNL     1     -43.643  56.157 -55.167  1.00  0.00     0.030 C 
HETATM   12  C   UNL     1     -41.741  56.129 -55.356  1.00  0.00     0.235 C 
ENDROOT
BRANCH   5  13
HETATM   13  S   UNL     1     -43.272  61.294 -52.772  1.00  0.00     0.225 S 
HETATM   14  C   UNL     1     -44.536  62.549 -52.813  1.00  0.00     0.186 C 
HETATM   15  O   UNL     1     -42.701  61.360 -51.448  1.00  0.00    -0.206 OA
HETATM   16  O   UNL     1     -42.462  61.459 -53.958  1.00  0.00    -0.206 OA
ENDBRANCH   5  13
BRANCH   1  17
HETATM   17  C   UNL     1     -42.257  56.871 -53.687  1.00  0.00     0.299 C 
BRANCH  17  18
HETATM   18  C   UNL     1     -41.909  55.348 -52.584  1.00  0.00     0.079 A 
HETATM   19  O   UNL     1     -41.115  55.634 -51.463  1.00  0.00    -0.318 OA
HETATM   20  C   UNL     1     -40.900  54.503 -50.752  1.00  0.00     0.049 A 
HETATM   21  C   UNL     1     -40.004  54.613 -49.583  1.00  0.00     0.076 C 
HETATM   22  C   UNL     1     -41.584  53.461 -51.316  1.00  0.00     0.035 A 
HETATM   23  C   UNL     1     -42.243  53.987 -52.457  1.00  0.00     0.037 A 
ENDBRANCH  17  18
ENDBRANCH   1  17
TORSDOF 3
ENDMDL
MODEL 8
REMARK VINA RESULT:      -6.4      2.103      2.651
REMARK  3 active torsions:
REMARK  status: ('A' for Active; 'I' for Inactive)
REMARK    1  A    between atoms: C_4  and  C_5 
REMARK    2  A    between atoms: C_5  and  N_6 
REMARK    3  A    between atoms: N_10  and  S_11 
ROOT
HETATM    1  N   UNL     1     -42.664  53.911 -50.435  1.00  0.00    -0.063 N 
HETATM    2  H   UNL     1     -42.476  52.975 -50.806  1.00  0.00     0.280 HD
HETATM    3  C   UNL     1     -43.480  54.999 -51.727  1.00  0.00     0.267 C 
HETATM    4  C   UNL     1     -42.338  56.484 -52.230  1.00  0.00     0.067 C 
HETATM    5  N   UNL     1     -43.055  57.825 -52.268  1.00  0.00    -0.300 N 
HETATM    6  C   UNL     1     -42.220  58.991 -52.682  1.00  0.00     0.136 C 
HETATM    7  C   UNL     1     -41.610  58.762 -54.062  1.00  0.00     0.021 C 
HETATM    8  C   UNL     1     -40.994  57.378 -54.239  1.00  0.00     0.004 C 
HETATM    9  C   UNL     1     -41.901  56.258 -53.718  1.00  0.00     0.033 C 
HETATM   10  C   UNL     1     -40.723  56.659 -51.206  1.00  0.00     0.035 C 
HETATM   11  C   UNL     1     -40.412  55.811 -49.534  1.00  0.00     0.030 C 
HETATM   12  C   UNL     1     -41.525  54.340 -49.037  1.00  0.00     0.235 C 
ENDROOT
BRANCH   5  13
HETATM   13  S   UNL     1     -44.734  58.005 -52.496  1.00  0.00     0.225 S 
HETATM   14  C   UNL     1     -45.002  59.754 -52.708  1.00  0.00     0.186 C 
HETATM   15  O   UNL     1     -45.099  57.400 -53.755  1.00  0.00    -0.206 OA
HETATM   16  O   UNL     1     -45.366  57.619 -51.256  1.00  0.00    -0.206 OA
ENDBRANCH   5  13
BRANCH   1  17
HETATM   17  C   UNL     1     -41.797  54.828 -50.851  1.00  0.00     0.299 C 
BRANCH  17  18
HETATM   18  C   UNL     1     -40.688  53.423 -51.526  1.00  0.00     0.079 A 
HETATM   19  O   UNL     1     -41.013  53.028 -52.832  1.00  0.00    -0.318 OA
HETATM   20  C   UNL     1     -40.198  52.021 -53.224  1.00  0.00     0.049 A 
HETATM   21  C   UNL     1     -40.467  51.425 -54.548  1.00  0.00     0.076 C 
HETATM   22  C   UNL     1     -39.275  51.762 -52.248  1.00  0.00     0.035 A 
HETATM   23  C   UNL     1     -39.560  52.657 -51.183  1.00  0.00     0.037 A 
ENDBRANCH  17  18
ENDBRANCH   1  17
TORSDOF 3
ENDMDL
MODEL 9
REMARK VINA RESULT:      -6.4     17.433     18.847
REMARK  3 active torsions:
REMARK  status: ('A' for Active; 'I' for Inactive)
REMARK    1  A    between atoms: C_4  and  C_5 
REMARK    2  A    between atoms: C_5  and  N_6 
REMARK    3  A    between atoms: N_10  and  S_11 
ROOT
HETATM    1  N   UNL     1     -35.581  38.201 -52.772  1.00  0.00    -0.063 N 
HETATM    2  H   UNL     1     -34.665  38.074 -52.332  1.00  0.00     0.280 HD
HETATM    3  C   UNL     1     -35.418  38.369 -54.634  1.00  0.00     0.267 C 
HETATM    4  C   UNL     1     -35.962  40.129 -55.239  1.00  0.00     0.067 C 
HETATM    5  N   UNL     1     -36.887  40.105 -56.447  1.00  0.00    -0.300 N 
HETATM    6  C   UNL     1     -37.304  41.440 -56.966  1.00  0.00     0.136 C 
HETATM    7  C   UNL     1     -36.088  42.284 -57.341  1.00  0.00     0.021 C 
HETATM    8  C   UNL     1     -34.984  42.270 -56.289  1.00  0.00     0.004 C 
HETATM    9  C   UNL     1     -34.681  40.860 -55.770  1.00  0.00     0.033 C 
HETATM   10  C   UNL     1     -36.718  41.264 -53.887  1.00  0.00     0.035 C 
HETATM   11  C   UNL     1     -37.359  40.654 -52.205  1.00  0.00     0.030 C 
HETATM   12  C   UNL     1     -36.818  38.925 -51.597  1.00  0.00     0.235 C 
ENDROOT
BRANCH   5  13
HETATM   13  S   UNL     1     -36.960  38.824 -57.569  1.00  0.00     0.225 S 
HETATM   14  C   UNL     1     -38.056  39.382 -58.859  1.00  0.00     0.186 C 
HETATM   15  O   UNL     1     -35.667  38.678 -58.193  1.00  0.00    -0.206 OA
HETATM   16  O   UNL     1     -37.609  37.721 -56.898  1.00  0.00    -0.206 OA
ENDBRANCH   5  13
BRANCH   1  17
HETATM   17  C   UNL     1     -35.828  39.458 -53.125  1.00  0.00     0.299 C 
BRANCH  17  18
HETATM   18  C   UNL     1     -34.100  39.947 -52.466  1.00  0.00     0.079 A 
HETATM   19  O   UNL     1     -33.939  39.725 -51.090  1.00  0.00    -0.318 OA
HETATM   20  C   UNL     1     -32.702  40.115 -50.703  1.00  0.00     0.049 A 
HETATM   21  C   UNL     1     -32.400  40.032 -49.260  1.00  0.00     0.076 C 
HETATM   22  C   UNL     1     -31.984  40.532 -51.790  1.00  0.00     0.035 A 
HETATM   23  C   UNL     1     -32.847  40.408 -52.909  1.00  0.00     0.037 A 
ENDBRANCH  17  18
ENDBRANCH   1  17
TORSDOF 3
ENDMDL
MODEL 10
REMARK VINA RESULT:      -6.3      2.132      3.327
REMARK  3 active torsions:
REMARK  status: ('A' for Active; 'I' for Inactive)
REMARK    1  A    between atoms: C_4  and  C_5 
REMARK    2  A    between atoms: C_5  and  N_6 
REMARK    3  A    between atoms: N_10  and  S_11 
ROOT
HETATM    1  N   UNL     1     -42.691  56.454 -50.582  1.00  0.00    -0.063 N 
HETATM    2  H   UNL     1     -42.755  55.463 -50.834  1.00  0.00     0.280 HD
HETATM    3  C   UNL     1     -44.292  57.353 -50.969  1.00  0.00     0.267 C 
HETATM    4  C   UNL     1     -44.042  58.686 -52.355  1.00  0.00     0.067 C 
HETATM    5  N   UNL     1     -44.672  60.033 -52.034  1.00  0.00    -0.300 N 
HETATM    6  C   UNL     1     -44.531  61.079 -53.089  1.00  0.00     0.136 C 
HETATM    7  C   UNL     1     -45.126  60.603 -54.412  1.00  0.00     0.021 C 
HETATM    8  C   UNL     1     -44.719  59.184 -54.792  1.00  0.00     0.004 C 
HETATM    9  C   UNL     1     -44.833  58.203 -53.620  1.00  0.00     0.033 C 
HETATM   10  C   UNL     1     -42.225  58.954 -52.916  1.00  0.00     0.035 C 
HETATM   11  C   UNL     1     -40.701  58.376 -51.940  1.00  0.00     0.030 C 
HETATM   12  C   UNL     1     -40.937  57.055 -50.580  1.00  0.00     0.235 C 
ENDROOT
BRANCH   5  13
HETATM   13  S   UNL     1     -45.974  60.246 -50.956  1.00  0.00     0.225 S 
HETATM   14  C   UNL     1     -45.238  60.727 -49.406  1.00  0.00     0.186 C 
HETATM   15  O   UNL     1     -46.752  61.384 -51.387  1.00  0.00    -0.206 OA
HETATM   16  O   UNL     1     -46.573  58.945 -50.765  1.00  0.00    -0.206 OA
ENDBRANCH   5  13
BRANCH   1  17
HETATM   17  C   UNL     1     -42.507  57.253 -51.628  1.00  0.00     0.299 C 
BRANCH  17  18
HETATM   18  C   UNL     1     -42.466  55.710 -52.757  1.00  0.00     0.079 A 
HETATM   19  O   UNL     1     -41.403  54.837 -52.479  1.00  0.00    -0.318 OA
HETATM   20  C   UNL     1     -41.436  53.787 -53.333  1.00  0.00     0.049 A 
HETATM   21  C   UNL     1     -40.328  52.815 -53.233  1.00  0.00     0.076 C 
HETATM   22  C   UNL     1     -42.534  53.880 -54.143  1.00  0.00     0.035 A 
HETATM   23  C   UNL     1     -43.203  55.075 -53.773  1.00  0.00     0.037 A 
ENDBRANCH  17  18
ENDBRANCH   1  17
TORSDOF 3
ENDMDL
