MODEL 1
REMARK VINA RESULT:      -8.2      0.000      0.000
REMARK  5 active torsions:
REMARK  status: ('A' for Active; 'I' for Inactive)
REMARK    1  A    between atoms: C_2  and  N_3 
REMARK    2  A    between atoms: C_2  and  C_14 
REMARK       I    between atoms: N_3  and  C_4 
REMARK       I    between atoms: C_4  and  N_5 
REMARK    3  A    between atoms: N_5  and  C_6 
REMARK    4  A    between atoms: C_6  and  C_7 
REMARK    5  A    between atoms: C_16  and  C_17 
ROOT
HETATM    1  C   UNL     1     -43.291  55.819 -58.172  1.00  0.00     0.041 C 
HETATM    2  C   UNL     1     -42.826  56.474 -56.877  1.00  0.00     0.153 C 
ENDROOT
BRANCH   2   3
HETATM    3  N   UNL     1     -41.791  55.657 -56.252  1.00  0.00    -0.332 N 
HETATM    4  C   UNL     1     -41.843  55.331 -54.923  1.00  0.00     0.317 C 
HETATM    5  N   UNL     1     -40.770  54.586 -54.534  1.00  0.00    -0.339 N 
HETATM    6  O   UNL     1     -42.743  55.705 -54.181  1.00  0.00    -0.247 OA
HETATM    7  H   UNL     1     -40.251  54.104 -55.252  1.00  0.00     0.164 HD
HETATM    8  H   UNL     1     -40.875  55.680 -56.675  1.00  0.00     0.165 HD
BRANCH   5   9
HETATM    9  C   UNL     1     -40.637  54.080 -53.185  1.00  0.00     0.162 C 
BRANCH   9  10
HETATM   10  C   UNL     1     -40.302  52.610 -53.185  1.00  0.00    -0.040 A 
HETATM   11  C   UNL     1     -39.766  51.996 -52.044  1.00  0.00     0.009 A 
HETATM   12  C   UNL     1     -39.458  50.634 -52.051  1.00  0.00     0.001 A 
HETATM   13  C   UNL     1     -39.678  49.873 -53.198  1.00  0.00     0.000 A 
HETATM   14  C   UNL     1     -40.204  50.475 -54.340  1.00  0.00     0.001 A 
HETATM   15  C   UNL     1     -40.514  51.836 -54.335  1.00  0.00     0.009 A 
ENDBRANCH   9  10
ENDBRANCH   5   9
ENDBRANCH   2   3
BRANCH   2  16
HETATM   16  C   UNL     1     -42.322  57.864 -57.110  1.00  0.00     0.145 A 
HETATM   17  N   UNL     1     -42.016  58.468 -58.241  1.00  0.00    -0.210 NA
HETATM   18  C   UNL     1     -41.718  59.761 -57.861  1.00  0.00     0.181 A 
HETATM   19  N   UNL     1     -41.796  59.966 -56.536  1.00  0.00    -0.152 NA
HETATM   20  N   UNL     1     -42.178  58.760 -56.087  1.00  0.00    -0.261 N 
HETATM   21  H   UNL     1     -42.310  58.595 -55.090  1.00  0.00     0.190 HD
BRANCH  18  22
HETATM   22  C   UNL     1     -41.378  60.802 -58.828  1.00  0.00     0.014 A 
HETATM   23  C   UNL     1     -40.612  61.912 -58.436  1.00  0.00     0.017 A 
HETATM   24  C   UNL     1     -40.272  62.906 -59.360  1.00  0.00     0.025 A 
HETATM   25  C   UNL     1     -40.692  62.795 -60.684  1.00  0.00     0.034 A 
HETATM   26 CL   UNL     1     -40.271  64.016 -61.820  1.00  0.00    -0.084 Cl
HETATM   27  C   UNL     1     -41.450  61.700 -61.092  1.00  0.00     0.025 A 
HETATM   28  C   UNL     1     -41.792  60.708 -60.166  1.00  0.00     0.017 A 
ENDBRANCH  18  22
ENDBRANCH   2  16
TORSDOF 5
ENDMDL
MODEL 2
REMARK VINA RESULT:      -8.1      4.078      8.933
REMARK  5 active torsions:
REMARK  status: ('A' for Active; 'I' for Inactive)
REMARK    1  A    between atoms: C_2  and  N_3 
REMARK    2  A    between atoms: C_2  and  C_14 
REMARK       I    between atoms: N_3  and  C_4 
REMARK       I    between atoms: C_4  and  N_5 
REMARK    3  A    between atoms: N_5  and  C_6 
REMARK    4  A    between atoms: C_6  and  C_7 
REMARK    5  A    between atoms: C_16  and  C_17 
ROOT
HETATM    1  C   UNL     1     -41.259  59.338 -51.125  1.00  0.00     0.041 C 
HETATM    2  C   UNL     1     -41.964  58.406 -52.104  1.00  0.00     0.153 C 
ENDROOT
BRANCH   2   3
HETATM    3  N   UNL     1     -41.618  58.772 -53.473  1.00  0.00    -0.332 N 
HETATM    4  C   UNL     1     -42.575  58.889 -54.446  1.00  0.00     0.317 C 
HETATM    5  N   UNL     1     -42.041  59.213 -55.657  1.00  0.00    -0.339 N 
HETATM    6  O   UNL     1     -43.765  58.687 -54.235  1.00  0.00    -0.247 OA
HETATM    7  H   UNL     1     -41.121  59.625 -55.666  1.00  0.00     0.164 HD
HETATM    8  H   UNL     1     -40.685  58.545 -53.784  1.00  0.00     0.165 HD
BRANCH   5   9
HETATM    9  C   UNL     1     -42.868  59.440 -56.822  1.00  0.00     0.162 C 
BRANCH   9  10
HETATM   10  C   UNL     1     -42.731  58.313 -57.815  1.00  0.00    -0.040 A 
HETATM   11  C   UNL     1     -42.049  58.502 -59.026  1.00  0.00     0.009 A 
HETATM   12  C   UNL     1     -41.927  57.454 -59.941  1.00  0.00     0.001 A 
HETATM   13  C   UNL     1     -42.487  56.210 -59.658  1.00  0.00     0.000 A 
HETATM   14  C   UNL     1     -43.173  56.013 -58.460  1.00  0.00     0.001 A 
HETATM   15  C   UNL     1     -43.296  57.058 -57.544  1.00  0.00     0.009 A 
ENDBRANCH   9  10
ENDBRANCH   5   9
ENDBRANCH   2   3
BRANCH   2  16
HETATM   16  C   UNL     1     -41.621  56.971 -51.846  1.00  0.00     0.145 A 
HETATM   17  N   UNL     1     -41.394  55.996 -52.702  1.00  0.00    -0.210 NA
HETATM   18  C   UNL     1     -41.021  54.932 -51.906  1.00  0.00     0.181 A 
HETATM   19  N   UNL     1     -41.043  55.206 -50.592  1.00  0.00    -0.152 NA
HETATM   20  N   UNL     1     -41.424  56.493 -50.580  1.00  0.00    -0.261 N 
HETATM   21  H   UNL     1     -41.547  56.991 -49.699  1.00  0.00     0.190 HD
BRANCH  18  22
HETATM   22  C   UNL     1     -40.617  53.642 -52.463  1.00  0.00     0.014 A 
HETATM   23  C   UNL     1     -40.881  53.335 -53.807  1.00  0.00     0.017 A 
HETATM   24  C   UNL     1     -40.486  52.108 -54.350  1.00  0.00     0.025 A 
HETATM   25  C   UNL     1     -39.818  51.180 -53.553  1.00  0.00     0.034 A 
HETATM   26 CL   UNL     1     -39.329  49.672 -54.221  1.00  0.00    -0.084 Cl
HETATM   27  C   UNL     1     -39.545  51.468 -52.217  1.00  0.00     0.025 A 
HETATM   28  C   UNL     1     -39.944  52.694 -51.675  1.00  0.00     0.017 A 
ENDBRANCH  18  22
ENDBRANCH   2  16
TORSDOF 5
ENDMDL
MODEL 3
REMARK VINA RESULT:      -8.1      7.445     10.672
REMARK  5 active torsions:
REMARK  status: ('A' for Active; 'I' for Inactive)
REMARK    1  A    between atoms: C_2  and  N_3 
REMARK    2  A    between atoms: C_2  and  C_14 
REMARK       I    between atoms: N_3  and  C_4 
REMARK       I    between atoms: C_4  and  N_5 
REMARK    3  A    between atoms: N_5  and  C_6 
REMARK    4  A    between atoms: C_6  and  C_7 
REMARK    5  A    between atoms: C_16  and  C_17 
ROOT
HETATM    1  C   UNL     1     -41.628  59.183 -52.711  1.00  0.00     0.041 C 
HETATM    2  C   UNL     1     -41.743  58.683 -51.275  1.00  0.00     0.153 C 
ENDROOT
BRANCH   2   3
HETATM    3  N   UNL     1     -43.045  59.048 -50.726  1.00  0.00    -0.332 N 
HETATM    4  C   UNL     1     -43.352  60.347 -50.419  1.00  0.00     0.317 C 
HETATM    5  N   UNL     1     -44.604  60.469 -49.896  1.00  0.00    -0.339 N 
HETATM    6  O   UNL     1     -42.563  61.271 -50.573  1.00  0.00    -0.247 OA
HETATM    7  H   UNL     1     -45.258  59.722 -50.069  1.00  0.00     0.164 HD
HETATM    8  H   UNL     1     -43.540  58.334 -50.212  1.00  0.00     0.165 HD
BRANCH   5   9
HETATM    9  C   UNL     1     -45.165  61.756 -49.545  1.00  0.00     0.162 C 
BRANCH   9  10
HETATM   10  C   UNL     1     -45.133  61.976 -48.054  1.00  0.00    -0.040 A 
HETATM   11  C   UNL     1     -45.118  60.889 -47.167  1.00  0.00     0.009 A 
HETATM   12  C   UNL     1     -45.088  61.101 -45.788  1.00  0.00     0.001 A 
HETATM   13  C   UNL     1     -45.077  62.398 -45.279  1.00  0.00     0.000 A 
HETATM   14  C   UNL     1     -45.097  63.486 -46.150  1.00  0.00     0.001 A 
HETATM   15  C   UNL     1     -45.127  63.278 -47.530  1.00  0.00     0.009 A 
ENDBRANCH   9  10
ENDBRANCH   5   9
ENDBRANCH   2   3
BRANCH   2  16
HETATM   16  C   UNL     1     -41.538  57.202 -51.187  1.00  0.00     0.145 A 
HETATM   17  N   UNL     1     -41.237  56.338 -52.136  1.00  0.00    -0.210 NA
HETATM   18  C   UNL     1     -41.066  55.146 -51.461  1.00  0.00     0.181 A 
HETATM   19  N   UNL     1     -41.284  55.237 -50.140  1.00  0.00    -0.152 NA
HETATM   20  N   UNL     1     -41.579  56.538 -49.992  1.00  0.00    -0.261 N 
HETATM   21  H   UNL     1     -41.812  56.918 -49.076  1.00  0.00     0.190 HD
BRANCH  18  22
HETATM   22  C   UNL     1     -40.659  53.916 -52.138  1.00  0.00     0.014 A 
HETATM   23  C   UNL     1     -40.006  52.898 -51.425  1.00  0.00     0.017 A 
HETATM   24  C   UNL     1     -39.625  51.713 -52.063  1.00  0.00     0.025 A 
HETATM   25  C   UNL     1     -39.898  51.536 -53.418  1.00  0.00     0.034 A 
HETATM   26 CL   UNL     1     -39.431  50.077 -54.201  1.00  0.00    -0.084 Cl
HETATM   27  C   UNL     1     -40.546  52.534 -54.141  1.00  0.00     0.025 A 
HETATM   28  C   UNL     1     -40.924  53.720 -53.502  1.00  0.00     0.017 A 
ENDBRANCH  18  22
ENDBRANCH   2  16
TORSDOF 5
ENDMDL
MODEL 4
REMARK VINA RESULT:      -7.9      2.920      4.411
REMARK  5 active torsions:
REMARK  status: ('A' for Active; 'I' for Inactive)
REMARK    1  A    between atoms: C_2  and  N_3 
REMARK    2  A    between atoms: C_2  and  C_14 
REMARK       I    between atoms: N_3  and  C_4 
REMARK       I    between atoms: C_4  and  N_5 
REMARK    3  A    between atoms: N_5  and  C_6 
REMARK    4  A    between atoms: C_6  and  C_7 
REMARK    5  A    between atoms: C_16  and  C_17 
ROOT
HETATM    1  C   UNL     1     -44.441  56.827 -50.962  1.00  0.00     0.041 C 
HETATM    2  C   UNL     1     -43.155  56.391 -51.654  1.00  0.00     0.153 C 
ENDROOT
BRANCH   2   3
HETATM    3  N   UNL     1     -42.691  55.129 -51.087  1.00  0.00    -0.332 N 
HETATM    4  C   UNL     1     -41.415  54.678 -51.297  1.00  0.00     0.317 C 
HETATM    5  N   UNL     1     -41.192  53.471 -50.704  1.00  0.00    -0.339 N 
HETATM    6  O   UNL     1     -40.596  55.289 -51.971  1.00  0.00    -0.247 OA
HETATM    7  H   UNL     1     -41.813  53.195 -49.958  1.00  0.00     0.164 HD
HETATM    8  H   UNL     1     -43.392  54.427 -50.899  1.00  0.00     0.165 HD
BRANCH   5   9
HETATM    9  C   UNL     1     -39.899  52.823 -50.747  1.00  0.00     0.162 C 
BRANCH   9  10
HETATM   10  C   UNL     1     -39.848  51.781 -51.835  1.00  0.00    -0.040 A 
HETATM   11  C   UNL     1     -40.061  52.132 -53.176  1.00  0.00     0.009 A 
HETATM   12  C   UNL     1     -40.013  51.162 -54.179  1.00  0.00     0.001 A 
HETATM   13  C   UNL     1     -39.756  49.831 -53.853  1.00  0.00     0.000 A 
HETATM   14  C   UNL     1     -39.549  49.470 -52.522  1.00  0.00     0.001 A 
HETATM   15  C   UNL     1     -39.596  50.438 -51.518  1.00  0.00     0.009 A 
ENDBRANCH   9  10
ENDBRANCH   5   9
ENDBRANCH   2   3
BRANCH   2  16
HETATM   16  C   UNL     1     -43.340  56.259 -53.134  1.00  0.00     0.145 A 
HETATM   17  N   UNL     1     -42.918  57.043 -54.106  1.00  0.00    -0.210 NA
HETATM   18  C   UNL     1     -43.283  56.375 -55.257  1.00  0.00     0.181 A 
HETATM   19  N   UNL     1     -43.942  55.228 -55.030  1.00  0.00    -0.152 NA
HETATM   20  N   UNL     1     -43.966  55.177 -53.689  1.00  0.00    -0.261 N 
HETATM   21  H   UNL     1     -44.424  54.406 -53.206  1.00  0.00     0.190 HD
BRANCH  18  22
HETATM   22  C   UNL     1     -42.948  56.874 -56.590  1.00  0.00     0.014 A 
HETATM   23  C   UNL     1     -42.464  58.180 -56.758  1.00  0.00     0.017 A 
HETATM   24  C   UNL     1     -42.130  58.659 -58.029  1.00  0.00     0.025 A 
HETATM   25  C   UNL     1     -42.274  57.833 -59.141  1.00  0.00     0.034 A 
HETATM   26 CL   UNL     1     -41.860  58.422 -60.704  1.00  0.00    -0.084 Cl
HETATM   27  C   UNL     1     -42.751  56.532 -58.994  1.00  0.00     0.025 A 
HETATM   28  C   UNL     1     -43.087  56.056 -57.723  1.00  0.00     0.017 A 
ENDBRANCH  18  22
ENDBRANCH   2  16
TORSDOF 5
ENDMDL
MODEL 5
REMARK VINA RESULT:      -7.9      1.369      2.361
REMARK  5 active torsions:
REMARK  status: ('A' for Active; 'I' for Inactive)
REMARK    1  A    between atoms: C_2  and  N_3 
REMARK    2  A    between atoms: C_2  and  C_14 
REMARK       I    between atoms: N_3  and  C_4 
REMARK       I    between atoms: C_4  and  N_5 
REMARK    3  A    between atoms: N_5  and  C_6 
REMARK    4  A    between atoms: C_6  and  C_7 
REMARK    5  A    between atoms: C_16  and  C_17 
ROOT
HETATM    1  C   UNL     1     -43.961  55.081 -59.459  1.00  0.00     0.041 C 
HETATM    2  C   UNL     1     -43.671  56.148 -58.410  1.00  0.00     0.153 C 
ENDROOT
BRANCH   2   3
HETATM    3  N   UNL     1     -42.535  55.741 -57.589  1.00  0.00    -0.332 N 
HETATM    4  C   UNL     1     -42.543  55.900 -56.229  1.00  0.00     0.317 C 
HETATM    5  N   UNL     1     -41.380  55.481 -55.656  1.00  0.00    -0.339 N 
HETATM    6  O   UNL     1     -43.485  56.396 -55.623  1.00  0.00    -0.247 OA
HETATM    7  H   UNL     1     -40.801  54.846 -56.184  1.00  0.00     0.164 HD
HETATM    8  H   UNL     1     -41.631  55.728 -58.036  1.00  0.00     0.165 HD
BRANCH   5   9
HETATM    9  C   UNL     1     -41.180  55.504 -54.223  1.00  0.00     0.162 C 
BRANCH   9  10
HETATM   10  C   UNL     1     -40.694  54.169 -53.719  1.00  0.00    -0.040 A 
HETATM   11  C   UNL     1     -40.331  53.152 -54.615  1.00  0.00     0.009 A 
HETATM   12  C   UNL     1     -39.882  51.918 -54.141  1.00  0.00     0.001 A 
HETATM   13  C   UNL     1     -39.794  51.685 -52.770  1.00  0.00     0.000 A 
HETATM   14  C   UNL     1     -40.159  52.686 -51.870  1.00  0.00     0.001 A 
HETATM   15  C   UNL     1     -40.607  53.921 -52.341  1.00  0.00     0.009 A 
ENDBRANCH   9  10
ENDBRANCH   5   9
ENDBRANCH   2   3
BRANCH   2  16
HETATM   16  C   UNL     1     -43.408  57.483 -59.037  1.00  0.00     0.145 A 
HETATM   17  N   UNL     1     -42.530  58.408 -58.705  1.00  0.00    -0.210 NA
HETATM   18  C   UNL     1     -42.662  59.364 -59.691  1.00  0.00     0.181 A 
HETATM   19  N   UNL     1     -43.611  59.078 -60.597  1.00  0.00    -0.152 NA
HETATM   20  N   UNL     1     -44.065  57.892 -60.164  1.00  0.00    -0.261 N 
HETATM   21  H   UNL     1     -44.821  57.415 -60.653  1.00  0.00     0.190 HD
BRANCH  18  22
HETATM   22  C   UNL     1     -41.819  60.557 -59.743  1.00  0.00     0.014 A 
HETATM   23  C   UNL     1     -41.568  61.196 -60.967  1.00  0.00     0.017 A 
HETATM   24  C   UNL     1     -40.773  62.345 -61.022  1.00  0.00     0.025 A 
HETATM   25  C   UNL     1     -40.225  62.866 -59.851  1.00  0.00     0.034 A 
HETATM   26 CL   UNL     1     -39.248  64.281 -59.919  1.00  0.00    -0.084 Cl
HETATM   27  C   UNL     1     -40.464  62.246 -58.627  1.00  0.00     0.025 A 
HETATM   28  C   UNL     1     -41.257  61.095 -58.574  1.00  0.00     0.017 A 
ENDBRANCH  18  22
ENDBRANCH   2  16
TORSDOF 5
ENDMDL
MODEL 6
REMARK VINA RESULT:      -7.9      4.597      8.941
REMARK  5 active torsions:
REMARK  status: ('A' for Active; 'I' for Inactive)
REMARK    1  A    between atoms: C_2  and  N_3 
REMARK    2  A    between atoms: C_2  and  C_14 
REMARK       I    between atoms: N_3  and  C_4 
REMARK       I    between atoms: C_4  and  N_5 
REMARK    3  A    between atoms: N_5  and  C_6 
REMARK    4  A    between atoms: C_6  and  C_7 
REMARK    5  A    between atoms: C_16  and  C_17 
ROOT
HETATM    1  C   UNL     1     -40.815  59.173 -53.237  1.00  0.00     0.041 C 
HETATM    2  C   UNL     1     -41.999  58.279 -53.588  1.00  0.00     0.153 C 
ENDROOT
BRANCH   2   3
HETATM    3  N   UNL     1     -42.195  58.262 -55.034  1.00  0.00    -0.332 N 
HETATM    4  C   UNL     1     -43.448  58.310 -55.586  1.00  0.00     0.317 C 
HETATM    5  N   UNL     1     -43.412  58.257 -56.947  1.00  0.00    -0.339 N 
HETATM    6  O   UNL     1     -44.469  58.359 -54.912  1.00  0.00    -0.247 OA
HETATM    7  H   UNL     1     -42.545  58.500 -57.401  1.00  0.00     0.164 HD
HETATM    8  H   UNL     1     -41.475  57.821 -55.587  1.00  0.00     0.165 HD
BRANCH   5   9
HETATM    9  C   UNL     1     -44.613  58.346 -57.748  1.00  0.00     0.162 C 
BRANCH   9  10
HETATM   10  C   UNL     1     -44.745  57.156 -58.665  1.00  0.00    -0.040 A 
HETATM   11  C   UNL     1     -45.888  56.984 -59.460  1.00  0.00     0.009 A 
HETATM   12  C   UNL     1     -46.004  55.880 -60.306  1.00  0.00     0.001 A 
HETATM   13  C   UNL     1     -44.981  54.934 -60.364  1.00  0.00     0.000 A 
HETATM   14  C   UNL     1     -43.844  55.091 -59.574  1.00  0.00     0.001 A 
HETATM   15  C   UNL     1     -43.726  56.194 -58.728  1.00  0.00     0.009 A 
ENDBRANCH   9  10
ENDBRANCH   5   9
ENDBRANCH   2   3
BRANCH   2  16
HETATM   16  C   UNL     1     -41.813  56.886 -53.071  1.00  0.00     0.145 A 
HETATM   17  N   UNL     1     -41.331  55.822 -53.681  1.00  0.00    -0.210 NA
HETATM   18  C   UNL     1     -41.294  54.858 -52.694  1.00  0.00     0.181 A 
HETATM   19  N   UNL     1     -41.766  55.280 -51.510  1.00  0.00    -0.152 NA
HETATM   20  N   UNL     1     -42.086  56.556 -51.773  1.00  0.00    -0.261 N 
HETATM   21  H   UNL     1     -42.495  57.149 -51.051  1.00  0.00     0.190 HD
BRANCH  18  22
HETATM   22  C   UNL     1     -40.760  53.518 -52.928  1.00  0.00     0.014 A 
HETATM   23  C   UNL     1     -40.072  52.840 -51.910  1.00  0.00     0.017 A 
HETATM   24  C   UNL     1     -39.570  51.552 -52.123  1.00  0.00     0.025 A 
HETATM   25  C   UNL     1     -39.756  50.930 -53.356  1.00  0.00     0.034 A 
HETATM   26 CL   UNL     1     -39.141  49.345 -53.617  1.00  0.00    -0.084 Cl
HETATM   27  C   UNL     1     -40.439  51.586 -54.378  1.00  0.00     0.025 A 
HETATM   28  C   UNL     1     -40.938  52.876 -54.164  1.00  0.00     0.017 A 
ENDBRANCH  18  22
ENDBRANCH   2  16
TORSDOF 5
ENDMDL
MODEL 7
REMARK VINA RESULT:      -7.8      3.745      4.696
REMARK  5 active torsions:
REMARK  status: ('A' for Active; 'I' for Inactive)
REMARK    1  A    between atoms: C_2  and  N_3 
REMARK    2  A    between atoms: C_2  and  C_14 
REMARK       I    between atoms: N_3  and  C_4 
REMARK       I    between atoms: C_4  and  N_5 
REMARK    3  A    between atoms: N_5  and  C_6 
REMARK    4  A    between atoms: C_6  and  C_7 
REMARK    5  A    between atoms: C_16  and  C_17 
ROOT
HETATM    1  C   UNL     1     -42.613  58.499 -55.450  1.00  0.00     0.041 C 
HETATM    2  C   UNL     1     -42.268  57.126 -56.016  1.00  0.00     0.153 C 
ENDROOT
BRANCH   2   3
HETATM    3  N   UNL     1     -42.449  56.106 -54.989  1.00  0.00    -0.332 N 
HETATM    4  C   UNL     1     -41.407  55.693 -54.201  1.00  0.00     0.317 C 
HETATM    5  N   UNL     1     -41.781  54.718 -53.325  1.00  0.00    -0.339 N 
HETATM    6  O   UNL     1     -40.272  56.138 -54.311  1.00  0.00    -0.247 OA
HETATM    7  H   UNL     1     -42.764  54.626 -53.120  1.00  0.00     0.164 HD
HETATM    8  H   UNL     1     -43.198  55.444 -55.130  1.00  0.00     0.165 HD
BRANCH   5   9
HETATM    9  C   UNL     1     -40.860  54.164 -52.356  1.00  0.00     0.162 C 
BRANCH   9  10
HETATM   10  C   UNL     1     -40.441  52.767 -52.739  1.00  0.00    -0.040 A 
HETATM   11  C   UNL     1     -40.664  52.280 -54.035  1.00  0.00     0.009 A 
HETATM   12  C   UNL     1     -40.275  50.986 -54.382  1.00  0.00     0.001 A 
HETATM   13  C   UNL     1     -39.662  50.163 -53.438  1.00  0.00     0.000 A 
HETATM   14  C   UNL     1     -39.442  50.634 -52.145  1.00  0.00     0.001 A 
HETATM   15  C   UNL     1     -39.830  51.928 -51.796  1.00  0.00     0.009 A 
ENDBRANCH   9  10
ENDBRANCH   5   9
ENDBRANCH   2   3
BRANCH   2  16
HETATM   16  C   UNL     1     -43.093  56.802 -57.223  1.00  0.00     0.145 A 
HETATM   17  N   UNL     1     -44.218  57.346 -57.641  1.00  0.00    -0.210 NA
HETATM   18  C   UNL     1     -44.458  56.729 -58.852  1.00  0.00     0.181 A 
HETATM   19  N   UNL     1     -43.542  55.804 -59.178  1.00  0.00    -0.152 NA
HETATM   20  N   UNL     1     -42.695  55.868 -58.139  1.00  0.00    -0.261 N 
HETATM   21  H   UNL     1     -41.882  55.256 -58.092  1.00  0.00     0.190 HD
BRANCH  18  22
HETATM   22  C   UNL     1     -45.595  57.085 -59.700  1.00  0.00     0.014 A 
HETATM   23  C   UNL     1     -45.925  58.432 -59.916  1.00  0.00     0.017 A 
HETATM   24  C   UNL     1     -47.003  58.779 -60.736  1.00  0.00     0.025 A 
HETATM   25  C   UNL     1     -47.758  57.781 -61.349  1.00  0.00     0.034 A 
HETATM   26 CL   UNL     1     -49.083  58.210 -62.360  1.00  0.00    -0.084 Cl
HETATM   27  C   UNL     1     -47.445  56.439 -61.147  1.00  0.00     0.025 A 
HETATM   28  C   UNL     1     -46.368  56.093 -60.325  1.00  0.00     0.017 A 
ENDBRANCH  18  22
ENDBRANCH   2  16
TORSDOF 5
ENDMDL
MODEL 8
REMARK VINA RESULT:      -7.5      5.862      6.882
REMARK  5 active torsions:
REMARK  status: ('A' for Active; 'I' for Inactive)
REMARK    1  A    between atoms: C_2  and  N_3 
REMARK    2  A    between atoms: C_2  and  C_14 
REMARK       I    between atoms: N_3  and  C_4 
REMARK       I    between atoms: C_4  and  N_5 
REMARK    3  A    between atoms: N_5  and  C_6 
REMARK    4  A    between atoms: C_6  and  C_7 
REMARK    5  A    between atoms: C_16  and  C_17 
ROOT
HETATM    1  C   UNL     1     -43.530  56.350 -53.650  1.00  0.00     0.041 C 
HETATM    2  C   UNL     1     -42.963  56.544 -52.248  1.00  0.00     0.153 C 
ENDROOT
BRANCH   2   3
HETATM    3  N   UNL     1     -41.691  55.839 -52.126  1.00  0.00    -0.332 N 
HETATM    4  C   UNL     1     -41.607  54.618 -51.511  1.00  0.00     0.317 C 
HETATM    5  N   UNL     1     -40.329  54.146 -51.481  1.00  0.00    -0.339 N 
HETATM    6  O   UNL     1     -42.576  54.051 -51.023  1.00  0.00    -0.247 OA
HETATM    7  H   UNL     1     -39.671  54.535 -52.138  1.00  0.00     0.164 HD
HETATM    8  H   UNL     1     -40.855  56.404 -52.123  1.00  0.00     0.165 HD
BRANCH   5   9
HETATM    9  C   UNL     1     -40.005  52.849 -50.927  1.00  0.00     0.162 C 
BRANCH   9  10
HETATM   10  C   UNL     1     -39.909  51.803 -52.009  1.00  0.00    -0.040 A 
HETATM   11  C   UNL     1     -40.088  52.146 -53.357  1.00  0.00     0.009 A 
HETATM   12  C   UNL     1     -39.999  51.173 -54.354  1.00  0.00     0.001 A 
HETATM   13  C   UNL     1     -39.735  49.847 -54.014  1.00  0.00     0.000 A 
HETATM   14  C   UNL     1     -39.562  49.493 -52.677  1.00  0.00     0.001 A 
HETATM   15  C   UNL     1     -39.650  50.464 -51.679  1.00  0.00     0.009 A 
ENDBRANCH   9  10
ENDBRANCH   5   9
ENDBRANCH   2   3
BRANCH   2  16
HETATM   16  C   UNL     1     -42.789  57.993 -51.917  1.00  0.00     0.145 A 
HETATM   17  N   UNL     1     -43.565  58.793 -51.212  1.00  0.00    -0.210 NA
HETATM   18  C   UNL     1     -42.856  59.975 -51.146  1.00  0.00     0.181 A 
HETATM   19  N   UNL     1     -41.690  59.943 -51.811  1.00  0.00    -0.152 NA
HETATM   20  N   UNL     1     -41.671  58.688 -52.286  1.00  0.00    -0.261 N 
HETATM   21  H   UNL     1     -40.896  58.362 -52.861  1.00  0.00     0.190 HD
BRANCH  18  22
HETATM   22  C   UNL     1     -43.334  61.133 -50.393  1.00  0.00     0.014 A 
HETATM   23  C   UNL     1     -44.326  60.981 -49.412  1.00  0.00     0.017 A 
HETATM   24  C   UNL     1     -44.779  62.083 -48.679  1.00  0.00     0.025 A 
HETATM   25  C   UNL     1     -44.240  63.345 -48.919  1.00  0.00     0.034 A 
HETATM   26 CL   UNL     1     -44.796  64.699 -48.015  1.00  0.00    -0.084 Cl
HETATM   27  C   UNL     1     -43.253  63.515 -49.887  1.00  0.00     0.025 A 
HETATM   28  C   UNL     1     -42.803  62.413 -50.622  1.00  0.00     0.017 A 
ENDBRANCH  18  22
ENDBRANCH   2  16
TORSDOF 5
ENDMDL
MODEL 9
REMARK VINA RESULT:      -7.5      6.876      7.974
REMARK  5 active torsions:
REMARK  status: ('A' for Active; 'I' for Inactive)
REMARK    1  A    between atoms: C_2  and  N_3 
REMARK    2  A    between atoms: C_2  and  C_14 
REMARK       I    between atoms: N_3  and  C_4 
REMARK       I    between atoms: C_4  and  N_5 
REMARK    3  A    between atoms: N_5  and  C_6 
REMARK    4  A    between atoms: C_6  and  C_7 
REMARK    5  A    between atoms: C_16  and  C_17 
ROOT
HETATM    1  C   UNL     1     -39.286  59.522 -50.609  1.00  0.00     0.041 C 
HETATM    2  C   UNL     1     -40.481  59.063 -51.436  1.00  0.00     0.153 C 
ENDROOT
BRANCH   2   3
HETATM    3  N   UNL     1     -40.771  57.661 -51.152  1.00  0.00    -0.332 N 
HETATM    4  C   UNL     1     -41.439  56.873 -52.051  1.00  0.00     0.317 C 
HETATM    5  N   UNL     1     -41.630  55.608 -51.583  1.00  0.00    -0.339 N 
HETATM    6  O   UNL     1     -41.839  57.289 -53.132  1.00  0.00    -0.247 OA
HETATM    7  H   UNL     1     -41.034  55.292 -50.832  1.00  0.00     0.164 HD
HETATM    8  H   UNL     1     -40.844  57.399 -50.180  1.00  0.00     0.165 HD
BRANCH   5   9
HETATM    9  C   UNL     1     -42.267  54.583 -52.382  1.00  0.00     0.162 C 
BRANCH   9  10
HETATM   10  C   UNL     1     -41.298  53.481 -52.728  1.00  0.00    -0.040 A 
HETATM   11  C   UNL     1     -41.232  52.965 -54.030  1.00  0.00     0.009 A 
HETATM   12  C   UNL     1     -40.333  51.944 -54.343  1.00  0.00     0.001 A 
HETATM   13  C   UNL     1     -39.492  51.426 -53.359  1.00  0.00     0.000 A 
HETATM   14  C   UNL     1     -39.553  51.927 -52.059  1.00  0.00     0.001 A 
HETATM   15  C   UNL     1     -40.451  52.948 -51.744  1.00  0.00     0.009 A 
ENDBRANCH   9  10
ENDBRANCH   5   9
ENDBRANCH   2   3
BRANCH   2  16
HETATM   16  C   UNL     1     -41.690  59.907 -51.178  1.00  0.00     0.145 A 
HETATM   17  N   UNL     1     -42.157  60.379 -50.040  1.00  0.00    -0.210 NA
HETATM   18  C   UNL     1     -43.220  61.173 -50.418  1.00  0.00     0.181 A 
HETATM   19  N   UNL     1     -43.445  61.181 -51.741  1.00  0.00    -0.152 NA
HETATM   20  N   UNL     1     -42.471  60.379 -52.197  1.00  0.00    -0.261 N 
HETATM   21  H   UNL     1     -42.389  60.173 -53.192  1.00  0.00     0.190 HD
BRANCH  18  22
HETATM   22  C   UNL     1     -44.000  61.948 -49.454  1.00  0.00     0.014 A 
HETATM   23  C   UNL     1     -44.771  61.297 -48.479  1.00  0.00     0.017 A 
HETATM   24  C   UNL     1     -45.509  62.032 -47.545  1.00  0.00     0.025 A 
HETATM   25  C   UNL     1     -45.477  63.425 -47.578  1.00  0.00     0.034 A 
HETATM   26 CL   UNL     1     -46.383  64.329 -46.428  1.00  0.00    -0.084 Cl
HETATM   27  C   UNL     1     -44.716  64.089 -48.537  1.00  0.00     0.025 A 
HETATM   28  C   UNL     1     -43.981  63.352 -49.472  1.00  0.00     0.017 A 
ENDBRANCH  18  22
ENDBRANCH   2  16
TORSDOF 5
ENDMDL
MODEL 10
REMARK VINA RESULT:      -7.5      3.966      4.759
REMARK  5 active torsions:
REMARK  status: ('A' for Active; 'I' for Inactive)
REMARK    1  A    between atoms: C_2  and  N_3 
REMARK    2  A    between atoms: C_2  and  C_14 
REMARK       I    between atoms: N_3  and  C_4 
REMARK       I    between atoms: C_4  and  N_5 
REMARK    3  A    between atoms: N_5  and  C_6 
REMARK    4  A    between atoms: C_6  and  C_7 
REMARK    5  A    between atoms: C_16  and  C_17 
ROOT
HETATM    1  C   UNL     1     -44.968  58.299 -51.453  1.00  0.00     0.041 C 
HETATM    2  C   UNL     1     -43.631  57.918 -52.077  1.00  0.00     0.153 C 
ENDROOT
BRANCH   2   3
HETATM    3  N   UNL     1     -43.304  56.535 -51.743  1.00  0.00    -0.332 N 
HETATM    4  C   UNL     1     -42.008  56.132 -51.556  1.00  0.00     0.317 C 
HETATM    5  N   UNL     1     -41.919  54.801 -51.278  1.00  0.00    -0.339 N 
HETATM    6  O   UNL     1     -41.054  56.891 -51.665  1.00  0.00    -0.247 OA
HETATM    7  H   UNL     1     -42.748  54.338 -50.938  1.00  0.00     0.164 HD
HETATM    8  H   UNL     1     -43.958  55.827 -52.043  1.00  0.00     0.165 HD
BRANCH   5   9
HETATM    9  C   UNL     1     -40.653  54.162 -50.991  1.00  0.00     0.162 C 
BRANCH   9  10
HETATM   10  C   UNL     1     -40.345  53.087 -52.003  1.00  0.00    -0.040 A 
HETATM   11  C   UNL     1     -40.630  53.277 -53.363  1.00  0.00     0.009 A 
HETATM   12  C   UNL     1     -40.342  52.277 -54.294  1.00  0.00     0.001 A 
HETATM   13  C   UNL     1     -39.771  51.076 -53.876  1.00  0.00     0.000 A 
HETATM   14  C   UNL     1     -39.490  50.873 -52.525  1.00  0.00     0.001 A 
HETATM   15  C   UNL     1     -39.776  51.871 -51.593  1.00  0.00     0.009 A 
ENDBRANCH   9  10
ENDBRANCH   5   9
ENDBRANCH   2   3
BRANCH   2  16
HETATM   16  C   UNL     1     -43.640  58.106 -53.563  1.00  0.00     0.145 A 
HETATM   17  N   UNL     1     -43.787  57.214 -54.521  1.00  0.00    -0.210 NA
HETATM   18  C   UNL     1     -43.823  57.967 -55.677  1.00  0.00     0.181 A 
HETATM   19  N   UNL     1     -43.669  59.284 -55.469  1.00  0.00    -0.152 NA
HETATM   20  N   UNL     1     -43.556  59.346 -54.133  1.00  0.00    -0.261 N 
HETATM   21  H   UNL     1     -43.410  60.239 -53.665  1.00  0.00     0.190 HD
BRANCH  18  22
HETATM   22  C   UNL     1     -44.038  57.369 -56.994  1.00  0.00     0.014 A 
HETATM   23  C   UNL     1     -43.232  56.305 -57.430  1.00  0.00     0.017 A 
HETATM   24  C   UNL     1     -43.440  55.720 -58.683  1.00  0.00     0.025 A 
HETATM   25  C   UNL     1     -44.458  56.193 -59.509  1.00  0.00     0.034 A 
HETATM   26 CL   UNL     1     -44.715  55.471 -61.050  1.00  0.00    -0.084 Cl
HETATM   27  C   UNL     1     -45.269  57.247 -59.093  1.00  0.00     0.025 A 
HETATM   28  C   UNL     1     -45.058  57.832 -57.840  1.00  0.00     0.017 A 
ENDBRANCH  18  22
ENDBRANCH   2  16
TORSDOF 5
ENDMDL
