MODEL 1
REMARK VINA RESULT:      -9.1      0.000      0.000
REMARK  6 active torsions:
REMARK  status: ('A' for Active; 'I' for Inactive)
REMARK    1  A    between atoms: O_2  and  C_3 
REMARK    2  A    between atoms: C_5  and  C_6 
REMARK    3  A    between atoms: C_12  and  C_13 
REMARK       I    between atoms: C_13  and  N_14 
REMARK    4  A    between atoms: N_14  and  C_15 
REMARK    5  A    between atoms: C_17  and  O_18 
REMARK    6  A    between atoms: C_23  and  C_24 
ROOT
HETATM    1  C   UNL     1     -42.923  57.606 -55.790  1.00  0.00     0.118 C 
HETATM    2  N   UNL     1     -42.457  56.455 -55.002  1.00  0.00    -0.365 N 
HETATM    3  C   UNL     1     -41.982  56.644 -53.736  1.00  0.00     0.138 A 
HETATM    4  N   UNL     1     -41.775  57.914 -53.245  1.00  0.00    -0.240 N 
HETATM    5  N   UNL     1     -41.264  57.953 -52.008  1.00  0.00    -0.181 NA
HETATM    6  C   UNL     1     -41.211  56.666 -51.663  1.00  0.00     0.160 A 
HETATM    7  C   UNL     1     -41.629  55.793 -52.701  1.00  0.00     0.096 A 
HETATM    8  C   UNL     1     -42.087  59.138 -53.956  1.00  0.00     0.221 C 
HETATM    9  C   UNL     1     -42.093  58.859 -55.461  1.00  0.00     0.066 C 
HETATM   10  H   UNL     1     -43.011  55.620 -55.199  1.00  0.00     0.161 HD
ENDROOT
BRANCH   7  11
HETATM   11  C   UNL     1     -41.658  54.342 -52.602  1.00  0.00     0.261 C 
HETATM   12  N   UNL     1     -40.428  53.734 -52.761  1.00  0.00    -0.323 N 
HETATM   13  H   UNL     1     -39.632  54.361 -52.801  1.00  0.00     0.169 HD
HETATM   14  O   UNL     1     -42.714  53.766 -52.365  1.00  0.00    -0.267 OA
BRANCH  12  15
HETATM   15  C   UNL     1     -40.155  52.349 -52.791  1.00  0.00     0.037 A 
HETATM   16  C   UNL     1     -40.217  51.568 -53.950  1.00  0.00     0.066 A 
HETATM   17  C   UNL     1     -39.923  50.207 -53.890  1.00  0.00     0.067 A 
HETATM   18  C   UNL     1     -39.561  49.604 -52.694  1.00  0.00     0.036 A 
HETATM   19  C   UNL     1     -39.492  50.374 -51.536  1.00  0.00     0.005 A 
HETATM   20  C   UNL     1     -39.789  51.740 -51.584  1.00  0.00     0.029 A 
BRANCH  17  21
HETATM   21  O   UNL     1     -39.981  49.421 -55.005  1.00  0.00    -0.361 OA
HETATM   22  H   UNL     1     -39.995  50.000 -55.787  1.00  0.00     0.217 HD
ENDBRANCH  17  21
ENDBRANCH  12  15
ENDBRANCH   7  11
BRANCH   1  23
HETATM   23  C   UNL     1     -42.840  57.304 -57.274  1.00  0.00    -0.033 A 
HETATM   24  C   UNL     1     -43.436  56.156 -57.825  1.00  0.00     0.046 A 
HETATM   25  C   UNL     1     -43.253  55.818 -59.168  1.00  0.00     0.068 A 
HETATM   26  C   UNL     1     -42.499  56.654 -59.990  1.00  0.00     0.037 A 
HETATM   27  C   UNL     1     -41.919  57.810 -59.465  1.00  0.00     0.003 A 
HETATM   28  C   UNL     1     -42.081  58.131 -58.116  1.00  0.00     0.009 A 
BRANCH  25  29
HETATM   29  O   UNL     1     -43.858  54.653 -59.555  1.00  0.00    -0.356 OA
HETATM   30  C   UNL     1     -45.010  54.782 -60.381  1.00  0.00     0.210 C 
ENDBRANCH  25  29
ENDBRANCH   1  23
BRANCH   8  31
HETATM   31  C   UNL     1     -43.406  59.696 -53.464  1.00  0.00     0.409 C 
HETATM   32  F   UNL     1     -44.074  60.388 -54.415  1.00  0.00    -0.169 F 
HETATM   33  F   UNL     1     -44.237  58.750 -52.983  1.00  0.00    -0.169 F 
HETATM   34  F   UNL     1     -43.183  60.568 -52.445  1.00  0.00    -0.169 F 
ENDBRANCH   8  31
TORSDOF 6
ENDMDL
MODEL 2
REMARK VINA RESULT:      -9.0      1.367      2.014
REMARK  6 active torsions:
REMARK  status: ('A' for Active; 'I' for Inactive)
REMARK    1  A    between atoms: O_2  and  C_3 
REMARK    2  A    between atoms: C_5  and  C_6 
REMARK    3  A    between atoms: C_12  and  C_13 
REMARK       I    between atoms: C_13  and  N_14 
REMARK    4  A    between atoms: N_14  and  C_15 
REMARK    5  A    between atoms: C_17  and  O_18 
REMARK    6  A    between atoms: C_23  and  C_24 
ROOT
HETATM    1  C   UNL     1     -42.608  58.420 -54.178  1.00  0.00     0.118 C 
HETATM    2  N   UNL     1     -42.201  57.092 -53.694  1.00  0.00    -0.365 N 
HETATM    3  C   UNL     1     -41.734  56.946 -52.419  1.00  0.00     0.138 A 
HETATM    4  N   UNL     1     -41.478  58.047 -51.633  1.00  0.00    -0.240 N 
HETATM    5  N   UNL     1     -40.980  57.762 -50.424  1.00  0.00    -0.181 NA
HETATM    6  C   UNL     1     -40.987  56.428 -50.403  1.00  0.00     0.160 A 
HETATM    7  C   UNL     1     -41.430  55.853 -51.622  1.00  0.00     0.096 A 
HETATM    8  C   UNL     1     -41.729  59.420 -52.025  1.00  0.00     0.221 C 
HETATM    9  C   UNL     1     -41.729  59.517 -53.553  1.00  0.00     0.066 C 
HETATM   10  H   UNL     1     -42.789  56.356 -54.088  1.00  0.00     0.161 HD
ENDROOT
BRANCH   7  11
HETATM   11  C   UNL     1     -41.523  54.425 -51.880  1.00  0.00     0.261 C 
HETATM   12  N   UNL     1     -40.314  53.813 -52.146  1.00  0.00    -0.323 N 
HETATM   13  H   UNL     1     -39.492  54.390 -52.010  1.00  0.00     0.169 HD
HETATM   14  O   UNL     1     -42.611  53.862 -51.820  1.00  0.00    -0.267 OA
BRANCH  12  15
HETATM   15  C   UNL     1     -40.098  52.464 -52.504  1.00  0.00     0.037 A 
HETATM   16  C   UNL     1     -39.734  51.466 -51.594  1.00  0.00     0.066 A 
HETATM   17  C   UNL     1     -39.549  50.156 -52.034  1.00  0.00     0.067 A 
HETATM   18  C   UNL     1     -39.727  49.816 -53.368  1.00  0.00     0.036 A 
HETATM   19  C   UNL     1     -40.094  50.801 -54.280  1.00  0.00     0.005 A 
HETATM   20  C   UNL     1     -40.277  52.120 -53.850  1.00  0.00     0.029 A 
BRANCH  17  21
HETATM   21  O   UNL     1     -39.188  49.164 -51.168  1.00  0.00    -0.361 OA
HETATM   22  H   UNL     1     -39.116  48.332 -51.668  1.00  0.00     0.217 HD
ENDBRANCH  17  21
ENDBRANCH  12  15
ENDBRANCH   7  11
BRANCH   1  23
HETATM   23  C   UNL     1     -42.522  58.485 -55.691  1.00  0.00    -0.033 A 
HETATM   24  C   UNL     1     -42.793  57.361 -56.491  1.00  0.00     0.046 A 
HETATM   25  C   UNL     1     -42.592  57.390 -57.874  1.00  0.00     0.068 A 
HETATM   26  C   UNL     1     -42.153  58.567 -58.478  1.00  0.00     0.037 A 
HETATM   27  C   UNL     1     -41.900  59.699 -57.701  1.00  0.00     0.003 A 
HETATM   28  C   UNL     1     -42.075  59.658 -56.317  1.00  0.00     0.009 A 
BRANCH  25  29
HETATM   29  O   UNL     1     -42.859  56.213 -58.519  1.00  0.00    -0.356 OA
HETATM   30  C   UNL     1     -42.523  56.159 -59.901  1.00  0.00     0.210 C 
ENDBRANCH  25  29
ENDBRANCH   1  23
BRANCH   8  31
HETATM   31  C   UNL     1     -43.027  59.901 -51.413  1.00  0.00     0.409 C 
HETATM   32  F   UNL     1     -43.664  60.817 -52.177  1.00  0.00    -0.169 F 
HETATM   33  F   UNL     1     -43.897  58.902 -51.160  1.00  0.00    -0.169 F 
HETATM   34  F   UNL     1     -42.777  60.506 -50.222  1.00  0.00    -0.169 F 
ENDBRANCH   8  31
TORSDOF 6
ENDMDL
MODEL 3
REMARK VINA RESULT:      -8.9      1.245      2.116
REMARK  6 active torsions:
REMARK  status: ('A' for Active; 'I' for Inactive)
REMARK    1  A    between atoms: O_2  and  C_3 
REMARK    2  A    between atoms: C_5  and  C_6 
REMARK    3  A    between atoms: C_12  and  C_13 
REMARK       I    between atoms: C_13  and  N_14 
REMARK    4  A    between atoms: N_14  and  C_15 
REMARK    5  A    between atoms: C_17  and  O_18 
REMARK    6  A    between atoms: C_23  and  C_24 
ROOT
HETATM    1  C   UNL     1     -42.891  57.438 -55.789  1.00  0.00     0.118 C 
HETATM    2  N   UNL     1     -42.408  56.340 -54.937  1.00  0.00    -0.365 N 
HETATM    3  C   UNL     1     -42.011  56.596 -53.656  1.00  0.00     0.138 A 
HETATM    4  N   UNL     1     -41.896  57.891 -53.201  1.00  0.00    -0.240 N 
HETATM    5  N   UNL     1     -41.453  57.999 -51.942  1.00  0.00    -0.181 NA
HETATM    6  C   UNL     1     -41.353  56.728 -51.549  1.00  0.00     0.160 A 
HETATM    7  C   UNL     1     -41.670  55.800 -52.575  1.00  0.00     0.096 A 
HETATM    8  C   UNL     1     -42.234  59.072 -53.971  1.00  0.00     0.221 C 
HETATM    9  C   UNL     1     -42.145  58.744 -55.464  1.00  0.00     0.066 C 
HETATM   10  H   UNL     1     -42.908  55.471 -55.132  1.00  0.00     0.161 HD
ENDROOT
BRANCH   7  11
HETATM   11  C   UNL     1     -41.629  54.354 -52.425  1.00  0.00     0.261 C 
HETATM   12  N   UNL     1     -40.464  53.765 -52.878  1.00  0.00    -0.323 N 
HETATM   13  H   UNL     1     -39.725  54.406 -53.142  1.00  0.00     0.169 HD
HETATM   14  O   UNL     1     -42.571  53.766 -51.904  1.00  0.00    -0.267 OA
BRANCH  12  15
HETATM   15  C   UNL     1     -40.168  52.386 -52.933  1.00  0.00     0.037 A 
HETATM   16  C   UNL     1     -39.729  51.640 -51.834  1.00  0.00     0.066 A 
HETATM   17  C   UNL     1     -39.467  50.278 -51.977  1.00  0.00     0.067 A 
HETATM   18  C   UNL     1     -39.641  49.638 -53.196  1.00  0.00     0.036 A 
HETATM   19  C   UNL     1     -40.082  50.372 -54.294  1.00  0.00     0.005 A 
HETATM   20  C   UNL     1     -40.343  51.740 -54.163  1.00  0.00     0.029 A 
BRANCH  17  21
HETATM   21  O   UNL     1     -39.032  49.527 -50.922  1.00  0.00    -0.361 OA
HETATM   22  H   UNL     1     -38.773  48.651 -51.256  1.00  0.00     0.217 HD
ENDBRANCH  17  21
ENDBRANCH  12  15
ENDBRANCH   7  11
BRANCH   1  23
HETATM   23  C   UNL     1     -42.715  57.092 -57.255  1.00  0.00    -0.033 A 
HETATM   24  C   UNL     1     -42.218  58.029 -58.177  1.00  0.00     0.046 A 
HETATM   25  C   UNL     1     -42.174  57.748 -59.545  1.00  0.00     0.068 A 
HETATM   26  C   UNL     1     -42.594  56.500 -60.002  1.00  0.00     0.037 A 
HETATM   27  C   UNL     1     -43.069  55.549 -59.098  1.00  0.00     0.003 A 
HETATM   28  C   UNL     1     -43.137  55.842 -57.735  1.00  0.00     0.009 A 
BRANCH  25  29
HETATM   29  O   UNL     1     -41.705  58.768 -60.328  1.00  0.00    -0.356 OA
HETATM   30  C   UNL     1     -42.070  60.086 -59.933  1.00  0.00     0.210 C 
ENDBRANCH  25  29
ENDBRANCH   1  23
BRANCH   8  31
HETATM   31  C   UNL     1     -43.603  59.576 -53.568  1.00  0.00     0.409 C 
HETATM   32  F   UNL     1     -43.561  60.454 -52.541  1.00  0.00    -0.169 F 
HETATM   33  F   UNL     1     -44.274  60.160 -54.581  1.00  0.00    -0.169 F 
HETATM   34  F   UNL     1     -44.370  58.535 -53.148  1.00  0.00    -0.169 F 
ENDBRANCH   8  31
TORSDOF 6
ENDMDL
MODEL 4
REMARK VINA RESULT:      -8.8      2.227      7.044
REMARK  6 active torsions:
REMARK  status: ('A' for Active; 'I' for Inactive)
REMARK    1  A    between atoms: O_2  and  C_3 
REMARK    2  A    between atoms: C_5  and  C_6 
REMARK    3  A    between atoms: C_12  and  C_13 
REMARK       I    between atoms: C_13  and  N_14 
REMARK    4  A    between atoms: N_14  and  C_15 
REMARK    5  A    between atoms: C_17  and  O_18 
REMARK    6  A    between atoms: C_23  and  C_24 
ROOT
HETATM    1  C   UNL     1     -41.050  54.748 -52.550  1.00  0.00     0.118 C 
HETATM    2  N   UNL     1     -41.964  55.327 -53.547  1.00  0.00    -0.365 N 
HETATM    3  C   UNL     1     -42.791  56.356 -53.197  1.00  0.00     0.138 A 
HETATM    4  N   UNL     1     -42.904  56.750 -51.883  1.00  0.00    -0.240 N 
HETATM    5  N   UNL     1     -43.784  57.738 -51.675  1.00  0.00    -0.181 NA
HETATM    6  C   UNL     1     -44.193  58.041 -52.908  1.00  0.00     0.160 A 
HETATM    7  C   UNL     1     -43.626  57.205 -53.905  1.00  0.00     0.096 A 
HETATM    8  C   UNL     1     -42.144  56.192 -50.782  1.00  0.00     0.221 C 
HETATM    9  C   UNL     1     -41.687  54.779 -51.150  1.00  0.00     0.066 C 
HETATM   10  H   UNL     1     -41.545  55.329 -54.479  1.00  0.00     0.161 HD
ENDROOT
BRANCH   7  11
HETATM   11  C   UNL     1     -43.909  57.304 -55.328  1.00  0.00     0.261 C 
HETATM   12  N   UNL     1     -42.850  56.962 -56.146  1.00  0.00    -0.323 N 
HETATM   13  H   UNL     1     -42.046  56.563 -55.676  1.00  0.00     0.169 HD
HETATM   14  O   UNL     1     -45.026  57.640 -55.707  1.00  0.00    -0.267 OA
BRANCH  12  15
HETATM   15  C   UNL     1     -42.801  57.031 -57.555  1.00  0.00     0.037 A 
HETATM   16  C   UNL     1     -43.390  56.086 -58.402  1.00  0.00     0.066 A 
HETATM   17  C   UNL     1     -43.299  56.237 -59.785  1.00  0.00     0.067 A 
HETATM   18  C   UNL     1     -42.636  57.320 -60.346  1.00  0.00     0.036 A 
HETATM   19  C   UNL     1     -42.051  58.268 -59.511  1.00  0.00     0.005 A 
HETATM   20  C   UNL     1     -42.132  58.123 -58.122  1.00  0.00     0.029 A 
BRANCH  17  21
HETATM   21  O   UNL     1     -43.860  55.326 -60.634  1.00  0.00    -0.361 OA
HETATM   22  H   UNL     1     -43.396  54.478 -60.524  1.00  0.00     0.217 HD
ENDBRANCH  17  21
ENDBRANCH  12  15
ENDBRANCH   7  11
BRANCH   1  23
HETATM   23  C   UNL     1     -40.685  53.325 -52.924  1.00  0.00    -0.033 A 
HETATM   24  C   UNL     1     -40.081  52.455 -52.000  1.00  0.00     0.046 A 
HETATM   25  C   UNL     1     -39.634  51.187 -52.383  1.00  0.00     0.068 A 
HETATM   26  C   UNL     1     -39.827  50.760 -53.696  1.00  0.00     0.037 A 
HETATM   27  C   UNL     1     -40.446  51.603 -54.621  1.00  0.00     0.003 A 
HETATM   28  C   UNL     1     -40.867  52.878 -54.242  1.00  0.00     0.009 A 
BRANCH  25  29
HETATM   29  O   UNL     1     -39.029  50.466 -51.390  1.00  0.00    -0.356 OA
HETATM   30  C   UNL     1     -39.893  49.816 -50.465  1.00  0.00     0.210 C 
ENDBRANCH  25  29
ENDBRANCH   1  23
BRANCH   8  31
HETATM   31  C   UNL     1     -40.987  57.106 -50.440  1.00  0.00     0.409 C 
HETATM   32  F   UNL     1     -40.506  57.773 -51.513  1.00  0.00    -0.169 F 
HETATM   33  F   UNL     1     -41.291  58.016 -49.493  1.00  0.00    -0.169 F 
HETATM   34  F   UNL     1     -39.952  56.372 -49.952  1.00  0.00    -0.169 F 
ENDBRANCH   8  31
TORSDOF 6
ENDMDL
MODEL 5
REMARK VINA RESULT:      -8.3      2.164      6.862
REMARK  6 active torsions:
REMARK  status: ('A' for Active; 'I' for Inactive)
REMARK    1  A    between atoms: O_2  and  C_3 
REMARK    2  A    between atoms: C_5  and  C_6 
REMARK    3  A    between atoms: C_12  and  C_13 
REMARK       I    between atoms: C_13  and  N_14 
REMARK    4  A    between atoms: N_14  and  C_15 
REMARK    5  A    between atoms: C_17  and  O_18 
REMARK    6  A    between atoms: C_23  and  C_24 
ROOT
HETATM    1  C   UNL     1     -41.019  56.130 -52.292  1.00  0.00     0.118 C 
HETATM    2  N   UNL     1     -42.108  56.328 -53.261  1.00  0.00    -0.365 N 
HETATM    3  C   UNL     1     -42.919  57.422 -53.160  1.00  0.00     0.138 A 
HETATM    4  N   UNL     1     -42.840  58.257 -52.067  1.00  0.00    -0.240 N 
HETATM    5  N   UNL     1     -43.723  59.263 -52.074  1.00  0.00    -0.181 NA
HETATM    6  C   UNL     1     -44.339  59.114 -53.248  1.00  0.00     0.160 A 
HETATM    7  C   UNL     1     -43.897  57.975 -53.970  1.00  0.00     0.096 A 
HETATM    8  C   UNL     1     -41.887  58.116 -50.984  1.00  0.00     0.221 C 
HETATM    9  C   UNL     1     -41.424  56.659 -50.905  1.00  0.00     0.066 C 
HETATM   10  H   UNL     1     -41.844  55.997 -54.190  1.00  0.00     0.161 HD
ENDROOT
BRANCH   7  11
HETATM   11  C   UNL     1     -44.409  57.568 -55.269  1.00  0.00     0.261 C 
HETATM   12  N   UNL     1     -43.441  57.424 -56.244  1.00  0.00    -0.323 N 
HETATM   13  H   UNL     1     -42.483  57.493 -55.922  1.00  0.00     0.169 HD
HETATM   14  O   UNL     1     -45.608  57.356 -55.414  1.00  0.00    -0.267 OA
BRANCH  12  15
HETATM   15  C   UNL     1     -43.640  57.116 -57.607  1.00  0.00     0.037 A 
HETATM   16  C   UNL     1     -44.195  58.004 -58.534  1.00  0.00     0.066 A 
HETATM   17  C   UNL     1     -44.348  57.618 -59.865  1.00  0.00     0.067 A 
HETATM   18  C   UNL     1     -43.950  56.361 -60.297  1.00  0.00     0.036 A 
HETATM   19  C   UNL     1     -43.391  55.471 -59.383  1.00  0.00     0.005 A 
HETATM   20  C   UNL     1     -43.238  55.847 -58.044  1.00  0.00     0.029 A 
BRANCH  17  21
HETATM   21  O   UNL     1     -44.892  58.465 -60.789  1.00  0.00    -0.361 OA
HETATM   22  H   UNL     1     -44.382  58.386 -61.614  1.00  0.00     0.217 HD
ENDBRANCH  17  21
ENDBRANCH  12  15
ENDBRANCH   7  11
BRANCH   1  23
HETATM   23  C   UNL     1     -40.648  54.662 -52.200  1.00  0.00    -0.033 A 
HETATM   24  C   UNL     1     -40.606  53.842 -53.341  1.00  0.00     0.046 A 
HETATM   25  C   UNL     1     -40.386  52.466 -53.236  1.00  0.00     0.068 A 
HETATM   26  C   UNL     1     -40.164  51.900 -51.982  1.00  0.00     0.037 A 
HETATM   27  C   UNL     1     -40.179  52.704 -50.841  1.00  0.00     0.003 A 
HETATM   28  C   UNL     1     -40.426  54.073 -50.945  1.00  0.00     0.009 A 
BRANCH  25  29
HETATM   29  O   UNL     1     -40.412  51.788 -54.424  1.00  0.00    -0.356 OA
HETATM   30  C   UNL     1     -40.015  50.421 -54.381  1.00  0.00     0.210 C 
ENDBRANCH  25  29
ENDBRANCH   1  23
BRANCH   8  31
HETATM   31  C   UNL     1     -40.737  59.080 -51.182  1.00  0.00     0.409 C 
HETATM   32  F   UNL     1     -40.492  59.350 -52.484  1.00  0.00    -0.169 F 
HETATM   33  F   UNL     1     -40.914  60.255 -50.545  1.00  0.00    -0.169 F 
HETATM   34  F   UNL     1     -39.594  58.539 -50.683  1.00  0.00    -0.169 F 
ENDBRANCH   8  31
TORSDOF 6
ENDMDL
MODEL 6
REMARK VINA RESULT:      -8.2      3.491      8.103
REMARK  6 active torsions:
REMARK  status: ('A' for Active; 'I' for Inactive)
REMARK    1  A    between atoms: O_2  and  C_3 
REMARK    2  A    between atoms: C_5  and  C_6 
REMARK    3  A    between atoms: C_12  and  C_13 
REMARK       I    between atoms: C_13  and  N_14 
REMARK    4  A    between atoms: N_14  and  C_15 
REMARK    5  A    between atoms: C_17  and  O_18 
REMARK    6  A    between atoms: C_23  and  C_24 
ROOT
HETATM    1  C   UNL     1     -41.784  55.097 -53.568  1.00  0.00     0.118 C 
HETATM    2  N   UNL     1     -41.920  56.336 -52.786  1.00  0.00    -0.365 N 
HETATM    3  C   UNL     1     -42.093  57.530 -53.427  1.00  0.00     0.138 A 
HETATM    4  N   UNL     1     -41.975  57.617 -54.796  1.00  0.00    -0.240 N 
HETATM    5  N   UNL     1     -42.122  58.853 -55.287  1.00  0.00    -0.181 NA
HETATM    6  C   UNL     1     -42.421  59.573 -54.205  1.00  0.00     0.160 A 
HETATM    7  C   UNL     1     -42.403  58.813 -53.007  1.00  0.00     0.096 A 
HETATM    8  C   UNL     1     -41.733  56.493 -55.679  1.00  0.00     0.221 C 
HETATM    9  C   UNL     1     -41.052  55.371 -54.893  1.00  0.00     0.066 C 
HETATM   10  H   UNL     1     -42.420  56.171 -51.911  1.00  0.00     0.161 HD
ENDROOT
BRANCH   7  11
HETATM   11  C   UNL     1     -42.676  59.348 -51.682  1.00  0.00     0.261 C 
HETATM   12  N   UNL     1     -43.698  60.277 -51.641  1.00  0.00    -0.323 N 
HETATM   13  H   UNL     1     -44.222  60.389 -52.501  1.00  0.00     0.169 HD
HETATM   14  O   UNL     1     -42.037  58.945 -50.716  1.00  0.00    -0.267 OA
BRANCH  12  15
HETATM   15  C   UNL     1     -44.136  61.018 -50.521  1.00  0.00     0.037 A 
HETATM   16  C   UNL     1     -45.067  60.546 -49.591  1.00  0.00     0.066 A 
HETATM   17  C   UNL     1     -45.437  61.343 -48.508  1.00  0.00     0.067 A 
HETATM   18  C   UNL     1     -44.890  62.606 -48.329  1.00  0.00     0.036 A 
HETATM   19  C   UNL     1     -43.959  63.083 -49.247  1.00  0.00     0.005 A 
HETATM   20  C   UNL     1     -43.584  62.293 -50.339  1.00  0.00     0.029 A 
BRANCH  17  21
HETATM   21  O   UNL     1     -46.347  60.908 -47.588  1.00  0.00    -0.361 OA
HETATM   22  H   UNL     1     -46.588  59.991 -47.806  1.00  0.00     0.217 HD
ENDBRANCH  17  21
ENDBRANCH  12  15
ENDBRANCH   7  11
BRANCH   1  23
HETATM   23  C   UNL     1     -41.040  54.043 -52.771  1.00  0.00    -0.033 A 
HETATM   24  C   UNL     1     -40.419  52.950 -53.399  1.00  0.00     0.046 A 
HETATM   25  C   UNL     1     -39.842  51.917 -52.655  1.00  0.00     0.068 A 
HETATM   26  C   UNL     1     -39.846  51.991 -51.263  1.00  0.00     0.037 A 
HETATM   27  C   UNL     1     -40.439  53.080 -50.623  1.00  0.00     0.003 A 
HETATM   28  C   UNL     1     -41.038  54.097 -51.369  1.00  0.00     0.009 A 
BRANCH  25  29
HETATM   29  O   UNL     1     -39.310  50.900 -53.399  1.00  0.00    -0.356 OA
HETATM   30  C   UNL     1     -40.204  50.226 -54.279  1.00  0.00     0.210 C 
ENDBRANCH  25  29
ENDBRANCH   1  23
BRANCH   8  31
HETATM   31  C   UNL     1     -43.034  56.050 -56.315  1.00  0.00     0.409 C 
HETATM   32  F   UNL     1     -43.097  54.714 -56.510  1.00  0.00    -0.169 F 
HETATM   33  F   UNL     1     -44.122  56.414 -55.606  1.00  0.00    -0.169 F 
HETATM   34  F   UNL     1     -43.163  56.621 -57.541  1.00  0.00    -0.169 F 
ENDBRANCH   8  31
TORSDOF 6
ENDMDL
MODEL 7
REMARK VINA RESULT:      -8.2      2.603      5.413
REMARK  6 active torsions:
REMARK  status: ('A' for Active; 'I' for Inactive)
REMARK    1  A    between atoms: O_2  and  C_3 
REMARK    2  A    between atoms: C_5  and  C_6 
REMARK    3  A    between atoms: C_12  and  C_13 
REMARK       I    between atoms: C_13  and  N_14 
REMARK    4  A    between atoms: N_14  and  C_15 
REMARK    5  A    between atoms: C_17  and  O_18 
REMARK    6  A    between atoms: C_23  and  C_24 
ROOT
HETATM    1  C   UNL     1     -42.398  59.314 -54.512  1.00  0.00     0.118 C 
HETATM    2  N   UNL     1     -41.933  57.921 -54.415  1.00  0.00    -0.365 N 
HETATM    3  C   UNL     1     -42.304  57.012 -55.364  1.00  0.00     0.138 A 
HETATM    4  N   UNL     1     -43.243  57.335 -56.318  1.00  0.00    -0.240 N 
HETATM    5  N   UNL     1     -43.547  56.336 -57.157  1.00  0.00    -0.181 NA
HETATM    6  C   UNL     1     -42.719  55.362 -56.776  1.00  0.00     0.160 A 
HETATM    7  C   UNL     1     -41.927  55.710 -55.652  1.00  0.00     0.096 A 
HETATM    8  C   UNL     1     -43.864  58.636 -56.461  1.00  0.00     0.221 C 
HETATM    9  C   UNL     1     -43.810  59.372 -55.120  1.00  0.00     0.066 C 
HETATM   10  H   UNL     1     -40.989  57.871 -54.030  1.00  0.00     0.161 HD
ENDROOT
BRANCH   7  11
HETATM   11  C   UNL     1     -40.953  54.833 -55.020  1.00  0.00     0.261 C 
HETATM   12  N   UNL     1     -41.491  53.686 -54.468  1.00  0.00    -0.323 N 
HETATM   13  H   UNL     1     -42.470  53.521 -54.672  1.00  0.00     0.169 HD
HETATM   14  O   UNL     1     -39.763  55.128 -55.036  1.00  0.00    -0.267 OA
BRANCH  12  15
HETATM   15  C   UNL     1     -40.812  52.692 -53.731  1.00  0.00     0.037 A 
HETATM   16  C   UNL     1     -40.409  51.464 -54.266  1.00  0.00     0.066 A 
HETATM   17  C   UNL     1     -39.735  50.543 -53.465  1.00  0.00     0.067 A 
HETATM   18  C   UNL     1     -39.445  50.823 -52.138  1.00  0.00     0.036 A 
HETATM   19  C   UNL     1     -39.838  52.045 -51.598  1.00  0.00     0.005 A 
HETATM   20  C   UNL     1     -40.519  52.975 -52.390  1.00  0.00     0.029 A 
BRANCH  17  21
HETATM   21  O   UNL     1     -39.336  49.335 -53.961  1.00  0.00    -0.361 OA
HETATM   22  H   UNL     1     -38.612  48.999 -53.404  1.00  0.00     0.217 HD
ENDBRANCH  17  21
ENDBRANCH  12  15
ENDBRANCH   7  11
BRANCH   1  23
HETATM   23  C   UNL     1     -42.393  59.973 -53.147  1.00  0.00    -0.033 A 
HETATM   24  C   UNL     1     -41.483  59.587 -52.147  1.00  0.00     0.046 A 
HETATM   25  C   UNL     1     -41.562  60.108 -50.853  1.00  0.00     0.068 A 
HETATM   26  C   UNL     1     -42.537  61.060 -50.556  1.00  0.00     0.037 A 
HETATM   27  C   UNL     1     -43.434  61.472 -51.543  1.00  0.00     0.003 A 
HETATM   28  C   UNL     1     -43.369  60.929 -52.827  1.00  0.00     0.009 A 
BRANCH  25  29
HETATM   29  O   UNL     1     -40.638  59.611 -49.975  1.00  0.00    -0.356 OA
HETATM   30  C   UNL     1     -39.290  59.577 -50.429  1.00  0.00     0.210 C 
ENDBRANCH  25  29
ENDBRANCH   1  23
BRANCH   8  31
HETATM   31  C   UNL     1     -43.190  59.410 -57.574  1.00  0.00     0.409 C 
HETATM   32  F   UNL     1     -41.875  59.119 -57.698  1.00  0.00    -0.169 F 
HETATM   33  F   UNL     1     -43.768  59.220 -58.778  1.00  0.00    -0.169 F 
HETATM   34  F   UNL     1     -43.264  60.742 -57.317  1.00  0.00    -0.169 F 
ENDBRANCH   8  31
TORSDOF 6
ENDMDL
MODEL 8
REMARK VINA RESULT:      -8.2      3.471      6.630
REMARK  6 active torsions:
REMARK  status: ('A' for Active; 'I' for Inactive)
REMARK    1  A    between atoms: O_2  and  C_3 
REMARK    2  A    between atoms: C_5  and  C_6 
REMARK    3  A    between atoms: C_12  and  C_13 
REMARK       I    between atoms: C_13  and  N_14 
REMARK    4  A    between atoms: N_14  and  C_15 
REMARK    5  A    between atoms: C_17  and  O_18 
REMARK    6  A    between atoms: C_23  and  C_24 
ROOT
HETATM    1  C   UNL     1     -42.620  55.885 -55.728  1.00  0.00     0.118 C 
HETATM    2  N   UNL     1     -43.257  56.394 -54.504  1.00  0.00    -0.365 N 
HETATM    3  C   UNL     1     -43.170  55.680 -53.343  1.00  0.00     0.138 A 
HETATM    4  N   UNL     1     -42.640  54.409 -53.338  1.00  0.00    -0.240 N 
HETATM    5  N   UNL     1     -42.658  53.806 -52.143  1.00  0.00    -0.181 NA
HETATM    6  C   UNL     1     -43.147  54.750 -51.338  1.00  0.00     0.160 A 
HETATM    7  C   UNL     1     -43.503  55.940 -52.024  1.00  0.00     0.096 A 
HETATM    8  C   UNL     1     -42.077  53.742 -54.496  1.00  0.00     0.221 C 
HETATM    9  C   UNL     1     -42.675  54.348 -55.768  1.00  0.00     0.066 C 
HETATM   10  H   UNL     1     -43.211  57.414 -54.457  1.00  0.00     0.161 HD
ENDROOT
BRANCH   7  11
HETATM   11  C   UNL     1     -44.072  57.121 -51.394  1.00  0.00     0.261 C 
HETATM   12  N   UNL     1     -43.507  58.314 -51.802  1.00  0.00    -0.323 N 
HETATM   13  H   UNL     1     -42.857  58.247 -52.577  1.00  0.00     0.169 HD
HETATM   14  O   UNL     1     -44.996  57.003 -50.596  1.00  0.00    -0.267 OA
BRANCH  12  15
HETATM   15  C   UNL     1     -43.796  59.608 -51.316  1.00  0.00     0.037 A 
HETATM   16  C   UNL     1     -45.074  60.175 -51.325  1.00  0.00     0.066 A 
HETATM   17  C   UNL     1     -45.271  61.458 -50.817  1.00  0.00     0.067 A 
HETATM   18  C   UNL     1     -44.216  62.190 -50.290  1.00  0.00     0.036 A 
HETATM   19  C   UNL     1     -42.941  61.631 -50.271  1.00  0.00     0.005 A 
HETATM   20  C   UNL     1     -42.732  60.346 -50.784  1.00  0.00     0.029 A 
BRANCH  17  21
HETATM   21  O   UNL     1     -46.508  62.038 -50.819  1.00  0.00    -0.361 OA
HETATM   22  H   UNL     1     -46.688  62.371 -51.715  1.00  0.00     0.217 HD
ENDBRANCH  17  21
ENDBRANCH  12  15
ENDBRANCH   7  11
BRANCH   1  23
HETATM   23  C   UNL     1     -43.295  56.460 -56.959  1.00  0.00    -0.033 A 
HETATM   24  C   UNL     1     -43.297  55.772 -58.185  1.00  0.00     0.046 A 
HETATM   25  C   UNL     1     -43.810  56.359 -59.345  1.00  0.00     0.068 A 
HETATM   26  C   UNL     1     -44.368  57.635 -59.278  1.00  0.00     0.037 A 
HETATM   27  C   UNL     1     -44.395  58.323 -58.064  1.00  0.00     0.003 A 
HETATM   28  C   UNL     1     -43.857  57.745 -56.913  1.00  0.00     0.009 A 
BRANCH  25  29
HETATM   29  O   UNL     1     -43.708  55.590 -60.472  1.00  0.00    -0.356 OA
HETATM   30  C   UNL     1     -44.929  55.090 -61.008  1.00  0.00     0.210 C 
ENDBRANCH  25  29
ENDBRANCH   1  23
BRANCH   8  31
HETATM   31  C   UNL     1     -40.567  53.838 -54.461  1.00  0.00     0.409 C 
HETATM   32  F   UNL     1     -39.989  52.826 -53.776  1.00  0.00    -0.169 F 
HETATM   33  F   UNL     1     -40.009  53.874 -55.689  1.00  0.00    -0.169 F 
HETATM   34  F   UNL     1     -40.194  54.985 -53.834  1.00  0.00    -0.169 F 
ENDBRANCH   8  31
TORSDOF 6
ENDMDL
MODEL 9
REMARK VINA RESULT:      -7.9      4.699      7.996
REMARK  6 active torsions:
REMARK  status: ('A' for Active; 'I' for Inactive)
REMARK    1  A    between atoms: O_2  and  C_3 
REMARK    2  A    between atoms: C_5  and  C_6 
REMARK    3  A    between atoms: C_12  and  C_13 
REMARK       I    between atoms: C_13  and  N_14 
REMARK    4  A    between atoms: N_14  and  C_15 
REMARK    5  A    between atoms: C_17  and  O_18 
REMARK    6  A    between atoms: C_23  and  C_24 
ROOT
HETATM    1  C   UNL     1     -44.530  61.311 -49.917  1.00  0.00     0.118 C 
HETATM    2  N   UNL     1     -44.395  59.851 -50.044  1.00  0.00    -0.365 N 
HETATM    3  C   UNL     1     -44.441  59.268 -51.278  1.00  0.00     0.138 A 
HETATM    4  N   UNL     1     -44.781  60.003 -52.391  1.00  0.00    -0.240 N 
HETATM    5  N   UNL     1     -44.834  59.297 -53.527  1.00  0.00    -0.181 NA
HETATM    6  C   UNL     1     -44.440  58.081 -53.144  1.00  0.00     0.160 A 
HETATM    7  C   UNL     1     -44.195  57.988 -51.749  1.00  0.00     0.096 A 
HETATM    8  C   UNL     1     -45.048  61.428 -52.393  1.00  0.00     0.221 C 
HETATM    9  C   UNL     1     -45.485  61.861 -50.991  1.00  0.00     0.066 C 
HETATM   10  H   UNL     1     -43.749  59.476 -49.348  1.00  0.00     0.161 HD
ENDROOT
BRANCH   7  11
HETATM   11  C   UNL     1     -43.770  56.779 -51.062  1.00  0.00     0.261 C 
HETATM   12  N   UNL     1     -42.403  56.581 -51.047  1.00  0.00    -0.323 N 
HETATM   13  H   UNL     1     -41.846  57.351 -51.399  1.00  0.00     0.169 HD
HETATM   14  O   UNL     1     -44.603  56.052 -50.533  1.00  0.00    -0.267 OA
BRANCH  12  15
HETATM   15  C   UNL     1     -41.705  55.469 -50.526  1.00  0.00     0.037 A 
HETATM   16  C   UNL     1     -41.455  55.276 -49.163  1.00  0.00     0.066 A 
HETATM   17  C   UNL     1     -40.764  54.143 -48.735  1.00  0.00     0.067 A 
HETATM   18  C   UNL     1     -40.321  53.190 -49.640  1.00  0.00     0.036 A 
HETATM   19  C   UNL     1     -40.569  53.371 -50.998  1.00  0.00     0.005 A 
HETATM   20  C   UNL     1     -41.257  54.506 -51.439  1.00  0.00     0.029 A 
BRANCH  17  21
HETATM   21  O   UNL     1     -40.502  53.933 -47.411  1.00  0.00    -0.361 OA
HETATM   22  H   UNL     1     -41.347  53.792 -46.951  1.00  0.00     0.217 HD
ENDBRANCH  17  21
ENDBRANCH  12  15
ENDBRANCH   7  11
BRANCH   1  23
HETATM   23  C   UNL     1     -45.034  61.681 -48.536  1.00  0.00    -0.033 A 
HETATM   24  C   UNL     1     -45.894  60.834 -47.816  1.00  0.00     0.046 A 
HETATM   25  C   UNL     1     -46.454  61.233 -46.599  1.00  0.00     0.068 A 
HETATM   26  C   UNL     1     -46.123  62.479 -46.068  1.00  0.00     0.037 A 
HETATM   27  C   UNL     1     -45.251  63.323 -46.758  1.00  0.00     0.003 A 
HETATM   28  C   UNL     1     -44.715  62.932 -47.986  1.00  0.00     0.009 A 
BRANCH  25  29
HETATM   29  O   UNL     1     -47.305  60.324 -46.031  1.00  0.00    -0.356 OA
HETATM   30  C   UNL     1     -46.799  59.004 -45.864  1.00  0.00     0.210 C 
ENDBRANCH  25  29
ENDBRANCH   1  23
BRANCH   8  31
HETATM   31  C   UNL     1     -43.827  62.180 -52.878  1.00  0.00     0.409 C 
HETATM   32  F   UNL     1     -42.668  61.546 -52.591  1.00  0.00    -0.169 F 
HETATM   33  F   UNL     1     -43.846  62.423 -54.204  1.00  0.00    -0.169 F 
HETATM   34  F   UNL     1     -43.761  63.392 -52.265  1.00  0.00    -0.169 F 
ENDBRANCH   8  31
TORSDOF 6
ENDMDL
MODEL 10
REMARK VINA RESULT:      -7.9      3.250      7.402
REMARK  6 active torsions:
REMARK  status: ('A' for Active; 'I' for Inactive)
REMARK    1  A    between atoms: O_2  and  C_3 
REMARK    2  A    between atoms: C_5  and  C_6 
REMARK    3  A    between atoms: C_12  and  C_13 
REMARK       I    between atoms: C_13  and  N_14 
REMARK    4  A    between atoms: N_14  and  C_15 
REMARK    5  A    between atoms: C_17  and  O_18 
REMARK    6  A    between atoms: C_23  and  C_24 
ROOT
HETATM    1  C   UNL     1     -42.118  56.400 -51.381  1.00  0.00     0.118 C 
HETATM    2  N   UNL     1     -42.296  56.147 -52.819  1.00  0.00    -0.365 N 
HETATM    3  C   UNL     1     -41.738  55.038 -53.389  1.00  0.00     0.138 A 
HETATM    4  N   UNL     1     -40.870  54.242 -52.675  1.00  0.00    -0.240 N 
HETATM    5  N   UNL     1     -40.361  53.216 -53.370  1.00  0.00    -0.181 NA
HETATM    6  C   UNL     1     -40.982  53.313 -54.546  1.00  0.00     0.160 A 
HETATM    7  C   UNL     1     -41.843  54.437 -54.633  1.00  0.00     0.096 A 
HETATM    8  C   UNL     1     -40.520  54.439 -51.283  1.00  0.00     0.221 C 
HETATM    9  C   UNL     1     -40.738  55.908 -50.911  1.00  0.00     0.066 C 
HETATM   10  H   UNL     1     -43.216  56.453 -53.139  1.00  0.00     0.161 HD
ENDROOT
BRANCH   7  11
HETATM   11  C   UNL     1     -42.630  54.790 -55.804  1.00  0.00     0.261 C 
HETATM   12  N   UNL     1     -42.216  55.943 -56.444  1.00  0.00    -0.323 N 
HETATM   13  H   UNL     1     -41.346  56.340 -56.109  1.00  0.00     0.169 HD
HETATM   14  O   UNL     1     -43.553  54.067 -56.161  1.00  0.00    -0.267 OA
BRANCH  12  15
HETATM   15  C   UNL     1     -42.824  56.571 -57.552  1.00  0.00     0.037 A 
HETATM   16  C   UNL     1     -43.064  55.934 -58.774  1.00  0.00     0.066 A 
HETATM   17  C   UNL     1     -43.678  56.629 -59.814  1.00  0.00     0.067 A 
HETATM   18  C   UNL     1     -44.066  57.953 -59.661  1.00  0.00     0.036 A 
HETATM   19  C   UNL     1     -43.836  58.594 -58.447  1.00  0.00     0.005 A 
HETATM   20  C   UNL     1     -43.216  57.907 -57.398  1.00  0.00     0.029 A 
BRANCH  17  21
HETATM   21  O   UNL     1     -43.920  56.032 -61.018  1.00  0.00    -0.361 OA
HETATM   22  H   UNL     1     -44.713  56.439 -61.409  1.00  0.00     0.217 HD
ENDBRANCH  17  21
ENDBRANCH  12  15
ENDBRANCH   7  11
BRANCH   1  23
HETATM   23  C   UNL     1     -42.273  57.878 -51.077  1.00  0.00    -0.033 A 
HETATM   24  C   UNL     1     -43.432  58.585 -51.442  1.00  0.00     0.046 A 
HETATM   25  C   UNL     1     -43.519  59.970 -51.273  1.00  0.00     0.068 A 
HETATM   26  C   UNL     1     -42.454  60.659 -50.695  1.00  0.00     0.037 A 
HETATM   27  C   UNL     1     -41.305  59.969 -50.306  1.00  0.00     0.003 A 
HETATM   28  C   UNL     1     -41.210  58.590 -50.501  1.00  0.00     0.009 A 
BRANCH  25  29
HETATM   29  O   UNL     1     -44.689  60.530 -51.710  1.00  0.00    -0.356 OA
HETATM   30  C   UNL     1     -45.875  59.779 -51.477  1.00  0.00     0.210 C 
ENDBRANCH  25  29
ENDBRANCH   1  23
BRANCH   8  31
HETATM   31  C   UNL     1     -41.321  53.495 -50.412  1.00  0.00     0.409 C 
HETATM   32  F   UNL     1     -42.573  53.283 -50.874  1.00  0.00    -0.169 F 
HETATM   33  F   UNL     1     -40.733  52.292 -50.252  1.00  0.00    -0.169 F 
HETATM   34  F   UNL     1     -41.458  54.025 -49.167  1.00  0.00    -0.169 F 
ENDBRANCH   8  31
TORSDOF 6
ENDMDL
