MODEL 1
REMARK VINA RESULT:      -8.9      0.000      0.000
REMARK  5 active torsions:
REMARK  status: ('A' for Active; 'I' for Inactive)
REMARK    1  A    between atoms: C_4  and  O_5 
REMARK    2  A    between atoms: O_5  and  C_6 
REMARK    3  A    between atoms: C_6  and  C_7 
REMARK       I    between atoms: C_7  and  N_8 
REMARK    4  A    between atoms: N_8  and  C_9 
REMARK    5  A    between atoms: C_11  and  C_12 
ROOT
HETATM    1  C   UNL     1     -41.873  57.190 -52.519  1.00  0.00     0.035 A 
HETATM    2  C   UNL     1     -41.409  55.902 -52.804  1.00  0.00     0.045 A 
HETATM    3  C   UNL     1     -40.979  55.042 -51.779  1.00  0.00     0.019 A 
HETATM    4  C   UNL     1     -40.991  55.509 -50.458  1.00  0.00     0.016 A 
HETATM    5  C   UNL     1     -41.448  56.793 -50.162  1.00  0.00     0.003 A 
HETATM    6  C   UNL     1     -41.898  57.624 -51.189  1.00  0.00     0.029 A 
ENDROOT
BRANCH   1   7
HETATM    7  N   UNL     1     -42.352  58.083 -53.498  1.00  0.00    -0.325 N 
HETATM    8  C   UNL     1     -41.684  59.158 -54.060  1.00  0.00     0.251 C 
HETATM    9  O   UNL     1     -40.573  59.571 -53.738  1.00  0.00    -0.270 OA
HETATM   10  H   UNL     1     -43.288  57.912 -53.852  1.00  0.00     0.169 HD
BRANCH   8  11
HETATM   11  C   UNL     1     -42.493  59.873 -55.155  1.00  0.00     0.217 C 
HETATM   12  C   UNL     1     -43.442  60.883 -54.514  1.00  0.00     0.050 C 
BRANCH  11  13
HETATM   13  O   UNL     1     -43.295  58.952 -55.903  1.00  0.00    -0.337 OA
BRANCH  13  14
HETATM   14  C   UNL     1     -42.926  58.846 -57.219  1.00  0.00     0.070 A 
HETATM   15  C   UNL     1     -42.504  59.932 -57.989  1.00  0.00     0.043 A 
HETATM   16  C   UNL     1     -42.135  59.746 -59.327  1.00  0.00    -0.059 A 
HETATM   17  C   UNL     1     -41.673  60.902 -60.166  1.00  0.00     0.048 C 
HETATM   18  C   UNL     1     -42.175  58.456 -59.876  1.00  0.00     0.013 A 
HETATM   19  C   UNL     1     -42.580  57.359 -59.103  1.00  0.00    -0.059 A 
HETATM   20  C   UNL     1     -42.936  57.563 -57.765  1.00  0.00     0.043 A 
HETATM   21  C   UNL     1     -42.594  55.985 -59.703  1.00  0.00     0.048 C 
ENDBRANCH  13  14
ENDBRANCH  11  13
ENDBRANCH   8  11
ENDBRANCH   1   7
BRANCH   3  22
HETATM   22  C   UNL     1     -40.551  53.670 -52.053  1.00  0.00     0.181 A 
HETATM   23  O   UNL     1     -40.620  53.256 -53.361  1.00  0.00    -0.289 OA
HETATM   24  C   UNL     1     -40.226  51.952 -53.317  1.00  0.00     0.106 A 
HETATM   25  C   UNL     1     -39.934  51.642 -52.000  1.00  0.00     0.093 A 
HETATM   26  C   UNL     1     -40.131  51.065 -54.382  1.00  0.00     0.040 A 
HETATM   27  N   UNL     1     -40.142  52.742 -51.204  1.00  0.00    -0.221 NA
HETATM   28  C   UNL     1     -39.507  50.344 -51.690  1.00  0.00     0.034 A 
HETATM   29  C   UNL     1     -39.400  49.415 -52.737  1.00  0.00     0.002 A 
HETATM   30  C   UNL     1     -39.706  49.772 -54.056  1.00  0.00     0.003 A 
ENDBRANCH   3  22
TORSDOF 5
ENDMDL
MODEL 2
REMARK VINA RESULT:      -8.8      0.169      1.606
REMARK  5 active torsions:
REMARK  status: ('A' for Active; 'I' for Inactive)
REMARK    1  A    between atoms: C_4  and  O_5 
REMARK    2  A    between atoms: O_5  and  C_6 
REMARK    3  A    between atoms: C_6  and  C_7 
REMARK       I    between atoms: C_7  and  N_8 
REMARK    4  A    between atoms: N_8  and  C_9 
REMARK    5  A    between atoms: C_11  and  C_12 
ROOT
HETATM    1  C   UNL     1     -41.885  57.199 -52.491  1.00  0.00     0.035 A 
HETATM    2  C   UNL     1     -41.428  55.909 -52.775  1.00  0.00     0.045 A 
HETATM    3  C   UNL     1     -40.966  55.059 -51.754  1.00  0.00     0.019 A 
HETATM    4  C   UNL     1     -40.941  55.540 -50.438  1.00  0.00     0.016 A 
HETATM    5  C   UNL     1     -41.390  56.828 -50.143  1.00  0.00     0.003 A 
HETATM    6  C   UNL     1     -41.872  57.647 -51.165  1.00  0.00     0.029 A 
ENDROOT
BRANCH   1   7
HETATM    7  N   UNL     1     -42.393  58.081 -53.465  1.00  0.00    -0.325 N 
HETATM    8  C   UNL     1     -41.737  59.138 -54.072  1.00  0.00     0.251 C 
HETATM    9  O   UNL     1     -40.610  59.544 -53.803  1.00  0.00    -0.270 OA
HETATM   10  H   UNL     1     -43.345  57.915 -53.777  1.00  0.00     0.169 HD
BRANCH   8  11
HETATM   11  C   UNL     1     -42.583  59.845 -55.145  1.00  0.00     0.217 C 
HETATM   12  C   UNL     1     -43.456  60.911 -54.490  1.00  0.00     0.050 C 
BRANCH  11  13
HETATM   13  O   UNL     1     -43.460  58.928 -55.811  1.00  0.00    -0.337 OA
BRANCH  13  14
HETATM   14  C   UNL     1     -43.079  58.640 -57.096  1.00  0.00     0.070 A 
HETATM   15  C   UNL     1     -43.167  57.364 -57.656  1.00  0.00     0.043 A 
HETATM   16  C   UNL     1     -42.765  57.146 -58.981  1.00  0.00    -0.059 A 
HETATM   17  C   UNL     1     -42.860  55.782 -59.599  1.00  0.00     0.048 C 
HETATM   18  C   UNL     1     -42.294  58.227 -59.739  1.00  0.00     0.013 A 
HETATM   19  C   UNL     1     -42.220  59.514 -59.188  1.00  0.00    -0.059 A 
HETATM   20  C   UNL     1     -42.636  59.714 -57.867  1.00  0.00     0.043 A 
HETATM   21  C   UNL     1     -41.735  60.660 -60.025  1.00  0.00     0.048 C 
ENDBRANCH  13  14
ENDBRANCH  11  13
ENDBRANCH   8  11
ENDBRANCH   1   7
BRANCH   3  22
HETATM   22  C   UNL     1     -40.545  53.686 -52.027  1.00  0.00     0.181 A 
HETATM   23  O   UNL     1     -40.654  53.257 -53.327  1.00  0.00    -0.289 OA
HETATM   24  C   UNL     1     -40.256  51.954 -53.281  1.00  0.00     0.106 A 
HETATM   25  C   UNL     1     -39.923  51.659 -51.971  1.00  0.00     0.093 A 
HETATM   26  C   UNL     1     -40.193  51.055 -54.338  1.00  0.00     0.040 A 
HETATM   27  N   UNL     1     -40.107  52.767 -51.181  1.00  0.00    -0.221 NA
HETATM   28  C   UNL     1     -39.485  50.366 -51.659  1.00  0.00     0.034 A 
HETATM   29  C   UNL     1     -39.408  49.425 -52.699  1.00  0.00     0.002 A 
HETATM   30  C   UNL     1     -39.756  49.766 -54.012  1.00  0.00     0.003 A 
ENDBRANCH   3  22
TORSDOF 5
ENDMDL
MODEL 3
REMARK VINA RESULT:      -8.5      2.794     10.017
REMARK  5 active torsions:
REMARK  status: ('A' for Active; 'I' for Inactive)
REMARK    1  A    between atoms: C_4  and  O_5 
REMARK    2  A    between atoms: O_5  and  C_6 
REMARK    3  A    between atoms: C_6  and  C_7 
REMARK       I    between atoms: C_7  and  N_8 
REMARK    4  A    between atoms: N_8  and  C_9 
REMARK    5  A    between atoms: C_11  and  C_12 
ROOT
HETATM    1  C   UNL     1     -42.862  56.840 -58.396  1.00  0.00     0.035 A 
HETATM    2  C   UNL     1     -42.153  58.029 -58.599  1.00  0.00     0.045 A 
HETATM    3  C   UNL     1     -42.557  58.959 -59.572  1.00  0.00     0.019 A 
HETATM    4  C   UNL     1     -43.672  58.661 -60.367  1.00  0.00     0.016 A 
HETATM    5  C   UNL     1     -44.384  57.477 -60.177  1.00  0.00     0.003 A 
HETATM    6  C   UNL     1     -43.987  56.578 -59.187  1.00  0.00     0.029 A 
ENDROOT
BRANCH   1   7
HETATM    7  N   UNL     1     -42.528  55.889 -57.413  1.00  0.00    -0.325 N 
HETATM    8  C   UNL     1     -42.464  56.076 -56.042  1.00  0.00     0.251 C 
HETATM    9  O   UNL     1     -42.609  57.141 -55.448  1.00  0.00    -0.270 OA
HETATM   10  H   UNL     1     -42.331  54.947 -57.738  1.00  0.00     0.169 HD
BRANCH   8  11
HETATM   11  C   UNL     1     -42.133  54.791 -55.266  1.00  0.00     0.217 C 
HETATM   12  C   UNL     1     -43.297  54.432 -54.346  1.00  0.00     0.050 C 
BRANCH  11  13
HETATM   13  O   UNL     1     -40.974  54.958 -54.440  1.00  0.00    -0.337 OA
BRANCH  13  14
HETATM   14  C   UNL     1     -40.618  53.823 -53.758  1.00  0.00     0.070 A 
HETATM   15  C   UNL     1     -40.268  52.626 -54.387  1.00  0.00     0.043 A 
HETATM   16  C   UNL     1     -39.906  51.509 -53.623  1.00  0.00    -0.059 A 
HETATM   17  C   UNL     1     -39.522  50.218 -54.284  1.00  0.00     0.048 C 
HETATM   18  C   UNL     1     -39.882  51.614 -52.226  1.00  0.00     0.013 A 
HETATM   19  C   UNL     1     -40.214  52.818 -51.589  1.00  0.00    -0.059 A 
HETATM   20  C   UNL     1     -40.563  53.926 -52.369  1.00  0.00     0.043 A 
HETATM   21  C   UNL     1     -40.157  52.914 -50.094  1.00  0.00     0.048 C 
ENDBRANCH  13  14
ENDBRANCH  11  13
ENDBRANCH   8  11
ENDBRANCH   1   7
BRANCH   3  22
HETATM   22  C   UNL     1     -41.864  60.235 -59.752  1.00  0.00     0.181 A 
HETATM   23  O   UNL     1     -41.681  60.656 -61.046  1.00  0.00    -0.289 OA
HETATM   24  C   UNL     1     -40.975  61.815 -60.921  1.00  0.00     0.106 A 
HETATM   25  C   UNL     1     -40.771  62.042 -59.571  1.00  0.00     0.093 A 
HETATM   26  C   UNL     1     -40.522  62.639 -61.943  1.00  0.00     0.040 A 
HETATM   27  N   UNL     1     -41.341  61.033 -58.836  1.00  0.00    -0.221 NA
HETATM   28  C   UNL     1     -40.056  63.181 -59.178  1.00  0.00     0.034 A 
HETATM   29  C   UNL     1     -39.577  64.040 -60.180  1.00  0.00     0.002 A 
HETATM   30  C   UNL     1     -39.807  63.772 -61.536  1.00  0.00     0.003 A 
ENDBRANCH   3  22
TORSDOF 5
ENDMDL
MODEL 4
REMARK VINA RESULT:      -8.5      1.033      1.513
REMARK  5 active torsions:
REMARK  status: ('A' for Active; 'I' for Inactive)
REMARK    1  A    between atoms: C_4  and  O_5 
REMARK    2  A    between atoms: O_5  and  C_6 
REMARK    3  A    between atoms: C_6  and  C_7 
REMARK       I    between atoms: C_7  and  N_8 
REMARK    4  A    between atoms: N_8  and  C_9 
REMARK    5  A    between atoms: C_11  and  C_12 
ROOT
HETATM    1  C   UNL     1     -41.885  57.194 -52.604  1.00  0.00     0.035 A 
HETATM    2  C   UNL     1     -41.412  55.900 -52.844  1.00  0.00     0.045 A 
HETATM    3  C   UNL     1     -40.985  55.075 -51.789  1.00  0.00     0.019 A 
HETATM    4  C   UNL     1     -41.009  55.584 -50.483  1.00  0.00     0.016 A 
HETATM    5  C   UNL     1     -41.475  56.875 -50.232  1.00  0.00     0.003 A 
HETATM    6  C   UNL     1     -41.922  57.670 -51.288  1.00  0.00     0.029 A 
ENDROOT
BRANCH   1   7
HETATM    7  N   UNL     1     -42.361  58.053 -53.614  1.00  0.00    -0.325 N 
HETATM    8  C   UNL     1     -41.707  59.133 -54.182  1.00  0.00     0.251 C 
HETATM    9  O   UNL     1     -40.616  59.583 -53.841  1.00  0.00    -0.270 OA
HETATM   10  H   UNL     1     -43.283  57.849 -53.988  1.00  0.00     0.169 HD
BRANCH   8  11
HETATM   11  C   UNL     1     -42.506  59.803 -55.312  1.00  0.00     0.217 C 
HETATM   12  C   UNL     1     -43.994  59.777 -54.975  1.00  0.00     0.050 C 
BRANCH  11  13
HETATM   13  O   UNL     1     -42.340  59.110 -56.556  1.00  0.00    -0.337 OA
BRANCH  13  14
HETATM   14  C   UNL     1     -42.011  59.933 -57.602  1.00  0.00     0.070 A 
HETATM   15  C   UNL     1     -41.437  61.195 -57.438  1.00  0.00     0.043 A 
HETATM   16  C   UNL     1     -41.120  61.976 -58.556  1.00  0.00    -0.059 A 
HETATM   17  C   UNL     1     -40.496  63.332 -58.396  1.00  0.00     0.048 C 
HETATM   18  C   UNL     1     -41.368  61.468 -59.839  1.00  0.00     0.013 A 
HETATM   19  C   UNL     1     -41.927  60.195 -60.012  1.00  0.00    -0.059 A 
HETATM   20  C   UNL     1     -42.228  59.424 -58.882  1.00  0.00     0.043 A 
HETATM   21  C   UNL     1     -42.162  59.661 -61.393  1.00  0.00     0.048 C 
ENDBRANCH  13  14
ENDBRANCH  11  13
ENDBRANCH   8  11
ENDBRANCH   1   7
BRANCH   3  22
HETATM   22  C   UNL     1     -40.548  53.698 -52.017  1.00  0.00     0.181 A 
HETATM   23  O   UNL     1     -40.579  53.251 -53.315  1.00  0.00    -0.289 OA
HETATM   24  C   UNL     1     -40.185  51.949 -53.227  1.00  0.00     0.106 A 
HETATM   25  C   UNL     1     -39.931  51.673 -51.895  1.00  0.00     0.093 A 
HETATM   26  C   UNL     1     -40.059  51.036 -54.266  1.00  0.00     0.040 A 
HETATM   27  N   UNL     1     -40.162  52.792 -51.133  1.00  0.00    -0.221 NA
HETATM   28  C   UNL     1     -39.512  50.384 -51.540  1.00  0.00     0.034 A 
HETATM   29  C   UNL     1     -39.374  49.429 -52.560  1.00  0.00     0.002 A 
HETATM   30  C   UNL     1     -39.643  49.752 -53.896  1.00  0.00     0.003 A 
ENDBRANCH   3  22
TORSDOF 5
ENDMDL
MODEL 5
REMARK VINA RESULT:      -8.5      1.743      2.142
REMARK  5 active torsions:
REMARK  status: ('A' for Active; 'I' for Inactive)
REMARK    1  A    between atoms: C_4  and  O_5 
REMARK    2  A    between atoms: O_5  and  C_6 
REMARK    3  A    between atoms: C_6  and  C_7 
REMARK       I    between atoms: C_7  and  N_8 
REMARK    4  A    between atoms: N_8  and  C_9 
REMARK    5  A    between atoms: C_11  and  C_12 
ROOT
HETATM    1  C   UNL     1     -42.126  57.219 -52.995  1.00  0.00     0.035 A 
HETATM    2  C   UNL     1     -41.629  55.922 -53.154  1.00  0.00     0.045 A 
HETATM    3  C   UNL     1     -41.102  55.207 -52.064  1.00  0.00     0.019 A 
HETATM    4  C   UNL     1     -41.052  55.830 -50.810  1.00  0.00     0.016 A 
HETATM    5  C   UNL     1     -41.541  57.126 -50.641  1.00  0.00     0.003 A 
HETATM    6  C   UNL     1     -42.086  57.811 -51.727  1.00  0.00     0.029 A 
ENDROOT
BRANCH   1   7
HETATM    7  N   UNL     1     -42.699  57.971 -54.040  1.00  0.00    -0.325 N 
HETATM    8  C   UNL     1     -43.926  57.771 -54.650  1.00  0.00     0.251 C 
HETATM    9  O   UNL     1     -44.699  56.842 -54.437  1.00  0.00    -0.270 OA
HETATM   10  H   UNL     1     -42.164  58.766 -54.375  1.00  0.00     0.169 HD
BRANCH   8  11
HETATM   11  C   UNL     1     -44.258  58.833 -55.712  1.00  0.00     0.217 C 
HETATM   12  C   UNL     1     -44.559  60.165 -55.030  1.00  0.00     0.050 C 
BRANCH  11  13
HETATM   13  O   UNL     1     -45.418  58.472 -56.471  1.00  0.00    -0.337 OA
BRANCH  13  14
HETATM   14  C   UNL     1     -45.127  57.983 -57.719  1.00  0.00     0.070 A 
HETATM   15  C   UNL     1     -43.832  57.913 -58.235  1.00  0.00     0.043 A 
HETATM   16  C   UNL     1     -43.611  57.392 -59.516  1.00  0.00    -0.059 A 
HETATM   17  C   UNL     1     -42.224  57.304 -60.082  1.00  0.00     0.048 C 
HETATM   18  C   UNL     1     -44.702  56.927 -60.264  1.00  0.00     0.013 A 
HETATM   19  C   UNL     1     -46.003  56.978 -59.744  1.00  0.00    -0.059 A 
HETATM   20  C   UNL     1     -46.203  57.492 -58.458  1.00  0.00     0.043 A 
HETATM   21  C   UNL     1     -47.152  56.453 -60.552  1.00  0.00     0.048 C 
ENDBRANCH  13  14
ENDBRANCH  11  13
ENDBRANCH   8  11
ENDBRANCH   1   7
BRANCH   3  22
HETATM   22  C   UNL     1     -40.638  53.826 -52.201  1.00  0.00     0.181 A 
HETATM   23  O   UNL     1     -40.655  53.296 -53.467  1.00  0.00    -0.289 OA
HETATM   24  C   UNL     1     -40.236  52.010 -53.294  1.00  0.00     0.106 A 
HETATM   25  C   UNL     1     -39.982  51.826 -51.946  1.00  0.00     0.093 A 
HETATM   26  C   UNL     1     -40.088  51.035 -54.272  1.00  0.00     0.040 A 
HETATM   27  N   UNL     1     -40.238  52.987 -51.260  1.00  0.00    -0.221 NA
HETATM   28  C   UNL     1     -39.540  50.571 -51.507  1.00  0.00     0.034 A 
HETATM   29  C   UNL     1     -39.379  49.555 -52.463  1.00  0.00     0.002 A 
HETATM   30  C   UNL     1     -39.648  49.786 -53.818  1.00  0.00     0.003 A 
ENDBRANCH   3  22
TORSDOF 5
ENDMDL
MODEL 6
REMARK VINA RESULT:      -8.1      1.555      1.845
REMARK  5 active torsions:
REMARK  status: ('A' for Active; 'I' for Inactive)
REMARK    1  A    between atoms: C_4  and  O_5 
REMARK    2  A    between atoms: O_5  and  C_6 
REMARK    3  A    between atoms: C_6  and  C_7 
REMARK       I    between atoms: C_7  and  N_8 
REMARK    4  A    between atoms: N_8  and  C_9 
REMARK    5  A    between atoms: C_11  and  C_12 
ROOT
HETATM    1  C   UNL     1     -42.134  57.451 -53.325  1.00  0.00     0.035 A 
HETATM    2  C   UNL     1     -41.734  56.134 -53.575  1.00  0.00     0.045 A 
HETATM    3  C   UNL     1     -41.221  55.323 -52.548  1.00  0.00     0.019 A 
HETATM    4  C   UNL     1     -41.085  55.867 -51.264  1.00  0.00     0.016 A 
HETATM    5  C   UNL     1     -41.476  57.181 -51.004  1.00  0.00     0.003 A 
HETATM    6  C   UNL     1     -42.009  57.963 -52.028  1.00  0.00     0.029 A 
ENDROOT
BRANCH   1   7
HETATM    7  N   UNL     1     -42.689  58.299 -54.303  1.00  0.00    -0.325 N 
HETATM    8  C   UNL     1     -43.968  58.256 -54.832  1.00  0.00     0.251 C 
HETATM    9  O   UNL     1     -44.824  57.408 -54.593  1.00  0.00    -0.270 OA
HETATM   10  H   UNL     1     -42.093  59.044 -54.651  1.00  0.00     0.169 HD
BRANCH   8  11
HETATM   11  C   UNL     1     -44.251  59.387 -55.835  1.00  0.00     0.217 C 
HETATM   12  C   UNL     1     -45.003  60.516 -55.136  1.00  0.00     0.050 C 
BRANCH  11  13
HETATM   13  O   UNL     1     -45.074  58.935 -56.918  1.00  0.00    -0.337 OA
BRANCH  13  14
HETATM   14  C   UNL     1     -44.360  58.537 -58.019  1.00  0.00     0.070 A 
HETATM   15  C   UNL     1     -43.545  59.395 -58.760  1.00  0.00     0.043 A 
HETATM   16  C   UNL     1     -42.839  58.914 -59.869  1.00  0.00    -0.059 A 
HETATM   17  C   UNL     1     -41.955  59.823 -60.672  1.00  0.00     0.048 C 
HETATM   18  C   UNL     1     -42.947  57.559 -60.214  1.00  0.00     0.013 A 
HETATM   19  C   UNL     1     -43.749  56.688 -59.464  1.00  0.00    -0.059 A 
HETATM   20  C   UNL     1     -44.439  57.185 -58.352  1.00  0.00     0.043 A 
HETATM   21  C   UNL     1     -43.830  55.238 -59.836  1.00  0.00     0.048 C 
ENDBRANCH  13  14
ENDBRANCH  11  13
ENDBRANCH   8  11
ENDBRANCH   1   7
BRANCH   3  22
HETATM   22  C   UNL     1     -40.859  53.925 -52.779  1.00  0.00     0.181 A 
HETATM   23  O   UNL     1     -40.416  53.217 -51.689  1.00  0.00    -0.289 OA
HETATM   24  C   UNL     1     -40.102  51.991 -52.194  1.00  0.00     0.106 A 
HETATM   25  C   UNL     1     -40.373  52.011 -53.551  1.00  0.00     0.093 A 
HETATM   26  C   UNL     1     -39.593  50.900 -51.501  1.00  0.00     0.040 A 
HETATM   27  N   UNL     1     -40.856  53.244 -53.914  1.00  0.00    -0.221 NA
HETATM   28  C   UNL     1     -40.126  50.857 -54.307  1.00  0.00     0.034 A 
HETATM   29  C   UNL     1     -39.609  49.732 -53.646  1.00  0.00     0.002 A 
HETATM   30  C   UNL     1     -39.349  49.755 -52.270  1.00  0.00     0.003 A 
ENDBRANCH   3  22
TORSDOF 5
ENDMDL
MODEL 7
REMARK VINA RESULT:      -8.0      4.250      9.220
REMARK  5 active torsions:
REMARK  status: ('A' for Active; 'I' for Inactive)
REMARK    1  A    between atoms: C_4  and  O_5 
REMARK    2  A    between atoms: O_5  and  C_6 
REMARK    3  A    between atoms: C_6  and  C_7 
REMARK       I    between atoms: C_7  and  N_8 
REMARK    4  A    between atoms: N_8  and  C_9 
REMARK    5  A    between atoms: C_11  and  C_12 
ROOT
HETATM    1  C   UNL     1     -44.162  59.060 -52.985  1.00  0.00     0.035 A 
HETATM    2  C   UNL     1     -44.257  59.522 -51.669  1.00  0.00     0.045 A 
HETATM    3  C   UNL     1     -45.132  60.568 -51.327  1.00  0.00     0.019 A 
HETATM    4  C   UNL     1     -45.891  61.169 -52.340  1.00  0.00     0.016 A 
HETATM    5  C   UNL     1     -45.802  60.720 -53.657  1.00  0.00     0.003 A 
HETATM    6  C   UNL     1     -44.950  59.661 -53.974  1.00  0.00     0.029 A 
ENDROOT
BRANCH   1   7
HETATM    7  N   UNL     1     -43.333  57.992 -53.382  1.00  0.00    -0.325 N 
HETATM    8  C   UNL     1     -43.700  56.847 -54.069  1.00  0.00     0.251 C 
HETATM    9  O   UNL     1     -44.842  56.524 -54.384  1.00  0.00    -0.270 OA
HETATM   10  H   UNL     1     -42.346  58.075 -53.158  1.00  0.00     0.169 HD
BRANCH   8  11
HETATM   11  C   UNL     1     -42.513  55.926 -54.395  1.00  0.00     0.217 C 
HETATM   12  C   UNL     1     -42.123  56.088 -55.862  1.00  0.00     0.050 C 
BRANCH  11  13
HETATM   13  O   UNL     1     -42.847  54.547 -54.195  1.00  0.00    -0.337 OA
BRANCH  13  14
HETATM   14  C   UNL     1     -41.863  53.830 -53.564  1.00  0.00     0.070 A 
HETATM   15  C   UNL     1     -41.364  54.154 -52.301  1.00  0.00     0.043 A 
HETATM   16  C   UNL     1     -40.363  53.369 -51.716  1.00  0.00    -0.059 A 
HETATM   17  C   UNL     1     -39.821  53.700 -50.356  1.00  0.00     0.048 C 
HETATM   18  C   UNL     1     -39.883  52.246 -52.405  1.00  0.00     0.013 A 
HETATM   19  C   UNL     1     -40.392  51.905 -53.665  1.00  0.00    -0.059 A 
HETATM   20  C   UNL     1     -41.400  52.695 -54.230  1.00  0.00     0.043 A 
HETATM   21  C   UNL     1     -39.881  50.686 -54.374  1.00  0.00     0.048 C 
ENDBRANCH  13  14
ENDBRANCH  11  13
ENDBRANCH   8  11
ENDBRANCH   1   7
BRANCH   3  22
HETATM   22  C   UNL     1     -45.290  61.019 -49.944  1.00  0.00     0.181 A 
HETATM   23  O   UNL     1     -44.927  62.316 -49.677  1.00  0.00    -0.289 OA
HETATM   24  C   UNL     1     -45.120  62.444 -48.334  1.00  0.00     0.106 A 
HETATM   25  C   UNL     1     -45.590  61.233 -47.857  1.00  0.00     0.093 A 
HETATM   26  C   UNL     1     -44.887  63.569 -47.554  1.00  0.00     0.040 A 
HETATM   27  N   UNL     1     -45.697  60.334 -48.888  1.00  0.00    -0.221 NA
HETATM   28  C   UNL     1     -45.862  61.105 -46.488  1.00  0.00     0.034 A 
HETATM   29  C   UNL     1     -45.639  62.219 -45.663  1.00  0.00     0.002 A 
HETATM   30  C   UNL     1     -45.161  63.426 -46.188  1.00  0.00     0.003 A 
ENDBRANCH   3  22
TORSDOF 5
ENDMDL
MODEL 8
REMARK VINA RESULT:      -7.9      5.109      9.935
REMARK  5 active torsions:
REMARK  status: ('A' for Active; 'I' for Inactive)
REMARK    1  A    between atoms: C_4  and  O_5 
REMARK    2  A    between atoms: O_5  and  C_6 
REMARK    3  A    between atoms: C_6  and  C_7 
REMARK       I    between atoms: C_7  and  N_8 
REMARK    4  A    between atoms: N_8  and  C_9 
REMARK    5  A    between atoms: C_11  and  C_12 
ROOT
HETATM    1  C   UNL     1     -44.076  59.659 -51.755  1.00  0.00     0.035 A 
HETATM    2  C   UNL     1     -44.239  60.295 -50.521  1.00  0.00     0.045 A 
HETATM    3  C   UNL     1     -45.379  61.071 -50.248  1.00  0.00     0.019 A 
HETATM    4  C   UNL     1     -46.344  61.226 -51.251  1.00  0.00     0.016 A 
HETATM    5  C   UNL     1     -46.190  60.600 -52.489  1.00  0.00     0.003 A 
HETATM    6  C   UNL     1     -45.066  59.811 -52.733  1.00  0.00     0.029 A 
ENDROOT
BRANCH   1   7
HETATM    7  N   UNL     1     -42.975  58.840 -52.074  1.00  0.00    -0.325 N 
HETATM    8  C   UNL     1     -42.913  57.457 -52.042  1.00  0.00     0.251 C 
HETATM    9  O   UNL     1     -43.796  56.700 -51.647  1.00  0.00    -0.270 OA
HETATM   10  H   UNL     1     -42.131  59.312 -52.383  1.00  0.00     0.169 HD
BRANCH   8  11
HETATM   11  C   UNL     1     -41.565  56.896 -52.523  1.00  0.00     0.217 C 
HETATM   12  C   UNL     1     -40.812  57.968 -53.306  1.00  0.00     0.050 C 
BRANCH  11  13
HETATM   13  O   UNL     1     -41.744  55.777 -53.401  1.00  0.00    -0.337 OA
BRANCH  13  14
HETATM   14  C   UNL     1     -41.191  54.615 -52.927  1.00  0.00     0.070 A 
HETATM   15  C   UNL     1     -40.789  53.562 -53.751  1.00  0.00     0.043 A 
HETATM   16  C   UNL     1     -40.224  52.408 -53.195  1.00  0.00    -0.059 A 
HETATM   17  C   UNL     1     -39.781  51.271 -54.069  1.00  0.00     0.048 C 
HETATM   18  C   UNL     1     -40.051  52.331 -51.806  1.00  0.00     0.013 A 
HETATM   19  C   UNL     1     -40.436  53.391 -50.974  1.00  0.00    -0.059 A 
HETATM   20  C   UNL     1     -40.989  54.541 -51.549  1.00  0.00     0.043 A 
HETATM   21  C   UNL     1     -40.220  53.298 -49.493  1.00  0.00     0.048 C 
ENDBRANCH  13  14
ENDBRANCH  11  13
ENDBRANCH   8  11
ENDBRANCH   1   7
BRANCH   3  22
HETATM   22  C   UNL     1     -45.594  61.690 -48.940  1.00  0.00     0.181 A 
HETATM   23  O   UNL     1     -46.825  62.260 -48.726  1.00  0.00    -0.289 OA
HETATM   24  C   UNL     1     -46.729  62.798 -47.477  1.00  0.00     0.106 A 
HETATM   25  C   UNL     1     -45.460  62.526 -46.996  1.00  0.00     0.093 A 
HETATM   26  C   UNL     1     -47.707  63.504 -46.788  1.00  0.00     0.040 A 
HETATM   27  N   UNL     1     -44.747  61.819 -47.932  1.00  0.00    -0.221 NA
HETATM   28  C   UNL     1     -45.109  62.985 -45.720  1.00  0.00     0.034 A 
HETATM   29  C   UNL     1     -46.067  63.706 -44.989  1.00  0.00     0.002 A 
HETATM   30  C   UNL     1     -47.341  63.958 -45.515  1.00  0.00     0.003 A 
ENDBRANCH   3  22
TORSDOF 5
ENDMDL
MODEL 9
REMARK VINA RESULT:      -7.9      3.873      9.924
REMARK  5 active torsions:
REMARK  status: ('A' for Active; 'I' for Inactive)
REMARK    1  A    between atoms: C_4  and  O_5 
REMARK    2  A    between atoms: O_5  and  C_6 
REMARK    3  A    between atoms: C_6  and  C_7 
REMARK       I    between atoms: C_7  and  N_8 
REMARK    4  A    between atoms: N_8  and  C_9 
REMARK    5  A    between atoms: C_11  and  C_12 
ROOT
HETATM    1  C   UNL     1     -42.935  57.213 -57.812  1.00  0.00     0.035 A 
HETATM    2  C   UNL     1     -44.179  57.316 -58.442  1.00  0.00     0.045 A 
HETATM    3  C   UNL     1     -44.436  58.329 -59.382  1.00  0.00     0.019 A 
HETATM    4  C   UNL     1     -43.428  59.263 -59.658  1.00  0.00     0.016 A 
HETATM    5  C   UNL     1     -42.185  59.173 -59.032  1.00  0.00     0.003 A 
HETATM    6  C   UNL     1     -41.937  58.144 -58.123  1.00  0.00     0.029 A 
ENDROOT
BRANCH   1   7
HETATM    7  N   UNL     1     -42.606  56.199 -56.890  1.00  0.00    -0.325 N 
HETATM    8  C   UNL     1     -43.141  55.998 -55.629  1.00  0.00     0.251 C 
HETATM    9  O   UNL     1     -43.947  56.727 -55.058  1.00  0.00    -0.270 OA
HETATM   10  H   UNL     1     -41.911  55.521 -57.188  1.00  0.00     0.169 HD
BRANCH   8  11
HETATM   11  C   UNL     1     -42.592  54.744 -54.928  1.00  0.00     0.217 C 
HETATM   12  C   UNL     1     -43.308  54.547 -53.594  1.00  0.00     0.050 C 
BRANCH  11  13
HETATM   13  O   UNL     1     -41.193  54.871 -54.644  1.00  0.00    -0.337 OA
BRANCH  13  14
HETATM   14  C   UNL     1     -40.715  53.904 -53.798  1.00  0.00     0.070 A 
HETATM   15  C   UNL     1     -40.588  54.083 -52.419  1.00  0.00     0.043 A 
HETATM   16  C   UNL     1     -40.099  53.045 -51.615  1.00  0.00    -0.059 A 
HETATM   17  C   UNL     1     -39.963  53.220 -50.131  1.00  0.00     0.048 C 
HETATM   18  C   UNL     1     -39.759  51.822 -52.209  1.00  0.00     0.013 A 
HETATM   19  C   UNL     1     -39.901  51.629 -53.590  1.00  0.00    -0.059 A 
HETATM   20  C   UNL     1     -40.401  52.674 -54.376  1.00  0.00     0.043 A 
HETATM   21  C   UNL     1     -39.553  50.304 -54.202  1.00  0.00     0.048 C 
ENDBRANCH  13  14
ENDBRANCH  11  13
ENDBRANCH   8  11
ENDBRANCH   1   7
BRANCH   3  22
HETATM   22  C   UNL     1     -45.709  58.412 -60.097  1.00  0.00     0.181 A 
HETATM   23  O   UNL     1     -46.227  57.230 -60.567  1.00  0.00    -0.289 OA
HETATM   24  C   UNL     1     -47.361  57.603 -61.225  1.00  0.00     0.106 A 
HETATM   25  C   UNL     1     -47.478  58.978 -61.120  1.00  0.00     0.093 A 
HETATM   26  C   UNL     1     -48.253  56.778 -61.898  1.00  0.00     0.040 A 
HETATM   27  N   UNL     1     -46.425  59.483 -60.398  1.00  0.00    -0.221 NA
HETATM   28  C   UNL     1     -48.571  59.611 -61.726  1.00  0.00     0.034 A 
HETATM   29  C   UNL     1     -49.496  58.814 -62.419  1.00  0.00     0.002 A 
HETATM   30  C   UNL     1     -49.338  57.425 -62.501  1.00  0.00     0.003 A 
ENDBRANCH   3  22
TORSDOF 5
ENDMDL
MODEL 10
REMARK VINA RESULT:      -7.8      2.312      8.018
REMARK  5 active torsions:
REMARK  status: ('A' for Active; 'I' for Inactive)
REMARK    1  A    between atoms: C_4  and  O_5 
REMARK    2  A    between atoms: O_5  and  C_6 
REMARK    3  A    between atoms: C_6  and  C_7 
REMARK       I    between atoms: C_7  and  N_8 
REMARK    4  A    between atoms: N_8  and  C_9 
REMARK    5  A    between atoms: C_11  and  C_12 
ROOT
HETATM    1  C   UNL     1     -43.708  57.105 -52.193  1.00  0.00     0.035 A 
HETATM    2  C   UNL     1     -43.692  56.921 -53.579  1.00  0.00     0.045 A 
HETATM    3  C   UNL     1     -44.304  57.846 -54.443  1.00  0.00     0.019 A 
HETATM    4  C   UNL     1     -44.966  58.950 -53.888  1.00  0.00     0.016 A 
HETATM    5  C   UNL     1     -44.992  59.142 -52.507  1.00  0.00     0.003 A 
HETATM    6  C   UNL     1     -44.355  58.229 -51.665  1.00  0.00     0.029 A 
ENDROOT
BRANCH   1   7
HETATM    7  N   UNL     1     -43.081  56.234 -51.281  1.00  0.00    -0.325 N 
HETATM    8  C   UNL     1     -41.767  56.268 -50.847  1.00  0.00     0.251 C 
HETATM    9  O   UNL     1     -40.888  57.024 -51.252  1.00  0.00    -0.270 OA
HETATM   10  H   UNL     1     -43.661  55.507 -50.874  1.00  0.00     0.169 HD
BRANCH   8  11
HETATM   11  C   UNL     1     -41.446  55.198 -49.790  1.00  0.00     0.217 C 
HETATM   12  C   UNL     1     -39.937  54.989 -49.711  1.00  0.00     0.050 C 
BRANCH  11  13
HETATM   13  O   UNL     1     -42.033  53.935 -50.126  1.00  0.00    -0.337 OA
BRANCH  13  14
HETATM   14  C   UNL     1     -41.248  53.166 -50.946  1.00  0.00     0.070 A 
HETATM   15  C   UNL     1     -40.603  52.002 -50.525  1.00  0.00     0.043 A 
HETATM   16  C   UNL     1     -39.823  51.263 -51.424  1.00  0.00    -0.059 A 
HETATM   17  C   UNL     1     -39.129  50.006 -50.987  1.00  0.00     0.048 C 
HETATM   18  C   UNL     1     -39.714  51.697 -52.752  1.00  0.00     0.013 A 
HETATM   19  C   UNL     1     -40.374  52.855 -53.187  1.00  0.00    -0.059 A 
HETATM   20  C   UNL     1     -41.157  53.574 -52.277  1.00  0.00     0.043 A 
HETATM   21  C   UNL     1     -40.263  53.287 -54.619  1.00  0.00     0.048 C 
ENDBRANCH  13  14
ENDBRANCH  11  13
ENDBRANCH   8  11
ENDBRANCH   1   7
BRANCH   3  22
HETATM   22  C   UNL     1     -44.241  57.701 -55.897  1.00  0.00     0.181 A 
HETATM   23  O   UNL     1     -43.530  56.628 -56.376  1.00  0.00    -0.289 OA
HETATM   24  C   UNL     1     -43.588  56.770 -57.730  1.00  0.00     0.106 A 
HETATM   25  C   UNL     1     -44.328  57.907 -58.005  1.00  0.00     0.093 A 
HETATM   26  C   UNL     1     -43.012  55.946 -58.688  1.00  0.00     0.040 A 
HETATM   27  N   UNL     1     -44.741  58.491 -56.833  1.00  0.00    -0.221 NA
HETATM   28  C   UNL     1     -44.529  58.276 -59.342  1.00  0.00     0.034 A 
HETATM   29  C   UNL     1     -43.962  57.471 -60.342  1.00  0.00     0.002 A 
HETATM   30  C   UNL     1     -43.219  56.328 -60.019  1.00  0.00     0.003 A 
ENDBRANCH   3  22
TORSDOF 5
ENDMDL
