MODEL 1
REMARK VINA RESULT:      -8.3      0.000      0.000
REMARK  3 active torsions:
REMARK  status: ('A' for Active; 'I' for Inactive)
REMARK    1  A    between atoms: C_5  and  C_6 
REMARK    2  A    between atoms: C_13  and  O_14 
REMARK    3  A    between atoms: C_26  and  O_27 
ROOT
HETATM    1  C   UNL     1     -44.081  60.595 -52.404  1.00  0.00     0.021 C 
HETATM    2  C   UNL     1     -43.081  59.446 -52.237  1.00  0.00     0.033 C 
HETATM    3  C   UNL     1     -42.754  58.808 -53.599  1.00  0.00     0.289 C 
HETATM    4  N   UNL     1     -41.830  57.674 -53.425  1.00  0.00     0.126 N 
HETATM    5  C   UNL     1     -42.454  56.621 -52.623  1.00  0.00     0.458 C 
HETATM    6  N   UNL     1     -42.698  57.207 -51.249  1.00  0.00    -0.033 N 
HETATM    7  H   UNL     1     -43.143  56.491 -50.668  1.00  0.00     0.282 HD
HETATM    8  C   UNL     1     -43.686  58.354 -51.344  1.00  0.00     0.251 C 
HETATM    9  C   UNL     1     -40.555  58.137 -52.858  1.00  0.00     0.289 C 
HETATM   10  C   UNL     1     -40.777  58.754 -51.468  1.00  0.00     0.033 C 
HETATM   11  C   UNL     1     -39.442  59.201 -50.864  1.00  0.00     0.021 C 
HETATM   12  C   UNL     1     -41.421  57.681 -50.586  1.00  0.00     0.251 C 
HETATM   13  C   UNL     1     -41.757  59.940 -51.608  1.00  0.00     0.141 C 
ENDROOT
BRANCH   5  14
HETATM   14  C   UNL     1     -41.749  55.274 -52.670  1.00  0.00     0.044 A 
HETATM   15  C   UNL     1     -41.387  54.673 -53.874  1.00  0.00     0.137 A 
HETATM   16 CL   UNL     1     -41.797  55.304 -55.424  1.00  0.00    -0.062 Cl
HETATM   17  N   UNL     1     -40.739  53.497 -53.983  1.00  0.00    -0.233 NA
HETATM   18  C   UNL     1     -40.443  52.786 -52.875  1.00  0.00     0.102 A 
HETATM   19  C   UNL     1     -40.842  53.254 -51.609  1.00  0.00    -0.004 A 
HETATM   20  C   UNL     1     -39.740  51.570 -52.940  1.00  0.00     0.097 A 
HETATM   21  C   UNL     1     -41.498  54.496 -51.527  1.00  0.00     0.028 A 
HETATM   22  C   UNL     1     -40.582  52.495 -50.455  1.00  0.00     0.014 A 
HETATM   23  C   UNL     1     -39.917  51.277 -50.547  1.00  0.00     0.004 A 
HETATM   24  C   UNL     1     -39.492  50.815 -51.787  1.00  0.00     0.039 A 
BRANCH  20  25
HETATM   25  O   UNL     1     -39.353  51.163 -54.198  1.00  0.00    -0.354 OA
HETATM   26  C   UNL     1     -39.722  49.844 -54.582  1.00  0.00     0.210 C 
ENDBRANCH  20  25
ENDBRANCH   5  14
BRANCH  13  27
HETATM   27  O   UNL     1     -42.026  60.495 -50.322  1.00  0.00    -0.394 OA
HETATM   28  H   UNL     1     -42.500  59.823 -49.793  1.00  0.00     0.210 HD
ENDBRANCH  13  27
TORSDOF 3
ENDMDL
MODEL 2
REMARK VINA RESULT:      -8.3      2.024      2.887
REMARK  3 active torsions:
REMARK  status: ('A' for Active; 'I' for Inactive)
REMARK    1  A    between atoms: C_5  and  C_6 
REMARK    2  A    between atoms: C_13  and  O_14 
REMARK    3  A    between atoms: C_26  and  O_27 
ROOT
HETATM    1  C   UNL     1     -43.731  60.663 -50.942  1.00  0.00     0.021 C 
HETATM    2  C   UNL     1     -43.074  59.437 -51.584  1.00  0.00     0.033 C 
HETATM    3  C   UNL     1     -43.936  58.181 -51.365  1.00  0.00     0.289 C 
HETATM    4  N   UNL     1     -43.275  56.999 -51.945  1.00  0.00     0.126 N 
HETATM    5  C   UNL     1     -42.001  56.740 -51.270  1.00  0.00     0.458 C 
HETATM    6  N   UNL     1     -41.109  57.929 -51.554  1.00  0.00    -0.033 N 
HETATM    7  H   UNL     1     -40.211  57.777 -51.087  1.00  0.00     0.282 HD
HETATM    8  C   UNL     1     -41.705  59.181 -50.941  1.00  0.00     0.251 C 
HETATM    9  C   UNL     1     -43.123  57.159 -53.398  1.00  0.00     0.289 C 
HETATM   10  C   UNL     1     -42.235  58.372 -53.716  1.00  0.00     0.033 C 
HETATM   11  C   UNL     1     -42.048  58.514 -55.230  1.00  0.00     0.021 C 
HETATM   12  C   UNL     1     -40.881  58.141 -53.037  1.00  0.00     0.251 C 
HETATM   13  C   UNL     1     -42.890  59.633 -53.108  1.00  0.00     0.141 C 
ENDROOT
BRANCH   5  14
HETATM   14  C   UNL     1     -41.404  55.366 -51.531  1.00  0.00     0.044 A 
HETATM   15  C   UNL     1     -40.965  54.544 -50.495  1.00  0.00     0.137 A 
HETATM   16 CL   UNL     1     -40.930  55.020 -48.840  1.00  0.00    -0.062 Cl
HETATM   17  N   UNL     1     -40.452  53.308 -50.658  1.00  0.00    -0.233 NA
HETATM   18  C   UNL     1     -40.281  52.808 -51.899  1.00  0.00     0.102 A 
HETATM   19  C   UNL     1     -40.605  53.589 -53.025  1.00  0.00    -0.004 A 
HETATM   20  C   UNL     1     -39.778  51.513 -52.114  1.00  0.00     0.097 A 
HETATM   21  C   UNL     1     -41.159  54.865 -52.821  1.00  0.00     0.028 A 
HETATM   22  C   UNL     1     -40.382  53.095 -54.322  1.00  0.00     0.014 A 
HETATM   23  C   UNL     1     -39.850  51.823 -54.510  1.00  0.00     0.004 A 
HETATM   24  C   UNL     1     -39.551  51.030 -53.409  1.00  0.00     0.039 A 
BRANCH  20  25
HETATM   25  O   UNL     1     -39.495  50.780 -50.982  1.00  0.00    -0.354 OA
HETATM   26  C   UNL     1     -39.876  49.410 -50.999  1.00  0.00     0.210 C 
ENDBRANCH  20  25
ENDBRANCH   5  14
BRANCH  13  27
HETATM   27  O   UNL     1     -42.055  60.766 -53.339  1.00  0.00    -0.394 OA
HETATM   28  H   UNL     1     -42.336  61.481 -52.733  1.00  0.00     0.210 HD
ENDBRANCH  13  27
TORSDOF 3
ENDMDL
MODEL 3
REMARK VINA RESULT:      -7.9      1.750      2.496
REMARK  3 active torsions:
REMARK  status: ('A' for Active; 'I' for Inactive)
REMARK    1  A    between atoms: C_5  and  C_6 
REMARK    2  A    between atoms: C_13  and  O_14 
REMARK    3  A    between atoms: C_26  and  O_27 
ROOT
HETATM    1  C   UNL     1     -43.575  61.449 -54.482  1.00  0.00     0.021 C 
HETATM    2  C   UNL     1     -43.422  60.006 -53.989  1.00  0.00     0.033 C 
HETATM    3  C   UNL     1     -41.994  59.757 -53.472  1.00  0.00     0.289 C 
HETATM    4  N   UNL     1     -41.841  58.355 -53.045  1.00  0.00     0.126 N 
HETATM    5  C   UNL     1     -42.026  57.449 -54.180  1.00  0.00     0.458 C 
HETATM    6  N   UNL     1     -43.456  57.617 -54.641  1.00  0.00    -0.033 N 
HETATM    7  H   UNL     1     -43.611  56.997 -55.442  1.00  0.00     0.282 HD
HETATM    8  C   UNL     1     -43.676  59.030 -55.146  1.00  0.00     0.251 C 
HETATM    9  C   UNL     1     -42.751  58.059 -51.930  1.00  0.00     0.289 C 
HETATM   10  C   UNL     1     -44.214  58.239 -52.367  1.00  0.00     0.033 C 
HETATM   11  C   UNL     1     -45.161  57.893 -51.214  1.00  0.00     0.021 C 
HETATM   12  C   UNL     1     -44.459  57.299 -53.550  1.00  0.00     0.251 C 
HETATM   13  C   UNL     1     -44.409  59.698 -52.839  1.00  0.00     0.141 C 
ENDROOT
BRANCH   5  14
HETATM   14  C   UNL     1     -41.550  56.023 -53.947  1.00  0.00     0.044 A 
HETATM   15  C   UNL     1     -41.573  55.064 -54.958  1.00  0.00     0.137 A 
HETATM   16 CL   UNL     1     -42.242  55.333 -56.522  1.00  0.00    -0.062 Cl
HETATM   17  N   UNL     1     -41.143  53.794 -54.823  1.00  0.00    -0.233 NA
HETATM   18  C   UNL     1     -40.699  53.356 -53.627  1.00  0.00     0.102 A 
HETATM   19  C   UNL     1     -40.717  54.215 -52.510  1.00  0.00    -0.004 A 
HETATM   20  C   UNL     1     -40.213  52.049 -53.449  1.00  0.00     0.097 A 
HETATM   21  C   UNL     1     -41.151  55.541 -52.689  1.00  0.00     0.028 A 
HETATM   22  C   UNL     1     -40.304  53.751 -51.250  1.00  0.00     0.014 A 
HETATM   23  C   UNL     1     -39.860  52.443 -51.090  1.00  0.00     0.004 A 
HETATM   24  C   UNL     1     -39.810  51.592 -52.188  1.00  0.00     0.039 A 
BRANCH  20  25
HETATM   25  O   UNL     1     -40.195  51.254 -54.574  1.00  0.00    -0.354 OA
HETATM   26  C   UNL     1     -39.802  49.900 -54.389  1.00  0.00     0.210 C 
ENDBRANCH  20  25
ENDBRANCH   5  14
BRANCH  13  27
HETATM   27  O   UNL     1     -45.745  59.876 -53.305  1.00  0.00    -0.394 OA
HETATM   28  H   UNL     1     -46.253  60.335 -52.606  1.00  0.00     0.210 HD
ENDBRANCH  13  27
TORSDOF 3
ENDMDL
MODEL 4
REMARK VINA RESULT:      -7.5      4.360      6.854
REMARK  3 active torsions:
REMARK  status: ('A' for Active; 'I' for Inactive)
REMARK    1  A    between atoms: C_5  and  C_6 
REMARK    2  A    between atoms: C_13  and  O_14 
REMARK    3  A    between atoms: C_26  and  O_27 
ROOT
HETATM    1  C   UNL     1     -41.506  55.755 -50.182  1.00  0.00     0.021 C 
HETATM    2  C   UNL     1     -41.587  55.574 -51.701  1.00  0.00     0.033 C 
HETATM    3  C   UNL     1     -40.938  56.767 -52.426  1.00  0.00     0.289 C 
HETATM    4  N   UNL     1     -41.062  56.608 -53.885  1.00  0.00     0.126 N 
HETATM    5  C   UNL     1     -42.470  56.608 -54.285  1.00  0.00     0.458 C 
HETATM    6  N   UNL     1     -43.101  55.387 -53.652  1.00  0.00    -0.033 N 
HETATM    7  H   UNL     1     -44.092  55.366 -53.911  1.00  0.00     0.282 HD
HETATM    8  C   UNL     1     -43.055  55.504 -52.141  1.00  0.00     0.251 C 
HETATM    9  C   UNL     1     -40.347  55.403 -54.331  1.00  0.00     0.289 C 
HETATM   10  C   UNL     1     -40.957  54.147 -53.688  1.00  0.00     0.033 C 
HETATM   11  C   UNL     1     -40.235  52.891 -54.183  1.00  0.00     0.021 C 
HETATM   12  C   UNL     1     -42.434  54.098 -54.089  1.00  0.00     0.251 C 
HETATM   13  C   UNL     1     -40.860  54.285 -52.152  1.00  0.00     0.141 C 
ENDROOT
BRANCH   5  14
HETATM   14  C   UNL     1     -42.716  56.804 -55.773  1.00  0.00     0.044 A 
HETATM   15  C   UNL     1     -42.521  58.036 -56.396  1.00  0.00     0.137 A 
HETATM   16 CL   UNL     1     -42.110  59.483 -55.556  1.00  0.00    -0.062 Cl
HETATM   17  N   UNL     1     -42.695  58.269 -57.712  1.00  0.00    -0.233 NA
HETATM   18  C   UNL     1     -43.141  57.283 -58.517  1.00  0.00     0.102 A 
HETATM   19  C   UNL     1     -43.458  56.021 -57.978  1.00  0.00    -0.004 A 
HETATM   20  C   UNL     1     -43.308  57.473 -59.900  1.00  0.00     0.097 A 
HETATM   21  C   UNL     1     -43.244  55.803 -56.605  1.00  0.00     0.028 A 
HETATM   22  C   UNL     1     -43.971  55.004 -58.801  1.00  0.00     0.014 A 
HETATM   23  C   UNL     1     -44.162  55.226 -60.161  1.00  0.00     0.004 A 
HETATM   24  C   UNL     1     -43.827  56.457 -60.713  1.00  0.00     0.039 A 
BRANCH  20  25
HETATM   25  O   UNL     1     -42.965  58.717 -60.384  1.00  0.00    -0.354 OA
HETATM   26  C   UNL     1     -44.032  59.538 -60.840  1.00  0.00     0.210 C 
ENDBRANCH  20  25
ENDBRANCH   5  14
BRANCH  13  27
HETATM   27  O   UNL     1     -41.473  53.158 -51.530  1.00  0.00    -0.394 OA
HETATM   28  H   UNL     1     -40.770  52.516 -51.301  1.00  0.00     0.210 HD
ENDBRANCH  13  27
TORSDOF 3
ENDMDL
MODEL 5
REMARK VINA RESULT:      -7.4      2.242      3.072
REMARK  3 active torsions:
REMARK  status: ('A' for Active; 'I' for Inactive)
REMARK    1  A    between atoms: C_5  and  C_6 
REMARK    2  A    between atoms: C_13  and  O_14 
REMARK    3  A    between atoms: C_26  and  O_27 
ROOT
HETATM    1  C   UNL     1     -45.162  59.534 -56.271  1.00  0.00     0.021 C 
HETATM    2  C   UNL     1     -44.554  58.867 -55.034  1.00  0.00     0.033 C 
HETATM    3  C   UNL     1     -43.074  58.521 -55.275  1.00  0.00     0.289 C 
HETATM    4  N   UNL     1     -42.510  57.837 -54.099  1.00  0.00     0.126 N 
HETATM    5  C   UNL     1     -43.192  56.562 -53.869  1.00  0.00     0.458 C 
HETATM    6  N   UNL     1     -44.631  56.892 -53.540  1.00  0.00    -0.033 N 
HETATM    7  H   UNL     1     -45.135  56.015 -53.382  1.00  0.00     0.282 HD
HETATM    8  C   UNL     1     -45.295  57.557 -54.730  1.00  0.00     0.251 C 
HETATM    9  C   UNL     1     -42.551  58.720 -52.925  1.00  0.00     0.289 C 
HETATM   10  C   UNL     1     -44.003  59.087 -52.578  1.00  0.00     0.033 C 
HETATM   11  C   UNL     1     -44.046  59.976 -51.332  1.00  0.00     0.021 C 
HETATM   12  C   UNL     1     -44.757  57.779 -52.318  1.00  0.00     0.251 C 
HETATM   13  C   UNL     1     -44.636  59.794 -53.798  1.00  0.00     0.141 C 
ENDROOT
BRANCH   5  14
HETATM   14  C   UNL     1     -42.478  55.614 -52.917  1.00  0.00     0.044 A 
HETATM   15  C   UNL     1     -42.053  54.349 -53.319  1.00  0.00     0.137 A 
HETATM   16 CL   UNL     1     -42.385  53.669 -54.866  1.00  0.00    -0.062 Cl
HETATM   17  N   UNL     1     -41.394  53.474 -52.533  1.00  0.00    -0.233 NA
HETATM   18  C   UNL     1     -41.153  53.778 -51.241  1.00  0.00     0.102 A 
HETATM   19  C   UNL     1     -41.618  54.993 -50.703  1.00  0.00    -0.004 A 
HETATM   20  C   UNL     1     -40.442  52.909 -50.395  1.00  0.00     0.097 A 
HETATM   21  C   UNL     1     -42.283  55.894 -51.555  1.00  0.00     0.028 A 
HETATM   22  C   UNL     1     -41.415  55.295 -49.346  1.00  0.00     0.014 A 
HETATM   23  C   UNL     1     -40.740  54.404 -48.518  1.00  0.00     0.004 A 
HETATM   24  C   UNL     1     -40.250  53.213 -49.041  1.00  0.00     0.039 A 
BRANCH  20  25
HETATM   25  O   UNL     1     -39.989  51.742 -50.971  1.00  0.00    -0.354 OA
HETATM   26  C   UNL     1     -40.192  50.546 -50.230  1.00  0.00     0.210 C 
ENDBRANCH  20  25
ENDBRANCH   5  14
BRANCH  13  27
HETATM   27  O   UNL     1     -46.003  60.093 -53.524  1.00  0.00    -0.394 OA
HETATM   28  H   UNL     1     -46.553  59.380 -53.905  1.00  0.00     0.210 HD
ENDBRANCH  13  27
TORSDOF 3
ENDMDL
MODEL 6
REMARK VINA RESULT:      -7.3      2.307      3.624
REMARK  3 active torsions:
REMARK  status: ('A' for Active; 'I' for Inactive)
REMARK    1  A    between atoms: C_5  and  C_6 
REMARK    2  A    between atoms: C_13  and  O_14 
REMARK    3  A    between atoms: C_26  and  O_27 
ROOT
HETATM    1  C   UNL     1     -44.482  61.783 -52.383  1.00  0.00     0.021 C 
HETATM    2  C   UNL     1     -44.092  60.367 -52.817  1.00  0.00     0.033 C 
HETATM    3  C   UNL     1     -44.313  59.366 -51.669  1.00  0.00     0.289 C 
HETATM    4  N   UNL     1     -43.891  58.015 -52.079  1.00  0.00     0.126 N 
HETATM    5  C   UNL     1     -42.456  57.991 -52.368  1.00  0.00     0.458 C 
HETATM    6  N   UNL     1     -42.235  58.902 -53.555  1.00  0.00    -0.033 N 
HETATM    7  H   UNL     1     -41.235  58.909 -53.775  1.00  0.00     0.282 HD
HETATM    8  C   UNL     1     -42.603  60.327 -53.190  1.00  0.00     0.251 C 
HETATM    9  C   UNL     1     -44.704  57.547 -53.210  1.00  0.00     0.289 C 
HETATM   10  C   UNL     1     -44.513  58.467 -54.427  1.00  0.00     0.033 C 
HETATM   11  C   UNL     1     -45.331  57.955 -55.616  1.00  0.00     0.021 C 
HETATM   12  C   UNL     1     -43.021  58.465 -54.775  1.00  0.00     0.251 C 
HETATM   13  C   UNL     1     -44.931  59.900 -54.030  1.00  0.00     0.141 C 
ENDROOT
BRANCH   5  14
HETATM   14  C   UNL     1     -41.841  56.602 -52.455  1.00  0.00     0.044 A 
HETATM   15  C   UNL     1     -41.493  55.878 -51.317  1.00  0.00     0.137 A 
HETATM   16 CL   UNL     1     -41.595  56.499 -49.713  1.00  0.00    -0.062 Cl
HETATM   17  N   UNL     1     -40.971  54.635 -51.326  1.00  0.00    -0.233 NA
HETATM   18  C   UNL     1     -40.698  54.028 -52.499  1.00  0.00     0.102 A 
HETATM   19  C   UNL     1     -40.925  54.703 -53.713  1.00  0.00    -0.004 A 
HETATM   20  C   UNL     1     -40.182  52.721 -52.555  1.00  0.00     0.097 A 
HETATM   21  C   UNL     1     -41.491  55.990 -53.670  1.00  0.00     0.028 A 
HETATM   22  C   UNL     1     -40.596  54.098 -54.937  1.00  0.00     0.014 A 
HETATM   23  C   UNL     1     -40.053  52.817 -54.967  1.00  0.00     0.004 A 
HETATM   24  C   UNL     1     -39.849  52.126 -53.779  1.00  0.00     0.039 A 
BRANCH  20  25
HETATM   25  O   UNL     1     -39.996  52.093 -51.343  1.00  0.00    -0.354 OA
HETATM   26  C   UNL     1     -39.588  50.732 -51.388  1.00  0.00     0.210 C 
ENDBRANCH  20  25
ENDBRANCH   5  14
BRANCH  13  27
HETATM   27  O   UNL     1     -44.708  60.786 -55.125  1.00  0.00    -0.394 OA
HETATM   28  H   UNL     1     -43.925  61.335 -54.919  1.00  0.00     0.210 HD
ENDBRANCH  13  27
TORSDOF 3
ENDMDL
MODEL 7
REMARK VINA RESULT:      -7.2      4.123      6.329
REMARK  3 active torsions:
REMARK  status: ('A' for Active; 'I' for Inactive)
REMARK    1  A    between atoms: C_5  and  C_6 
REMARK    2  A    between atoms: C_13  and  O_14 
REMARK    3  A    between atoms: C_26  and  O_27 
ROOT
HETATM    1  C   UNL     1     -41.383  56.528 -50.113  1.00  0.00     0.021 C 
HETATM    2  C   UNL     1     -42.000  56.881 -51.469  1.00  0.00     0.033 C 
HETATM    3  C   UNL     1     -42.510  55.615 -52.180  1.00  0.00     0.289 C 
HETATM    4  N   UNL     1     -43.059  55.957 -53.504  1.00  0.00     0.126 N 
HETATM    5  C   UNL     1     -42.014  56.513 -54.366  1.00  0.00     0.458 C 
HETATM    6  N   UNL     1     -41.566  57.808 -53.725  1.00  0.00    -0.033 N 
HETATM    7  H   UNL     1     -40.827  58.216 -54.305  1.00  0.00     0.282 HD
HETATM    8  C   UNL     1     -40.941  57.528 -52.372  1.00  0.00     0.251 C 
HETATM    9  C   UNL     1     -44.213  56.856 -53.362  1.00  0.00     0.289 C 
HETATM   10  C   UNL     1     -43.789  58.175 -52.696  1.00  0.00     0.033 C 
HETATM   11  C   UNL     1     -44.986  59.124 -52.584  1.00  0.00     0.021 C 
HETATM   12  C   UNL     1     -42.700  58.802 -53.572  1.00  0.00     0.251 C 
HETATM   13  C   UNL     1     -43.192  57.854 -51.308  1.00  0.00     0.141 C 
ENDROOT
BRANCH   5  14
HETATM   14  C   UNL     1     -42.365  56.574 -55.844  1.00  0.00     0.044 A 
HETATM   15  C   UNL     1     -42.880  55.472 -56.525  1.00  0.00     0.137 A 
HETATM   16 CL   UNL     1     -43.059  53.908 -55.826  1.00  0.00    -0.062 Cl
HETATM   17  N   UNL     1     -43.234  55.469 -57.826  1.00  0.00    -0.233 NA
HETATM   18  C   UNL     1     -43.047  56.572 -58.578  1.00  0.00     0.102 A 
HETATM   19  C   UNL     1     -42.449  57.716 -58.016  1.00  0.00    -0.004 A 
HETATM   20  C   UNL     1     -43.431  56.623 -59.930  1.00  0.00     0.097 A 
HETATM   21  C   UNL     1     -42.110  57.696 -56.651  1.00  0.00     0.028 A 
HETATM   22  C   UNL     1     -42.204  58.853 -58.806  1.00  0.00     0.014 A 
HETATM   23  C   UNL     1     -42.560  58.867 -60.150  1.00  0.00     0.004 A 
HETATM   24  C   UNL     1     -43.177  57.756 -60.712  1.00  0.00     0.039 A 
BRANCH  20  25
HETATM   25  O   UNL     1     -44.031  55.487 -60.429  1.00  0.00    -0.354 OA
HETATM   26  C   UNL     1     -45.418  55.579 -60.728  1.00  0.00     0.210 C 
ENDBRANCH  20  25
ENDBRANCH   5  14
BRANCH  13  27
HETATM   27  O   UNL     1     -42.737  59.057 -50.692  1.00  0.00    -0.394 OA
HETATM   28  H   UNL     1     -42.643  58.892 -49.733  1.00  0.00     0.210 HD
ENDBRANCH  13  27
TORSDOF 3
ENDMDL
MODEL 8
REMARK VINA RESULT:      -7.2      2.690      7.759
REMARK  3 active torsions:
REMARK  status: ('A' for Active; 'I' for Inactive)
REMARK    1  A    between atoms: C_5  and  C_6 
REMARK    2  A    between atoms: C_13  and  O_14 
REMARK    3  A    between atoms: C_26  and  O_27 
ROOT
HETATM    1  C   UNL     1     -41.451  52.853 -54.166  1.00  0.00     0.021 C 
HETATM    2  C   UNL     1     -41.992  54.281 -54.050  1.00  0.00     0.033 C 
HETATM    3  C   UNL     1     -40.902  55.235 -53.531  1.00  0.00     0.289 C 
HETATM    4  N   UNL     1     -41.443  56.596 -53.377  1.00  0.00     0.126 N 
HETATM    5  C   UNL     1     -42.510  56.615 -52.374  1.00  0.00     0.458 C 
HETATM    6  N   UNL     1     -43.629  55.753 -52.914  1.00  0.00    -0.033 N 
HETATM    7  H   UNL     1     -44.388  55.743 -52.227  1.00  0.00     0.282 HD
HETATM    8  C   UNL     1     -43.158  54.318 -53.052  1.00  0.00     0.251 C 
HETATM    9  C   UNL     1     -41.880  57.123 -54.678  1.00  0.00     0.289 C 
HETATM   10  C   UNL     1     -43.007  56.253 -55.259  1.00  0.00     0.033 C 
HETATM   11  C   UNL     1     -43.487  56.826 -56.596  1.00  0.00     0.021 C 
HETATM   12  C   UNL     1     -44.155  56.252 -54.245  1.00  0.00     0.251 C 
HETATM   13  C   UNL     1     -42.480  54.810 -55.420  1.00  0.00     0.141 C 
ENDROOT
BRANCH   5  14
HETATM   14  C   UNL     1     -42.899  57.999 -51.876  1.00  0.00     0.044 A 
HETATM   15  C   UNL     1     -41.954  58.896 -51.381  1.00  0.00     0.137 A 
HETATM   16 CL   UNL     1     -40.289  58.515 -51.159  1.00  0.00    -0.062 Cl
HETATM   17  N   UNL     1     -42.230  60.143 -50.950  1.00  0.00    -0.233 NA
HETATM   18  C   UNL     1     -43.506  60.581 -50.927  1.00  0.00     0.102 A 
HETATM   19  C   UNL     1     -44.553  59.725 -51.319  1.00  0.00    -0.004 A 
HETATM   20  C   UNL     1     -43.835  61.884 -50.514  1.00  0.00     0.097 A 
HETATM   21  C   UNL     1     -44.230  58.438 -51.785  1.00  0.00     0.028 A 
HETATM   22  C   UNL     1     -45.888  60.157 -51.250  1.00  0.00     0.014 A 
HETATM   23  C   UNL     1     -46.194  61.439 -50.805  1.00  0.00     0.004 A 
HETATM   24  C   UNL     1     -45.169  62.304 -50.441  1.00  0.00     0.039 A 
BRANCH  20  25
HETATM   25  O   UNL     1     -42.776  62.691 -50.160  1.00  0.00    -0.354 OA
HETATM   26  C   UNL     1     -43.090  64.027 -49.790  1.00  0.00     0.210 C 
ENDBRANCH  20  25
ENDBRANCH   5  14
BRANCH  13  27
HETATM   27  O   UNL     1     -43.526  53.969 -55.903  1.00  0.00    -0.394 OA
HETATM   28  H   UNL     1     -43.942  54.410 -56.671  1.00  0.00     0.210 HD
ENDBRANCH  13  27
TORSDOF 3
ENDMDL
MODEL 9
REMARK VINA RESULT:      -7.0      4.122      6.351
REMARK  3 active torsions:
REMARK  status: ('A' for Active; 'I' for Inactive)
REMARK    1  A    between atoms: C_5  and  C_6 
REMARK    2  A    between atoms: C_13  and  O_14 
REMARK    3  A    between atoms: C_26  and  O_27 
ROOT
HETATM    1  C   UNL     1     -40.189  59.389 -50.366  1.00  0.00     0.021 C 
HETATM    2  C   UNL     1     -40.935  58.616 -51.458  1.00  0.00     0.033 C 
HETATM    3  C   UNL     1     -40.234  58.783 -52.818  1.00  0.00     0.289 C 
HETATM    4  N   UNL     1     -40.984  58.076 -53.871  1.00  0.00     0.126 N 
HETATM    5  C   UNL     1     -42.319  58.656 -54.029  1.00  0.00     0.458 C 
HETATM    6  N   UNL     1     -43.053  58.417 -52.728  1.00  0.00    -0.033 N 
HETATM    7  H   UNL     1     -43.991  58.820 -52.808  1.00  0.00     0.282 HD
HETATM    8  C   UNL     1     -42.363  59.160 -51.600  1.00  0.00     0.251 C 
HETATM    9  C   UNL     1     -41.022  56.634 -53.590  1.00  0.00     0.289 C 
HETATM   10  C   UNL     1     -41.748  56.363 -52.263  1.00  0.00     0.033 C 
HETATM   11  C   UNL     1     -41.820  54.857 -51.992  1.00  0.00     0.021 C 
HETATM   12  C   UNL     1     -43.160  56.945 -52.384  1.00  0.00     0.251 C 
HETATM   13  C   UNL     1     -40.998  57.104 -51.133  1.00  0.00     0.141 C 
ENDROOT
BRANCH   5  14
HETATM   14  C   UNL     1     -43.047  58.254 -55.302  1.00  0.00     0.044 A 
HETATM   15  C   UNL     1     -44.237  58.865 -55.695  1.00  0.00     0.137 A 
HETATM   16 CL   UNL     1     -45.076  60.033 -54.747  1.00  0.00    -0.062 Cl
HETATM   17  N   UNL     1     -44.916  58.573 -56.822  1.00  0.00    -0.233 NA
HETATM   18  C   UNL     1     -44.480  57.589 -57.635  1.00  0.00     0.102 A 
HETATM   19  C   UNL     1     -43.337  56.842 -57.290  1.00  0.00    -0.004 A 
HETATM   20  C   UNL     1     -45.139  57.272 -58.836  1.00  0.00     0.097 A 
HETATM   21  C   UNL     1     -42.639  57.185 -56.118  1.00  0.00     0.028 A 
HETATM   22  C   UNL     1     -42.906  55.782 -58.105  1.00  0.00     0.014 A 
HETATM   23  C   UNL     1     -43.595  55.464 -59.271  1.00  0.00     0.004 A 
HETATM   24  C   UNL     1     -44.709  56.210 -59.640  1.00  0.00     0.039 A 
BRANCH  20  25
HETATM   25  O   UNL     1     -46.240  58.044 -59.142  1.00  0.00    -0.354 OA
HETATM   26  C   UNL     1     -46.956  57.692 -60.318  1.00  0.00     0.210 C 
ENDBRANCH  20  25
ENDBRANCH   5  14
BRANCH  13  27
HETATM   27  O   UNL     1     -41.686  56.917 -49.898  1.00  0.00    -0.394 OA
HETATM   28  H   UNL     1     -41.066  57.123 -49.170  1.00  0.00     0.210 HD
ENDBRANCH  13  27
TORSDOF 3
ENDMDL
MODEL 10
REMARK VINA RESULT:      -6.9      2.348      7.469
REMARK  3 active torsions:
REMARK  status: ('A' for Active; 'I' for Inactive)
REMARK    1  A    between atoms: C_5  and  C_6 
REMARK    2  A    between atoms: C_13  and  O_14 
REMARK    3  A    between atoms: C_26  and  O_27 
ROOT
HETATM    1  C   UNL     1     -40.930  52.581 -54.295  1.00  0.00     0.021 C 
HETATM    2  C   UNL     1     -41.430  53.768 -53.467  1.00  0.00     0.033 C 
HETATM    3  C   UNL     1     -42.907  54.066 -53.781  1.00  0.00     0.289 C 
HETATM    4  N   UNL     1     -43.367  55.238 -53.016  1.00  0.00     0.126 N 
HETATM    5  C   UNL     1     -42.619  56.434 -53.410  1.00  0.00     0.458 C 
HETATM    6  N   UNL     1     -41.177  56.192 -53.022  1.00  0.00    -0.033 N 
HETATM    7  H   UNL     1     -40.628  57.013 -53.293  1.00  0.00     0.282 HD
HETATM    8  C   UNL     1     -40.617  55.024 -53.811  1.00  0.00     0.251 C 
HETATM    9  C   UNL     1     -43.288  54.970 -51.574  1.00  0.00     0.289 C 
HETATM   10  C   UNL     1     -41.833  54.702 -51.155  1.00  0.00     0.033 C 
HETATM   11  C   UNL     1     -41.749  54.461 -49.645  1.00  0.00     0.021 C 
HETATM   12  C   UNL     1     -41.010  55.936 -51.538  1.00  0.00     0.251 C 
HETATM   13  C   UNL     1     -41.309  53.486 -51.951  1.00  0.00     0.141 C 
ENDROOT
BRANCH   5  14
HETATM   14  C   UNL     1     -43.230  57.752 -52.958  1.00  0.00     0.044 A 
HETATM   15  C   UNL     1     -44.411  58.244 -53.510  1.00  0.00     0.137 A 
HETATM   16 CL   UNL     1     -45.237  57.504 -54.829  1.00  0.00    -0.062 Cl
HETATM   17  N   UNL     1     -45.017  59.388 -53.137  1.00  0.00    -0.233 NA
HETATM   18  C   UNL     1     -44.449  60.176 -52.201  1.00  0.00     0.102 A 
HETATM   19  C   UNL     1     -43.208  59.822 -51.639  1.00  0.00    -0.004 A 
HETATM   20  C   UNL     1     -45.061  61.362 -51.759  1.00  0.00     0.097 A 
HETATM   21  C   UNL     1     -42.612  58.611 -52.034  1.00  0.00     0.028 A 
HETATM   22  C   UNL     1     -42.585  60.663 -50.700  1.00  0.00     0.014 A 
HETATM   23  C   UNL     1     -43.193  61.850 -50.304  1.00  0.00     0.004 A 
HETATM   24  C   UNL     1     -44.432  62.199 -50.829  1.00  0.00     0.039 A 
BRANCH  20  25
HETATM   25  O   UNL     1     -46.284  61.656 -52.322  1.00  0.00    -0.354 OA
HETATM   26  C   UNL     1     -47.090  62.604 -51.634  1.00  0.00     0.210 C 
ENDBRANCH  20  25
ENDBRANCH   5  14
BRANCH  13  27
HETATM   27  O   UNL     1     -39.941  53.252 -51.623  1.00  0.00    -0.394 OA
HETATM   28  H   UNL     1     -39.386  53.732 -52.270  1.00  0.00     0.210 HD
ENDBRANCH  13  27
TORSDOF 3
ENDMDL
