MODEL 1
REMARK VINA RESULT:      -7.6      0.000      0.000
REMARK  7 active torsions:
REMARK  status: ('A' for Active; 'I' for Inactive)
REMARK    1  A    between atoms: C_8  and  C_9 
REMARK    2  A    between atoms: C_9  and  C_10 
REMARK    3  A    between atoms: C_10  and  C_11 
REMARK       I    between atoms: C_11  and  N_12 
REMARK    4  A    between atoms: N_12  and  C_13 
REMARK    5  A    between atoms: C_13  and  C_14 
REMARK    6  A    between atoms: C_14  and  N_15 
REMARK    7  A    between atoms: C_14  and  C_19 
ROOT
HETATM    1  C   UNL     1     -42.183  56.182 -56.271  1.00  0.00     0.217 C 
HETATM    2  N   UNL     1     -41.348  55.340 -55.581  1.00  0.00    -0.359 N 
HETATM    3  O   UNL     1     -42.315  57.360 -55.945  1.00  0.00    -0.274 OA
HETATM    4  H   UNL     1     -41.371  54.354 -55.832  1.00  0.00     0.162 HD
ENDROOT
BRANCH   2   5
HETATM    5  C   UNL     1     -40.722  55.688 -54.303  1.00  0.00     0.160 C 
BRANCH   5   6
HETATM    6  C   UNL     1     -41.174  54.845 -53.052  1.00  0.00     0.239 C 
BRANCH   6   7
HETATM    7  N   UNL     1     -42.694  54.919 -52.850  1.00  0.00    -0.069 N 
HETATM    8  H   UNL     1     -43.090  54.593 -53.756  1.00  0.00     0.279 HD
HETATM    9  C   UNL     1     -43.294  53.994 -51.838  1.00  0.00     0.270 C 
HETATM   10  C   UNL     1     -43.213  56.316 -52.696  1.00  0.00     0.270 C 
ENDBRANCH   6   7
BRANCH   6  11
HETATM   11  C   UNL     1     -40.626  53.424 -53.078  1.00  0.00    -0.004 A 
HETATM   12  C   UNL     1     -39.976  52.852 -51.966  1.00  0.00     0.042 A 
HETATM   13 CL   UNL     1     -39.727  53.720 -50.493  1.00  0.00    -0.084 Cl
HETATM   14  C   UNL     1     -39.495  51.538 -52.009  1.00  0.00     0.024 A 
HETATM   15  C   UNL     1     -39.649  50.771 -53.161  1.00  0.00     0.002 A 
HETATM   16  C   UNL     1     -40.280  51.315 -54.273  1.00  0.00     0.001 A 
HETATM   17  C   UNL     1     -40.762  52.626 -54.235  1.00  0.00     0.011 A 
ENDBRANCH   6  11
ENDBRANCH   5   6
ENDBRANCH   2   5
BRANCH   1  18
HETATM   18  C   UNL     1     -42.926  55.563 -57.427  1.00  0.00     0.107 C 
BRANCH  18  19
HETATM   19  C   UNL     1     -43.215  56.626 -58.480  1.00  0.00     0.052 C 
BRANCH  19  20
HETATM   20  C   UNL     1     -44.657  56.668 -58.854  1.00  0.00    -0.008 A 
HETATM   21  C   UNL     1     -45.341  55.841 -59.726  1.00  0.00     0.032 A 
HETATM   22  C   UNL     1     -44.911  54.685 -60.544  1.00  0.00     0.070 C 
HETATM   23  N   UNL     1     -46.634  56.287 -59.726  1.00  0.00    -0.282 N 
HETATM   24  H   UNL     1     -47.428  55.920 -60.244  1.00  0.00     0.189 HD
HETATM   25  N   UNL     1     -46.837  57.345 -58.933  1.00  0.00    -0.179 NA
HETATM   26  C   UNL     1     -45.643  57.582 -58.384  1.00  0.00     0.059 A 
HETATM   27  C   UNL     1     -45.480  58.699 -57.420  1.00  0.00     0.073 C 
ENDBRANCH  19  20
ENDBRANCH  18  19
ENDBRANCH   1  18
TORSDOF 7
ENDMDL
MODEL 2
REMARK VINA RESULT:      -7.6      1.843      2.601
REMARK  7 active torsions:
REMARK  status: ('A' for Active; 'I' for Inactive)
REMARK    1  A    between atoms: C_8  and  C_9 
REMARK    2  A    between atoms: C_9  and  C_10 
REMARK    3  A    between atoms: C_10  and  C_11 
REMARK       I    between atoms: C_11  and  N_12 
REMARK    4  A    between atoms: N_12  and  C_13 
REMARK    5  A    between atoms: C_13  and  C_14 
REMARK    6  A    between atoms: C_14  and  N_15 
REMARK    7  A    between atoms: C_14  and  C_19 
ROOT
HETATM    1  C   UNL     1     -42.763  56.225 -55.641  1.00  0.00     0.217 C 
HETATM    2  N   UNL     1     -41.565  56.361 -54.986  1.00  0.00    -0.359 N 
HETATM    3  O   UNL     1     -43.240  55.116 -55.877  1.00  0.00    -0.274 OA
HETATM    4  H   UNL     1     -41.174  57.298 -54.923  1.00  0.00     0.162 HD
ENDROOT
BRANCH   2   5
HETATM    5  C   UNL     1     -40.661  55.242 -54.709  1.00  0.00     0.160 C 
BRANCH   5   6
HETATM    6  C   UNL     1     -40.687  54.671 -53.242  1.00  0.00     0.239 C 
BRANCH   6   7
HETATM    7  N   UNL     1     -41.995  55.036 -52.524  1.00  0.00    -0.069 N 
HETATM    8  H   UNL     1     -42.529  55.587 -53.228  1.00  0.00     0.279 HD
HETATM    9  C   UNL     1     -42.915  53.911 -52.168  1.00  0.00     0.270 C 
HETATM   10  C   UNL     1     -41.806  55.979 -51.376  1.00  0.00     0.270 C 
ENDBRANCH   6   7
BRANCH   6  11
HETATM   11  C   UNL     1     -40.352  53.185 -53.188  1.00  0.00    -0.004 A 
HETATM   12  C   UNL     1     -39.853  52.572 -52.021  1.00  0.00     0.042 A 
HETATM   13 CL   UNL     1     -39.562  53.456 -50.565  1.00  0.00    -0.084 Cl
HETATM   14  C   UNL     1     -39.568  51.203 -51.993  1.00  0.00     0.024 A 
HETATM   15  C   UNL     1     -39.767  50.419 -53.126  1.00  0.00     0.002 A 
HETATM   16  C   UNL     1     -40.251  51.002 -54.292  1.00  0.00     0.001 A 
HETATM   17  C   UNL     1     -40.538  52.369 -54.325  1.00  0.00     0.011 A 
ENDBRANCH   6  11
ENDBRANCH   5   6
ENDBRANCH   2   5
BRANCH   1  18
HETATM   18  C   UNL     1     -43.431  57.511 -56.056  1.00  0.00     0.107 C 
BRANCH  18  19
HETATM   19  C   UNL     1     -44.127  57.317 -57.398  1.00  0.00     0.052 C 
BRANCH  19  20
HETATM   20  C   UNL     1     -43.157  57.167 -58.517  1.00  0.00    -0.008 A 
HETATM   21  C   UNL     1     -42.144  58.029 -58.896  1.00  0.00     0.032 A 
HETATM   22  C   UNL     1     -41.688  59.328 -58.351  1.00  0.00     0.070 C 
HETATM   23  N   UNL     1     -41.538  57.444 -59.974  1.00  0.00    -0.282 N 
HETATM   24  H   UNL     1     -40.749  57.784 -60.515  1.00  0.00     0.189 HD
HETATM   25  N   UNL     1     -42.088  56.277 -60.330  1.00  0.00    -0.179 NA
HETATM   26  C   UNL     1     -43.068  56.088 -59.444  1.00  0.00     0.059 A 
HETATM   27  C   UNL     1     -43.910  54.867 -59.519  1.00  0.00     0.073 C 
ENDBRANCH  19  20
ENDBRANCH  18  19
ENDBRANCH   1  18
TORSDOF 7
ENDMDL
MODEL 3
REMARK VINA RESULT:      -7.5      3.058      7.034
REMARK  7 active torsions:
REMARK  status: ('A' for Active; 'I' for Inactive)
REMARK    1  A    between atoms: C_8  and  C_9 
REMARK    2  A    between atoms: C_9  and  C_10 
REMARK    3  A    between atoms: C_10  and  C_11 
REMARK       I    between atoms: C_11  and  N_12 
REMARK    4  A    between atoms: N_12  and  C_13 
REMARK    5  A    between atoms: C_13  and  C_14 
REMARK    6  A    between atoms: C_14  and  N_15 
REMARK    7  A    between atoms: C_14  and  C_19 
ROOT
HETATM    1  C   UNL     1     -42.231  54.309 -55.167  1.00  0.00     0.217 C 
HETATM    2  N   UNL     1     -41.506  55.412 -54.793  1.00  0.00    -0.359 N 
HETATM    3  O   UNL     1     -43.131  54.389 -56.001  1.00  0.00    -0.274 OA
HETATM    4  H   UNL     1     -40.854  55.299 -54.020  1.00  0.00     0.162 HD
ENDROOT
BRANCH   2   5
HETATM    5  C   UNL     1     -41.863  56.782 -55.169  1.00  0.00     0.160 C 
BRANCH   5   6
HETATM    6  C   UNL     1     -42.582  57.644 -54.065  1.00  0.00     0.239 C 
BRANCH   6   7
HETATM    7  N   UNL     1     -44.089  57.753 -54.336  1.00  0.00    -0.069 N 
HETATM    8  H   UNL     1     -44.493  56.903 -53.890  1.00  0.00     0.279 HD
HETATM    9  C   UNL     1     -44.820  58.886 -53.688  1.00  0.00     0.270 C 
HETATM   10  C   UNL     1     -44.450  57.622 -55.785  1.00  0.00     0.270 C 
ENDBRANCH   6   7
BRANCH   6  11
HETATM   11  C   UNL     1     -42.245  57.183 -52.653  1.00  0.00    -0.004 A 
HETATM   12  C   UNL     1     -41.133  57.685 -51.947  1.00  0.00     0.042 A 
HETATM   13 CL   UNL     1     -40.052  58.847 -52.629  1.00  0.00    -0.084 Cl
HETATM   14  C   UNL     1     -40.854  57.256 -50.644  1.00  0.00     0.024 A 
HETATM   15  C   UNL     1     -41.672  56.317 -50.022  1.00  0.00     0.002 A 
HETATM   16  C   UNL     1     -42.769  55.801 -50.701  1.00  0.00     0.001 A 
HETATM   17  C   UNL     1     -43.053  56.226 -52.001  1.00  0.00     0.011 A 
ENDBRANCH   6  11
ENDBRANCH   5   6
ENDBRANCH   2   5
BRANCH   1  18
HETATM   18  C   UNL     1     -41.860  53.019 -54.482  1.00  0.00     0.107 C 
BRANCH  18  19
HETATM   19  C   UNL     1     -40.365  53.005 -54.190  1.00  0.00     0.052 C 
BRANCH  19  20
HETATM   20  C   UNL     1     -39.997  51.962 -53.192  1.00  0.00    -0.008 A 
HETATM   21  C   UNL     1     -39.801  52.108 -51.831  1.00  0.00     0.032 A 
HETATM   22  C   UNL     1     -39.886  53.284 -50.935  1.00  0.00     0.070 C 
HETATM   23  N   UNL     1     -39.483  50.863 -51.363  1.00  0.00    -0.282 N 
HETATM   24  H   UNL     1     -39.277  50.582 -50.408  1.00  0.00     0.189 HD
HETATM   25  N   UNL     1     -39.445  49.925 -52.316  1.00  0.00    -0.179 NA
HETATM   26  C   UNL     1     -39.770  50.577 -53.436  1.00  0.00     0.059 A 
HETATM   27  C   UNL     1     -39.842  49.844 -54.725  1.00  0.00     0.073 C 
ENDBRANCH  19  20
ENDBRANCH  18  19
ENDBRANCH   1  18
TORSDOF 7
ENDMDL
MODEL 4
REMARK VINA RESULT:      -7.3      3.195      8.257
REMARK  7 active torsions:
REMARK  status: ('A' for Active; 'I' for Inactive)
REMARK    1  A    between atoms: C_8  and  C_9 
REMARK    2  A    between atoms: C_9  and  C_10 
REMARK    3  A    between atoms: C_10  and  C_11 
REMARK       I    between atoms: C_11  and  N_12 
REMARK    4  A    between atoms: N_12  and  C_13 
REMARK    5  A    between atoms: C_13  and  C_14 
REMARK    6  A    between atoms: C_14  and  N_15 
REMARK    7  A    between atoms: C_14  and  C_19 
ROOT
HETATM    1  C   UNL     1     -40.862  55.373 -54.887  1.00  0.00     0.217 C 
HETATM    2  N   UNL     1     -41.693  55.814 -55.885  1.00  0.00    -0.359 N 
HETATM    3  O   UNL     1     -40.631  56.063 -53.896  1.00  0.00    -0.274 OA
HETATM    4  H   UNL     1     -41.753  55.245 -56.726  1.00  0.00     0.162 HD
ENDROOT
BRANCH   2   5
HETATM    5  C   UNL     1     -42.197  57.187 -55.974  1.00  0.00     0.160 C 
BRANCH   5   6
HETATM    6  C   UNL     1     -43.340  57.445 -57.025  1.00  0.00     0.239 C 
BRANCH   6   7
HETATM    7  N   UNL     1     -44.563  58.103 -56.370  1.00  0.00    -0.069 N 
HETATM    8  H   UNL     1     -44.272  59.091 -56.217  1.00  0.00     0.279 HD
HETATM    9  C   UNL     1     -45.804  58.213 -57.198  1.00  0.00     0.270 C 
HETATM   10  C   UNL     1     -44.860  57.584 -54.996  1.00  0.00     0.270 C 
ENDBRANCH   6   7
BRANCH   6  11
HETATM   11  C   UNL     1     -42.838  58.179 -58.263  1.00  0.00    -0.004 A 
HETATM   12  C   UNL     1     -42.578  57.509 -59.476  1.00  0.00     0.042 A 
HETATM   13 CL   UNL     1     -42.787  55.803 -59.654  1.00  0.00    -0.084 Cl
HETATM   14  C   UNL     1     -42.133  58.209 -60.604  1.00  0.00     0.024 A 
HETATM   15  C   UNL     1     -41.933  59.585 -60.544  1.00  0.00     0.002 A 
HETATM   16  C   UNL     1     -42.175  60.267 -59.357  1.00  0.00     0.001 A 
HETATM   17  C   UNL     1     -42.620  59.573 -58.228  1.00  0.00     0.011 A 
ENDBRANCH   6  11
ENDBRANCH   5   6
ENDBRANCH   2   5
BRANCH   1  18
HETATM   18  C   UNL     1     -40.250  54.012 -55.100  1.00  0.00     0.107 C 
BRANCH  18  19
HETATM   19  C   UNL     1     -41.131  52.947 -54.458  1.00  0.00     0.052 C 
BRANCH  19  20
HETATM   20  C   UNL     1     -40.431  52.227 -53.358  1.00  0.00    -0.008 A 
HETATM   21  C   UNL     1     -40.204  52.654 -52.062  1.00  0.00     0.032 A 
HETATM   22  C   UNL     1     -40.560  53.901 -51.349  1.00  0.00     0.070 C 
HETATM   23  N   UNL     1     -39.526  51.637 -51.448  1.00  0.00    -0.282 N 
HETATM   24  H   UNL     1     -39.195  51.589 -50.488  1.00  0.00     0.189 HD
HETATM   25  N   UNL     1     -39.285  50.592 -52.248  1.00  0.00    -0.179 NA
HETATM   26  C   UNL     1     -39.842  50.931 -53.413  1.00  0.00     0.059 A 
HETATM   27  C   UNL     1     -39.783  49.994 -54.563  1.00  0.00     0.073 C 
ENDBRANCH  19  20
ENDBRANCH  18  19
ENDBRANCH   1  18
TORSDOF 7
ENDMDL
MODEL 5
REMARK VINA RESULT:      -7.2      1.974      2.832
REMARK  7 active torsions:
REMARK  status: ('A' for Active; 'I' for Inactive)
REMARK    1  A    between atoms: C_8  and  C_9 
REMARK    2  A    between atoms: C_9  and  C_10 
REMARK    3  A    between atoms: C_10  and  C_11 
REMARK       I    between atoms: C_11  and  N_12 
REMARK    4  A    between atoms: N_12  and  C_13 
REMARK    5  A    between atoms: C_13  and  C_14 
REMARK    6  A    between atoms: C_14  and  N_15 
REMARK    7  A    between atoms: C_14  and  C_19 
ROOT
HETATM    1  C   UNL     1     -43.393  56.572 -54.918  1.00  0.00     0.217 C 
HETATM    2  N   UNL     1     -43.193  55.238 -54.669  1.00  0.00    -0.359 N 
HETATM    3  O   UNL     1     -43.303  57.410 -54.023  1.00  0.00    -0.274 OA
HETATM    4  H   UNL     1     -43.392  54.589 -55.427  1.00  0.00     0.162 HD
ENDROOT
BRANCH   2   5
HETATM    5  C   UNL     1     -43.073  54.674 -53.322  1.00  0.00     0.160 C 
BRANCH   5   6
HETATM    6  C   UNL     1     -41.706  54.921 -52.581  1.00  0.00     0.239 C 
BRANCH   6   7
HETATM    7  N   UNL     1     -41.895  55.807 -51.342  1.00  0.00    -0.069 N 
HETATM    8  H   UNL     1     -41.456  55.265 -50.569  1.00  0.00     0.279 HD
HETATM    9  C   UNL     1     -41.174  57.118 -51.323  1.00  0.00     0.270 C 
HETATM   10  C   UNL     1     -43.326  55.959 -50.925  1.00  0.00     0.270 C 
ENDBRANCH   6   7
BRANCH   6  11
HETATM   11  C   UNL     1     -40.953  53.626 -52.301  1.00  0.00    -0.004 A 
HETATM   12  C   UNL     1     -40.279  52.917 -53.316  1.00  0.00     0.042 A 
HETATM   13 CL   UNL     1     -40.269  53.444 -54.961  1.00  0.00    -0.084 Cl
HETATM   14  C   UNL     1     -39.581  51.739 -53.029  1.00  0.00     0.024 A 
HETATM   15  C   UNL     1     -39.545  51.241 -51.729  1.00  0.00     0.002 A 
HETATM   16  C   UNL     1     -40.208  51.919 -50.712  1.00  0.00     0.001 A 
HETATM   17  C   UNL     1     -40.906  53.096 -50.994  1.00  0.00     0.011 A 
ENDBRANCH   6  11
ENDBRANCH   5   6
ENDBRANCH   2   5
BRANCH   1  18
HETATM   18  C   UNL     1     -43.742  56.927 -56.342  1.00  0.00     0.107 C 
BRANCH  18  19
HETATM   19  C   UNL     1     -42.986  56.012 -57.298  1.00  0.00     0.052 C 
BRANCH  19  20
HETATM   20  C   UNL     1     -43.299  56.309 -58.724  1.00  0.00    -0.008 A 
HETATM   21  C   UNL     1     -43.015  57.456 -59.443  1.00  0.00     0.032 A 
HETATM   22  C   UNL     1     -42.333  58.718 -59.075  1.00  0.00     0.070 C 
HETATM   23  N   UNL     1     -43.504  57.238 -60.702  1.00  0.00    -0.282 N 
HETATM   24  H   UNL     1     -43.472  57.858 -61.507  1.00  0.00     0.189 HD
HETATM   25  N   UNL     1     -44.093  56.046 -60.850  1.00  0.00    -0.179 NA
HETATM   26  C   UNL     1     -43.965  55.462 -59.656  1.00  0.00     0.059 A 
HETATM   27  C   UNL     1     -44.503  54.096 -59.437  1.00  0.00     0.073 C 
ENDBRANCH  19  20
ENDBRANCH  18  19
ENDBRANCH   1  18
TORSDOF 7
ENDMDL
MODEL 6
REMARK VINA RESULT:      -7.2      3.327      8.228
REMARK  7 active torsions:
REMARK  status: ('A' for Active; 'I' for Inactive)
REMARK    1  A    between atoms: C_8  and  C_9 
REMARK    2  A    between atoms: C_9  and  C_10 
REMARK    3  A    between atoms: C_10  and  C_11 
REMARK       I    between atoms: C_11  and  N_12 
REMARK    4  A    between atoms: N_12  and  C_13 
REMARK    5  A    between atoms: C_13  and  C_14 
REMARK    6  A    between atoms: C_14  and  N_15 
REMARK    7  A    between atoms: C_14  and  C_19 
ROOT
HETATM    1  C   UNL     1     -40.848  55.319 -54.945  1.00  0.00     0.217 C 
HETATM    2  N   UNL     1     -41.726  55.654 -55.944  1.00  0.00    -0.359 N 
HETATM    3  O   UNL     1     -40.615  56.087 -54.014  1.00  0.00    -0.274 OA
HETATM    4  H   UNL     1     -41.789  55.023 -56.739  1.00  0.00     0.162 HD
ENDROOT
BRANCH   2   5
HETATM    5  C   UNL     1     -42.286  56.998 -56.114  1.00  0.00     0.160 C 
BRANCH   5   6
HETATM    6  C   UNL     1     -43.283  57.191 -57.317  1.00  0.00     0.239 C 
BRANCH   6   7
HETATM    7  N   UNL     1     -44.715  57.438 -56.820  1.00  0.00    -0.069 N 
HETATM    8  H   UNL     1     -45.107  56.483 -56.682  1.00  0.00     0.279 HD
HETATM    9  C   UNL     1     -44.872  58.093 -55.485  1.00  0.00     0.270 C 
HETATM   10  C   UNL     1     -45.608  58.062 -57.849  1.00  0.00     0.270 C 
ENDBRANCH   6   7
BRANCH   6  11
HETATM   11  C   UNL     1     -42.794  58.230 -58.319  1.00  0.00    -0.004 A 
HETATM   12  C   UNL     1     -42.821  57.999 -59.709  1.00  0.00     0.042 A 
HETATM   13 CL   UNL     1     -43.391  56.517 -60.390  1.00  0.00    -0.084 Cl
HETATM   14  C   UNL     1     -42.381  58.976 -60.610  1.00  0.00     0.024 A 
HETATM   15  C   UNL     1     -41.899  60.196 -60.144  1.00  0.00     0.002 A 
HETATM   16  C   UNL     1     -41.855  60.444 -58.777  1.00  0.00     0.001 A 
HETATM   17  C   UNL     1     -42.294  59.473 -57.874  1.00  0.00     0.011 A 
ENDBRANCH   6  11
ENDBRANCH   5   6
ENDBRANCH   2   5
BRANCH   1  18
HETATM   18  C   UNL     1     -40.190  53.969 -55.078  1.00  0.00     0.107 C 
BRANCH  18  19
HETATM   19  C   UNL     1     -41.080  52.900 -54.458  1.00  0.00     0.052 C 
BRANCH  19  20
HETATM   20  C   UNL     1     -40.398  52.174 -53.350  1.00  0.00    -0.008 A 
HETATM   21  C   UNL     1     -39.782  50.937 -53.388  1.00  0.00     0.032 A 
HETATM   22  C   UNL     1     -39.588  49.955 -54.479  1.00  0.00     0.070 C 
HETATM   23  N   UNL     1     -39.310  50.716 -52.123  1.00  0.00    -0.282 N 
HETATM   24  H   UNL     1     -38.796  49.912 -51.773  1.00  0.00     0.189 HD
HETATM   25  N   UNL     1     -39.584  51.708 -51.267  1.00  0.00    -0.179 NA
HETATM   26  C   UNL     1     -40.236  52.611 -52.004  1.00  0.00     0.059 A 
HETATM   27  C   UNL     1     -40.700  53.877 -51.384  1.00  0.00     0.073 C 
ENDBRANCH  19  20
ENDBRANCH  18  19
ENDBRANCH   1  18
TORSDOF 7
ENDMDL
MODEL 7
REMARK VINA RESULT:      -7.2      4.116      7.555
REMARK  7 active torsions:
REMARK  status: ('A' for Active; 'I' for Inactive)
REMARK    1  A    between atoms: C_8  and  C_9 
REMARK    2  A    between atoms: C_9  and  C_10 
REMARK    3  A    between atoms: C_10  and  C_11 
REMARK       I    between atoms: C_11  and  N_12 
REMARK    4  A    between atoms: N_12  and  C_13 
REMARK    5  A    between atoms: C_13  and  C_14 
REMARK    6  A    between atoms: C_14  and  N_15 
REMARK    7  A    between atoms: C_14  and  C_19 
ROOT
HETATM    1  C   UNL     1     -41.589  54.241 -50.109  1.00  0.00     0.217 C 
HETATM    2  N   UNL     1     -42.812  54.363 -50.717  1.00  0.00    -0.359 N 
HETATM    3  O   UNL     1     -41.095  55.170 -49.473  1.00  0.00    -0.274 OA
HETATM    4  H   UNL     1     -43.111  53.599 -51.319  1.00  0.00     0.162 HD
ENDROOT
BRANCH   2   5
HETATM    5  C   UNL     1     -43.527  55.635 -50.852  1.00  0.00     0.160 C 
BRANCH   5   6
HETATM    6  C   UNL     1     -43.292  56.430 -52.190  1.00  0.00     0.239 C 
BRANCH   6   7
HETATM    7  N   UNL     1     -44.587  57.094 -52.680  1.00  0.00    -0.069 N 
HETATM    8  H   UNL     1     -45.346  56.504 -52.280  1.00  0.00     0.279 HD
HETATM    9  C   UNL     1     -44.886  58.468 -52.169  1.00  0.00     0.270 C 
HETATM   10  C   UNL     1     -44.785  57.002 -54.163  1.00  0.00     0.270 C 
ENDBRANCH   6   7
BRANCH   6  11
HETATM   11  C   UNL     1     -42.108  57.385 -52.101  1.00  0.00    -0.004 A 
HETATM   12  C   UNL     1     -41.224  57.584 -53.180  1.00  0.00     0.042 A 
HETATM   13 CL   UNL     1     -41.395  56.748 -54.682  1.00  0.00    -0.084 Cl
HETATM   14  C   UNL     1     -40.153  58.480 -53.078  1.00  0.00     0.024 A 
HETATM   15  C   UNL     1     -39.939  59.189 -51.899  1.00  0.00     0.002 A 
HETATM   16  C   UNL     1     -40.794  59.005 -50.819  1.00  0.00     0.001 A 
HETATM   17  C   UNL     1     -41.864  58.112 -50.916  1.00  0.00     0.011 A 
ENDBRANCH   6  11
ENDBRANCH   5   6
ENDBRANCH   2   5
BRANCH   1  18
HETATM   18  C   UNL     1     -40.899  52.913 -50.288  1.00  0.00     0.107 C 
BRANCH  18  19
HETATM   19  C   UNL     1     -39.792  53.045 -51.327  1.00  0.00     0.052 C 
BRANCH  19  20
HETATM   20  C   UNL     1     -39.820  51.936 -52.321  1.00  0.00    -0.008 A 
HETATM   21  C   UNL     1     -39.639  50.582 -52.101  1.00  0.00     0.032 A 
HETATM   22  C   UNL     1     -39.375  49.801 -50.871  1.00  0.00     0.070 C 
HETATM   23  N   UNL     1     -39.758  49.985 -53.326  1.00  0.00    -0.282 N 
HETATM   24  H   UNL     1     -39.691  48.998 -53.556  1.00  0.00     0.189 HD
HETATM   25  N   UNL     1     -39.989  50.848 -54.323  1.00  0.00    -0.179 NA
HETATM   26  C   UNL     1     -40.043  52.040 -53.724  1.00  0.00     0.059 A 
HETATM   27  C   UNL     1     -40.298  53.262 -54.528  1.00  0.00     0.073 C 
ENDBRANCH  19  20
ENDBRANCH  18  19
ENDBRANCH   1  18
TORSDOF 7
ENDMDL
MODEL 8
REMARK VINA RESULT:      -7.0      3.218      8.172
REMARK  7 active torsions:
REMARK  status: ('A' for Active; 'I' for Inactive)
REMARK    1  A    between atoms: C_8  and  C_9 
REMARK    2  A    between atoms: C_9  and  C_10 
REMARK    3  A    between atoms: C_10  and  C_11 
REMARK       I    between atoms: C_11  and  N_12 
REMARK    4  A    between atoms: N_12  and  C_13 
REMARK    5  A    between atoms: C_13  and  C_14 
REMARK    6  A    between atoms: C_14  and  N_15 
REMARK    7  A    between atoms: C_14  and  C_19 
ROOT
HETATM    1  C   UNL     1     -42.385  55.496 -55.457  1.00  0.00     0.217 C 
HETATM    2  N   UNL     1     -42.179  56.503 -56.366  1.00  0.00    -0.359 N 
HETATM    3  O   UNL     1     -43.445  55.398 -54.842  1.00  0.00    -0.274 OA
HETATM    4  H   UNL     1     -41.243  56.592 -56.756  1.00  0.00     0.162 HD
ENDROOT
BRANCH   2   5
HETATM    5  C   UNL     1     -43.079  57.647 -56.526  1.00  0.00     0.160 C 
BRANCH   5   6
HETATM    6  C   UNL     1     -43.403  58.079 -58.005  1.00  0.00     0.239 C 
BRANCH   6   7
HETATM    7  N   UNL     1     -42.162  58.652 -58.703  1.00  0.00    -0.069 N 
HETATM    8  H   UNL     1     -41.450  57.897 -58.623  1.00  0.00     0.279 HD
HETATM    9  C   UNL     1     -42.262  58.904 -60.175  1.00  0.00     0.270 C 
HETATM   10  C   UNL     1     -41.553  59.817 -57.985  1.00  0.00     0.270 C 
ENDBRANCH   6   7
BRANCH   6  11
HETATM   11  C   UNL     1     -44.098  56.976 -58.795  1.00  0.00    -0.004 A 
HETATM   12  C   UNL     1     -45.423  57.108 -59.258  1.00  0.00     0.042 A 
HETATM   13 CL   UNL     1     -46.374  58.517 -58.951  1.00  0.00    -0.084 Cl
HETATM   14  C   UNL     1     -46.032  56.087 -59.996  1.00  0.00     0.024 A 
HETATM   15  C   UNL     1     -45.338  54.915 -60.282  1.00  0.00     0.002 A 
HETATM   16  C   UNL     1     -44.033  54.758 -59.830  1.00  0.00     0.001 A 
HETATM   17  C   UNL     1     -43.420  55.775 -59.093  1.00  0.00     0.011 A 
ENDBRANCH   6  11
ENDBRANCH   5   6
ENDBRANCH   2   5
BRANCH   1  18
HETATM   18  C   UNL     1     -41.232  54.544 -55.262  1.00  0.00     0.107 C 
BRANCH  18  19
HETATM   19  C   UNL     1     -41.719  53.286 -54.554  1.00  0.00     0.052 C 
BRANCH  19  20
HETATM   20  C   UNL     1     -40.833  52.901 -53.421  1.00  0.00    -0.008 A 
HETATM   21  C   UNL     1     -40.616  53.577 -52.234  1.00  0.00     0.032 A 
HETATM   22  C   UNL     1     -41.160  54.845 -51.698  1.00  0.00     0.070 C 
HETATM   23  N   UNL     1     -39.723  52.817 -51.529  1.00  0.00    -0.282 N 
HETATM   24  H   UNL     1     -39.334  52.994 -50.607  1.00  0.00     0.189 HD
HETATM   25  N   UNL     1     -39.336  51.709 -52.172  1.00  0.00    -0.179 NA
HETATM   26  C   UNL     1     -40.014  51.739 -53.322  1.00  0.00     0.059 A 
HETATM   27  C   UNL     1     -39.846  50.644 -54.310  1.00  0.00     0.073 C 
ENDBRANCH  19  20
ENDBRANCH  18  19
ENDBRANCH   1  18
TORSDOF 7
ENDMDL
MODEL 9
REMARK VINA RESULT:      -6.8      3.058      8.157
REMARK  7 active torsions:
REMARK  status: ('A' for Active; 'I' for Inactive)
REMARK    1  A    between atoms: C_8  and  C_9 
REMARK    2  A    between atoms: C_9  and  C_10 
REMARK    3  A    between atoms: C_10  and  C_11 
REMARK       I    between atoms: C_11  and  N_12 
REMARK    4  A    between atoms: N_12  and  C_13 
REMARK    5  A    between atoms: C_13  and  C_14 
REMARK    6  A    between atoms: C_14  and  N_15 
REMARK    7  A    between atoms: C_14  and  C_19 
ROOT
HETATM    1  C   UNL     1     -43.000  54.584 -54.982  1.00  0.00     0.217 C 
HETATM    2  N   UNL     1     -42.378  55.479 -55.814  1.00  0.00    -0.359 N 
HETATM    3  O   UNL     1     -43.569  53.588 -55.425  1.00  0.00    -0.274 OA
HETATM    4  H   UNL     1     -42.025  56.336 -55.395  1.00  0.00     0.162 HD
ENDROOT
BRANCH   2   5
HETATM    5  C   UNL     1     -42.512  55.458 -57.273  1.00  0.00     0.160 C 
BRANCH   5   6
HETATM    6  C   UNL     1     -43.118  56.750 -57.937  1.00  0.00     0.239 C 
BRANCH   6   7
HETATM    7  N   UNL     1     -42.014  57.672 -58.473  1.00  0.00    -0.069 N 
HETATM    8  H   UNL     1     -41.130  57.247 -58.121  1.00  0.00     0.279 HD
HETATM    9  C   UNL     1     -41.827  57.725 -59.956  1.00  0.00     0.270 C 
HETATM   10  C   UNL     1     -42.033  59.044 -57.871  1.00  0.00     0.270 C 
ENDBRANCH   6   7
BRANCH   6  11
HETATM   11  C   UNL     1     -44.198  56.427 -58.962  1.00  0.00    -0.004 A 
HETATM   12  C   UNL     1     -45.335  57.243 -59.135  1.00  0.00     0.042 A 
HETATM   13 CL   UNL     1     -45.606  58.662 -58.187  1.00  0.00    -0.084 Cl
HETATM   14  C   UNL     1     -46.305  56.933 -60.094  1.00  0.00     0.024 A 
HETATM   15  C   UNL     1     -46.166  55.803 -60.896  1.00  0.00     0.002 A 
HETATM   16  C   UNL     1     -45.058  54.979 -60.739  1.00  0.00     0.001 A 
HETATM   17  C   UNL     1     -44.086  55.284 -59.783  1.00  0.00     0.011 A 
ENDBRANCH   6  11
ENDBRANCH   5   6
ENDBRANCH   2   5
BRANCH   1  18
HETATM   18  C   UNL     1     -42.950  54.913 -53.512  1.00  0.00     0.107 C 
BRANCH  18  19
HETATM   19  C   UNL     1     -41.514  55.216 -53.103  1.00  0.00     0.052 C 
BRANCH  19  20
HETATM   20  C   UNL     1     -40.905  54.102 -52.324  1.00  0.00    -0.008 A 
HETATM   21  C   UNL     1     -40.359  52.923 -52.798  1.00  0.00     0.032 A 
HETATM   22  C   UNL     1     -40.191  52.385 -54.167  1.00  0.00     0.070 C 
HETATM   23  N   UNL     1     -39.935  52.237 -51.693  1.00  0.00    -0.282 N 
HETATM   24  H   UNL     1     -39.477  51.330 -51.651  1.00  0.00     0.189 HD
HETATM   25  N   UNL     1     -40.176  52.873 -50.541  1.00  0.00    -0.179 NA
HETATM   26  C   UNL     1     -40.755  54.019 -50.910  1.00  0.00     0.059 A 
HETATM   27  C   UNL     1     -41.164  55.007 -49.880  1.00  0.00     0.073 C 
ENDBRANCH  19  20
ENDBRANCH  18  19
ENDBRANCH   1  18
TORSDOF 7
ENDMDL
MODEL 10
REMARK VINA RESULT:      -6.8      3.077      7.239
REMARK  7 active torsions:
REMARK  status: ('A' for Active; 'I' for Inactive)
REMARK    1  A    between atoms: C_8  and  C_9 
REMARK    2  A    between atoms: C_9  and  C_10 
REMARK    3  A    between atoms: C_10  and  C_11 
REMARK       I    between atoms: C_11  and  N_12 
REMARK    4  A    between atoms: N_12  and  C_13 
REMARK    5  A    between atoms: C_13  and  C_14 
REMARK    6  A    between atoms: C_14  and  N_15 
REMARK    7  A    between atoms: C_14  and  C_19 
ROOT
HETATM    1  C   UNL     1     -42.453  54.634 -55.523  1.00  0.00     0.217 C 
HETATM    2  N   UNL     1     -41.798  55.827 -55.350  1.00  0.00    -0.359 N 
HETATM    3  O   UNL     1     -43.241  54.466 -56.452  1.00  0.00    -0.274 OA
HETATM    4  H   UNL     1     -41.247  55.936 -54.502  1.00  0.00     0.162 HD
ENDROOT
BRANCH   2   5
HETATM    5  C   UNL     1     -42.124  57.046 -56.094  1.00  0.00     0.160 C 
BRANCH   5   6
HETATM    6  C   UNL     1     -42.206  58.375 -55.254  1.00  0.00     0.239 C 
BRANCH   6   7
HETATM    7  N   UNL     1     -43.455  59.190 -55.619  1.00  0.00    -0.069 N 
HETATM    8  H   UNL     1     -44.163  58.907 -54.909  1.00  0.00     0.279 HD
HETATM    9  C   UNL     1     -43.368  60.677 -55.472  1.00  0.00     0.270 C 
HETATM   10  C   UNL     1     -44.065  58.800 -56.931  1.00  0.00     0.270 C 
ENDBRANCH   6   7
BRANCH   6  11
HETATM   11  C   UNL     1     -42.048  58.131 -53.758  1.00  0.00    -0.004 A 
HETATM   12  C   UNL     1     -43.081  57.575 -52.978  1.00  0.00     0.042 A 
HETATM   13 CL   UNL     1     -44.616  57.145 -53.646  1.00  0.00    -0.084 Cl
HETATM   14  C   UNL     1     -42.906  57.345 -51.608  1.00  0.00     0.024 A 
HETATM   15  C   UNL     1     -41.701  57.669 -50.990  1.00  0.00     0.002 A 
HETATM   16  C   UNL     1     -40.670  58.226 -51.737  1.00  0.00     0.001 A 
HETATM   17  C   UNL     1     -40.840  58.457 -53.104  1.00  0.00     0.011 A 
ENDBRANCH   6  11
ENDBRANCH   5   6
ENDBRANCH   2   5
BRANCH   1  18
HETATM   18  C   UNL     1     -42.151  53.568 -54.501  1.00  0.00     0.107 C 
BRANCH  18  19
HETATM   19  C   UNL     1     -40.660  53.256 -54.509  1.00  0.00     0.052 C 
BRANCH  19  20
HETATM   20  C   UNL     1     -40.250  52.447 -53.327  1.00  0.00    -0.008 A 
HETATM   21  C   UNL     1     -40.194  52.833 -52.001  1.00  0.00     0.032 A 
HETATM   22  C   UNL     1     -40.509  54.111 -51.323  1.00  0.00     0.070 C 
HETATM   23  N   UNL     1     -39.759  51.735 -51.310  1.00  0.00    -0.282 N 
HETATM   24  H   UNL     1     -39.603  51.640 -50.310  1.00  0.00     0.189 HD
HETATM   25  N   UNL     1     -39.517  50.673 -52.087  1.00  0.00    -0.179 NA
HETATM   26  C   UNL     1     -39.824  51.087 -53.319  1.00  0.00     0.059 A 
HETATM   27  C   UNL     1     -39.687  50.157 -54.468  1.00  0.00     0.073 C 
ENDBRANCH  19  20
ENDBRANCH  18  19
ENDBRANCH   1  18
TORSDOF 7
ENDMDL
