MODEL 1
REMARK VINA RESULT:      -8.3      0.000      0.000
REMARK  9 active torsions:
REMARK  status: ('A' for Active; 'I' for Inactive)
REMARK    1  A    between atoms: C_4  and  C_5 
REMARK    2  A    between atoms: C_11  and  C_12 
REMARK    3  A    between atoms: C_15  and  C_16 
REMARK    4  A    between atoms: C_16  and  N_17 
REMARK    5  A    between atoms: N_17  and  C_18 
REMARK    6  A    between atoms: C_18  and  N_19 
REMARK    7  A    between atoms: N_19  and  C_20 
REMARK    8  A    between atoms: C_22  and  C_23 
REMARK    9  A    between atoms: C_23  and  O_24 
ROOT
HETATM    1  C   UNL     1     -42.007  56.424 -52.674  1.00  0.00     0.067 C 
HETATM    2  C   UNL     1     -43.549  56.344 -52.851  1.00  0.00     0.001 C 
HETATM    3  C   UNL     1     -43.921  55.736 -54.223  1.00  0.00     0.040 C 
HETATM    4  C   UNL     1     -43.427  56.637 -55.366  1.00  0.00     0.206 C 
HETATM    5  N   UNL     1     -42.530  57.715 -54.750  1.00  0.00    -0.065 N 
HETATM    6  H   UNL     1     -42.100  58.255 -55.514  1.00  0.00     0.280 HD
HETATM    7  C   UNL     1     -41.405  57.145 -53.901  1.00  0.00     0.246 C 
HETATM    8  C   UNL     1     -44.087  57.794 -52.835  1.00  0.00     0.033 C 
HETATM    9  C   UNL     1     -43.384  58.642 -53.901  1.00  0.00     0.236 C 
ENDROOT
BRANCH   4  10
HETATM   10  C   UNL     1     -42.759  55.912 -56.552  1.00  0.00     0.155 C 
BRANCH  10  11
HETATM   11  N   UNL     1     -43.665  55.530 -57.629  1.00  0.00    -0.365 N 
HETATM   12  H   UNL     1     -44.655  55.527 -57.413  1.00  0.00     0.161 HD
BRANCH  11  13
HETATM   13  C   UNL     1     -43.416  55.677 -58.968  1.00  0.00     0.172 C 
HETATM   14  S   UNL     1     -44.460  55.174 -60.167  1.00  0.00    -0.041 SA
BRANCH  13  15
HETATM   15  N   UNL     1     -42.300  56.397 -59.301  1.00  0.00    -0.333 N 
HETATM   16  H   UNL     1     -41.446  55.846 -59.348  1.00  0.00     0.168 HD
BRANCH  15  17
HETATM   17  C   UNL     1     -42.135  57.792 -59.463  1.00  0.00     0.035 A 
HETATM   18  C   UNL     1     -41.937  58.664 -58.389  1.00  0.00     0.047 A 
HETATM   19  C   UNL     1     -41.835  60.047 -58.588  1.00  0.00     0.041 A 
HETATM   20  C   UNL     1     -41.864  60.563 -59.883  1.00  0.00     0.018 A 
HETATM   21  C   UNL     1     -41.996  59.692 -60.967  1.00  0.00     0.003 A 
HETATM   22  C   UNL     1     -42.127  58.313 -60.758  1.00  0.00     0.029 A 
BRANCH  19  23
HETATM   23  C   UNL     1     -41.744  60.895 -57.373  1.00  0.00     0.293 C 
HETATM   24  O   UNL     1     -41.633  60.421 -56.250  1.00  0.00    -0.259 OA
BRANCH  23  25
HETATM   25  O   UNL     1     -41.781  62.206 -57.699  1.00  0.00    -0.323 OA
HETATM   26  C   UNL     1     -42.931  62.895 -57.203  1.00  0.00     0.213 C 
ENDBRANCH  23  25
ENDBRANCH  19  23
ENDBRANCH  15  17
ENDBRANCH  13  15
ENDBRANCH  11  13
ENDBRANCH  10  11
ENDBRANCH   4  10
BRANCH   1  27
HETATM   27  C   UNL     1     -41.330  55.113 -52.378  1.00  0.00     0.038 A 
HETATM   28  N   UNL     1     -40.889  54.755 -51.120  1.00  0.00    -0.277 N 
HETATM   29  C   UNL     1     -40.984  55.498 -49.883  1.00  0.00     0.179 C 
HETATM   30  N   UNL     1     -40.305  53.552 -51.080  1.00  0.00    -0.172 NA
HETATM   31  C   UNL     1     -40.462  53.051 -52.308  1.00  0.00     0.096 A 
HETATM   32  C   UNL     1     -41.078  53.997 -53.160  1.00  0.00     0.062 A 
BRANCH  31  33
HETATM   33  C   UNL     1     -40.042  51.655 -52.655  1.00  0.00     0.035 A 
HETATM   34  S   UNL     1     -39.565  50.474 -51.515  1.00  0.00    -0.100 SA
HETATM   35  C   UNL     1     -39.241  49.328 -52.744  1.00  0.00     0.050 A 
HETATM   36  C   UNL     1     -39.500  49.831 -54.001  1.00  0.00     0.008 A 
HETATM   37  C   UNL     1     -39.972  51.175 -53.947  1.00  0.00     0.022 A 
ENDBRANCH  31  33
ENDBRANCH   1  27
TORSDOF 9
ENDMDL
MODEL 2
REMARK VINA RESULT:      -8.3      2.830      3.793
REMARK  9 active torsions:
REMARK  status: ('A' for Active; 'I' for Inactive)
REMARK    1  A    between atoms: C_4  and  C_5 
REMARK    2  A    between atoms: C_11  and  C_12 
REMARK    3  A    between atoms: C_15  and  C_16 
REMARK    4  A    between atoms: C_16  and  N_17 
REMARK    5  A    between atoms: N_17  and  C_18 
REMARK    6  A    between atoms: C_18  and  N_19 
REMARK    7  A    between atoms: N_19  and  C_20 
REMARK    8  A    between atoms: C_22  and  C_23 
REMARK    9  A    between atoms: C_23  and  O_24 
ROOT
HETATM    1  C   UNL     1     -41.679  56.952 -52.291  1.00  0.00     0.067 C 
HETATM    2  C   UNL     1     -43.225  57.113 -52.256  1.00  0.00     0.001 C 
HETATM    3  C   UNL     1     -43.863  56.640 -53.583  1.00  0.00     0.040 C 
HETATM    4  C   UNL     1     -43.389  57.516 -54.754  1.00  0.00     0.206 C 
HETATM    5  N   UNL     1     -42.262  58.415 -54.233  1.00  0.00    -0.065 N 
HETATM    6  H   UNL     1     -41.858  58.924 -55.031  1.00  0.00     0.280 HD
HETATM    7  C   UNL     1     -41.139  57.639 -53.565  1.00  0.00     0.246 C 
HETATM    8  C   UNL     1     -43.524  58.625 -52.120  1.00  0.00     0.033 C 
HETATM    9  C   UNL     1     -42.844  59.413 -53.246  1.00  0.00     0.236 C 
ENDROOT
BRANCH   4  10
HETATM   10  C   UNL     1     -43.003  56.763 -56.043  1.00  0.00     0.155 C 
BRANCH  10  11
HETATM   11  N   UNL     1     -41.991  57.422 -56.860  1.00  0.00    -0.365 N 
HETATM   12  H   UNL     1     -41.083  56.973 -56.913  1.00  0.00     0.161 HD
BRANCH  11  13
HETATM   13  C   UNL     1     -42.242  58.236 -57.933  1.00  0.00     0.172 C 
HETATM   14  S   UNL     1     -42.135  59.900 -57.880  1.00  0.00    -0.041 SA
BRANCH  13  15
HETATM   15  N   UNL     1     -42.463  57.610 -59.130  1.00  0.00    -0.333 N 
HETATM   16  H   UNL     1     -41.777  57.829 -59.849  1.00  0.00     0.168 HD
BRANCH  15  17
HETATM   17  C   UNL     1     -43.556  56.817 -59.551  1.00  0.00     0.035 A 
HETATM   18  C   UNL     1     -44.755  57.360 -60.017  1.00  0.00     0.047 A 
HETATM   19  C   UNL     1     -45.833  56.539 -60.371  1.00  0.00     0.041 A 
HETATM   20  C   UNL     1     -45.692  55.153 -60.322  1.00  0.00     0.018 A 
HETATM   21  C   UNL     1     -44.473  54.600 -59.919  1.00  0.00     0.003 A 
HETATM   22  C   UNL     1     -43.410  55.429 -59.539  1.00  0.00     0.029 A 
BRANCH  19  23
HETATM   23  C   UNL     1     -47.100  57.218 -60.742  1.00  0.00     0.293 C 
HETATM   24  O   UNL     1     -47.257  58.425 -60.617  1.00  0.00    -0.259 OA
BRANCH  23  25
HETATM   25  O   UNL     1     -47.995  56.331 -61.232  1.00  0.00    -0.323 OA
HETATM   26  C   UNL     1     -48.699  56.793 -62.387  1.00  0.00     0.213 C 
ENDBRANCH  23  25
ENDBRANCH  19  23
ENDBRANCH  15  17
ENDBRANCH  13  15
ENDBRANCH  11  13
ENDBRANCH  10  11
ENDBRANCH   4  10
BRANCH   1  27
HETATM   27  C   UNL     1     -41.181  55.541 -52.133  1.00  0.00     0.038 A 
HETATM   28  N   UNL     1     -40.967  54.946 -50.905  1.00  0.00    -0.277 N 
HETATM   29  C   UNL     1     -41.176  55.498 -49.585  1.00  0.00     0.179 C 
HETATM   30  N   UNL     1     -40.513  53.691 -50.991  1.00  0.00    -0.172 NA
HETATM   31  C   UNL     1     -40.532  53.406 -52.296  1.00  0.00     0.096 A 
HETATM   32  C   UNL     1     -40.921  54.536 -53.050  1.00  0.00     0.062 A 
BRANCH  31  33
HETATM   33  C   UNL     1     -40.199  52.039 -52.814  1.00  0.00     0.035 A 
HETATM   34  S   UNL     1     -39.563  50.770 -51.863  1.00  0.00    -0.100 SA
HETATM   35  C   UNL     1     -39.464  49.723 -53.213  1.00  0.00     0.050 A 
HETATM   36  C   UNL     1     -39.915  50.325 -54.367  1.00  0.00     0.008 A 
HETATM   37  C   UNL     1     -40.348  51.663 -54.134  1.00  0.00     0.022 A 
ENDBRANCH  31  33
ENDBRANCH   1  27
TORSDOF 9
ENDMDL
MODEL 3
REMARK VINA RESULT:      -8.1      3.741      7.649
REMARK  9 active torsions:
REMARK  status: ('A' for Active; 'I' for Inactive)
REMARK    1  A    between atoms: C_4  and  C_5 
REMARK    2  A    between atoms: C_11  and  C_12 
REMARK    3  A    between atoms: C_15  and  C_16 
REMARK    4  A    between atoms: C_16  and  N_17 
REMARK    5  A    between atoms: N_17  and  C_18 
REMARK    6  A    between atoms: C_18  and  N_19 
REMARK    7  A    between atoms: N_19  and  C_20 
REMARK    8  A    between atoms: C_22  and  C_23 
REMARK    9  A    between atoms: C_23  and  O_24 
ROOT
HETATM    1  C   UNL     1     -41.488  59.675 -53.200  1.00  0.00     0.067 C 
HETATM    2  C   UNL     1     -40.600  58.563 -52.577  1.00  0.00     0.001 C 
HETATM    3  C   UNL     1     -41.451  57.345 -52.151  1.00  0.00     0.040 C 
HETATM    4  C   UNL     1     -42.444  57.738 -51.045  1.00  0.00     0.206 C 
HETATM    5  N   UNL     1     -42.404  59.265 -50.911  1.00  0.00    -0.065 N 
HETATM    6  H   UNL     1     -43.146  59.552 -50.256  1.00  0.00     0.280 HD
HETATM    7  C   UNL     1     -42.646  59.988 -52.226  1.00  0.00     0.246 C 
HETATM    8  C   UNL     1     -39.967  59.148 -51.293  1.00  0.00     0.033 C 
HETATM    9  C   UNL     1     -41.054  59.676 -50.348  1.00  0.00     0.236 C 
ENDROOT
BRANCH   4  10
HETATM   10  C   UNL     1     -43.877  57.191 -51.203  1.00  0.00     0.155 C 
BRANCH  10  11
HETATM   11  N   UNL     1     -43.988  55.981 -52.009  1.00  0.00    -0.365 N 
HETATM   12  H   UNL     1     -44.296  55.141 -51.532  1.00  0.00     0.161 HD
BRANCH  11  13
HETATM   13  C   UNL     1     -44.229  55.943 -53.357  1.00  0.00     0.172 C 
HETATM   14  S   UNL     1     -44.909  57.201 -54.215  1.00  0.00    -0.041 SA
BRANCH  13  15
HETATM   15  N   UNL     1     -43.755  54.846 -54.027  1.00  0.00    -0.333 N 
HETATM   16  H   UNL     1     -44.473  54.304 -54.501  1.00  0.00     0.168 HD
BRANCH  15  17
HETATM   17  C   UNL     1     -42.454  54.291 -54.053  1.00  0.00     0.035 A 
HETATM   18  C   UNL     1     -41.924  53.548 -52.997  1.00  0.00     0.047 A 
HETATM   19  C   UNL     1     -40.610  53.064 -53.039  1.00  0.00     0.041 A 
HETATM   20  C   UNL     1     -39.835  53.267 -54.180  1.00  0.00     0.018 A 
HETATM   21  C   UNL     1     -40.381  53.954 -55.268  1.00  0.00     0.003 A 
HETATM   22  C   UNL     1     -41.685  54.459 -55.206  1.00  0.00     0.029 A 
BRANCH  19  23
HETATM   23  C   UNL     1     -40.104  52.387 -51.819  1.00  0.00     0.293 C 
HETATM   24  O   UNL     1     -40.447  52.724 -50.693  1.00  0.00    -0.259 OA
BRANCH  23  25
HETATM   25  O   UNL     1     -39.263  51.379 -52.142  1.00  0.00    -0.323 OA
HETATM   26  C   UNL     1     -39.466  50.187 -51.381  1.00  0.00     0.213 C 
ENDBRANCH  23  25
ENDBRANCH  19  23
ENDBRANCH  15  17
ENDBRANCH  13  15
ENDBRANCH  11  13
ENDBRANCH  10  11
ENDBRANCH   4  10
BRANCH   1  27
HETATM   27  C   UNL     1     -41.963  59.403 -54.602  1.00  0.00     0.038 A 
HETATM   28  N   UNL     1     -42.637  60.332 -55.368  1.00  0.00    -0.277 N 
HETATM   29  C   UNL     1     -43.000  61.691 -55.029  1.00  0.00     0.179 C 
HETATM   30  N   UNL     1     -42.978  59.881 -56.580  1.00  0.00    -0.172 NA
HETATM   31  C   UNL     1     -42.423  58.669 -56.665  1.00  0.00     0.096 A 
HETATM   32  C   UNL     1     -41.797  58.318 -55.448  1.00  0.00     0.062 A 
BRANCH  31  33
HETATM   33  C   UNL     1     -42.474  57.860 -57.926  1.00  0.00     0.035 A 
HETATM   34  S   UNL     1     -43.295  56.371 -58.090  1.00  0.00    -0.100 SA
HETATM   35  C   UNL     1     -42.783  56.194 -59.714  1.00  0.00     0.050 A 
HETATM   36  C   UNL     1     -42.007  57.255 -60.128  1.00  0.00     0.008 A 
HETATM   37  C   UNL     1     -41.835  58.223 -59.095  1.00  0.00     0.022 A 
ENDBRANCH  31  33
ENDBRANCH   1  27
TORSDOF 9
ENDMDL
MODEL 4
REMARK VINA RESULT:      -7.8      1.464      2.148
REMARK  9 active torsions:
REMARK  status: ('A' for Active; 'I' for Inactive)
REMARK    1  A    between atoms: C_4  and  C_5 
REMARK    2  A    between atoms: C_11  and  C_12 
REMARK    3  A    between atoms: C_15  and  C_16 
REMARK    4  A    between atoms: C_16  and  N_17 
REMARK    5  A    between atoms: N_17  and  C_18 
REMARK    6  A    between atoms: C_18  and  N_19 
REMARK    7  A    between atoms: N_19  and  C_20 
REMARK    8  A    between atoms: C_22  and  C_23 
REMARK    9  A    between atoms: C_23  and  O_24 
ROOT
HETATM    1  C   UNL     1     -41.876  56.615 -52.487  1.00  0.00     0.067 C 
HETATM    2  C   UNL     1     -43.429  56.659 -52.532  1.00  0.00     0.001 C 
HETATM    3  C   UNL     1     -43.961  56.117 -53.879  1.00  0.00     0.040 C 
HETATM    4  C   UNL     1     -43.496  57.007 -55.042  1.00  0.00     0.206 C 
HETATM    5  N   UNL     1     -42.467  57.997 -54.484  1.00  0.00    -0.065 N 
HETATM    6  H   UNL     1     -42.062  58.522 -55.272  1.00  0.00     0.280 HD
HETATM    7  C   UNL     1     -41.324  57.319 -53.746  1.00  0.00     0.246 C 
HETATM    8  C   UNL     1     -43.847  58.145 -52.441  1.00  0.00     0.033 C 
HETATM    9  C   UNL     1     -43.171  58.965 -53.548  1.00  0.00     0.236 C 
ENDROOT
BRANCH   4  10
HETATM   10  C   UNL     1     -42.989  56.265 -56.295  1.00  0.00     0.155 C 
BRANCH  10  11
HETATM   11  N   UNL     1     -43.761  56.508 -57.509  1.00  0.00    -0.365 N 
HETATM   12  H   UNL     1     -44.568  57.115 -57.422  1.00  0.00     0.161 HD
BRANCH  11  13
HETATM   13  C   UNL     1     -43.269  56.460 -58.786  1.00  0.00     0.172 C 
HETATM   14  S   UNL     1     -44.046  55.699 -60.051  1.00  0.00    -0.041 SA
BRANCH  13  15
HETATM   15  N   UNL     1     -42.142  57.197 -59.031  1.00  0.00    -0.333 N 
HETATM   16  H   UNL     1     -41.283  56.651 -59.055  1.00  0.00     0.168 HD
BRANCH  15  17
HETATM   17  C   UNL     1     -41.977  58.598 -59.127  1.00  0.00     0.035 A 
HETATM   18  C   UNL     1     -42.066  59.293 -60.335  1.00  0.00     0.047 A 
HETATM   19  C   UNL     1     -41.840  60.674 -60.396  1.00  0.00     0.041 A 
HETATM   20  C   UNL     1     -41.585  61.384 -59.223  1.00  0.00     0.018 A 
HETATM   21  C   UNL     1     -41.558  60.707 -58.001  1.00  0.00     0.003 A 
HETATM   22  C   UNL     1     -41.757  59.322 -57.954  1.00  0.00     0.029 A 
BRANCH  19  23
HETATM   23  C   UNL     1     -41.844  61.296 -61.743  1.00  0.00     0.293 C 
HETATM   24  O   UNL     1     -41.236  62.330 -61.988  1.00  0.00    -0.259 OA
BRANCH  23  25
HETATM   25  O   UNL     1     -42.574  60.561 -62.610  1.00  0.00    -0.323 OA
HETATM   26  C   UNL     1     -43.675  61.266 -63.187  1.00  0.00     0.213 C 
ENDBRANCH  23  25
ENDBRANCH  19  23
ENDBRANCH  15  17
ENDBRANCH  13  15
ENDBRANCH  11  13
ENDBRANCH  10  11
ENDBRANCH   4  10
BRANCH   1  27
HETATM   27  C   UNL     1     -41.282  55.248 -52.276  1.00  0.00     0.038 A 
HETATM   28  N   UNL     1     -40.957  54.747 -51.032  1.00  0.00    -0.277 N 
HETATM   29  C   UNL     1     -41.119  55.369 -49.736  1.00  0.00     0.179 C 
HETATM   30  N   UNL     1     -40.431  53.517 -51.070  1.00  0.00    -0.172 NA
HETATM   31  C   UNL     1     -40.512  53.148 -52.351  1.00  0.00     0.096 A 
HETATM   32  C   UNL     1     -41.016  54.203 -53.146  1.00  0.00     0.062 A 
BRANCH  31  33
HETATM   33  C   UNL     1     -40.126  51.773 -52.807  1.00  0.00     0.035 A 
HETATM   34  S   UNL     1     -39.524  50.546 -51.781  1.00  0.00    -0.100 SA
HETATM   35  C   UNL     1     -39.331  49.460 -53.090  1.00  0.00     0.050 A 
HETATM   36  C   UNL     1     -39.725  50.018 -54.286  1.00  0.00     0.008 A 
HETATM   37  C   UNL     1     -40.194  51.354 -54.120  1.00  0.00     0.022 A 
ENDBRANCH  31  33
ENDBRANCH   1  27
TORSDOF 9
ENDMDL
MODEL 5
REMARK VINA RESULT:      -7.8      3.406      3.951
REMARK  9 active torsions:
REMARK  status: ('A' for Active; 'I' for Inactive)
REMARK    1  A    between atoms: C_4  and  C_5 
REMARK    2  A    between atoms: C_11  and  C_12 
REMARK    3  A    between atoms: C_15  and  C_16 
REMARK    4  A    between atoms: C_16  and  N_17 
REMARK    5  A    between atoms: N_17  and  C_18 
REMARK    6  A    between atoms: C_18  and  N_19 
REMARK    7  A    between atoms: N_19  and  C_20 
REMARK    8  A    between atoms: C_22  and  C_23 
REMARK    9  A    between atoms: C_23  and  O_24 
ROOT
HETATM    1  C   UNL     1     -41.686  56.540 -52.562  1.00  0.00     0.067 C 
HETATM    2  C   UNL     1     -43.237  56.636 -52.557  1.00  0.00     0.001 C 
HETATM    3  C   UNL     1     -43.836  56.025 -53.845  1.00  0.00     0.040 C 
HETATM    4  C   UNL     1     -43.383  56.818 -55.082  1.00  0.00     0.206 C 
HETATM    5  N   UNL     1     -42.303  57.805 -54.628  1.00  0.00    -0.065 N 
HETATM    6  H   UNL     1     -41.909  58.261 -55.463  1.00  0.00     0.280 HD
HETATM    7  C   UNL     1     -41.157  57.138 -53.885  1.00  0.00     0.246 C 
HETATM    8  C   UNL     1     -43.602  58.140 -52.554  1.00  0.00     0.033 C 
HETATM    9  C   UNL     1     -42.939  58.858 -53.736  1.00  0.00     0.236 C 
ENDROOT
BRANCH   4  10
HETATM   10  C   UNL     1     -42.947  55.975 -56.297  1.00  0.00     0.155 C 
BRANCH  10  11
HETATM   11  N   UNL     1     -42.383  56.738 -57.404  1.00  0.00    -0.365 N 
HETATM   12  H   UNL     1     -41.375  56.839 -57.422  1.00  0.00     0.161 HD
BRANCH  11  13
HETATM   13  C   UNL     1     -42.951  56.882 -58.642  1.00  0.00     0.172 C 
HETATM   14  S   UNL     1     -42.101  57.322 -60.008  1.00  0.00    -0.041 SA
BRANCH  13  15
HETATM   15  N   UNL     1     -44.264  56.509 -58.754  1.00  0.00    -0.333 N 
HETATM   16  H   UNL     1     -44.426  55.511 -58.643  1.00  0.00     0.168 HD
BRANCH  15  17
HETATM   17  C   UNL     1     -45.397  57.274 -59.119  1.00  0.00     0.035 A 
HETATM   18  C   UNL     1     -46.201  56.962 -60.217  1.00  0.00     0.047 A 
HETATM   19  C   UNL     1     -47.281  57.778 -60.579  1.00  0.00     0.041 A 
HETATM   20  C   UNL     1     -47.603  58.886 -59.795  1.00  0.00     0.018 A 
HETATM   21  C   UNL     1     -46.843  59.168 -58.657  1.00  0.00     0.003 A 
HETATM   22  C   UNL     1     -45.748  58.363 -58.319  1.00  0.00     0.029 A 
BRANCH  19  23
HETATM   23  C   UNL     1     -48.001  57.425 -61.828  1.00  0.00     0.293 C 
HETATM   24  O   UNL     1     -47.982  56.295 -62.298  1.00  0.00    -0.259 OA
BRANCH  23  25
HETATM   25  O   UNL     1     -48.660  58.497 -62.322  1.00  0.00    -0.323 OA
HETATM   26  C   UNL     1     -49.467  58.206 -63.465  1.00  0.00     0.213 C 
ENDBRANCH  23  25
ENDBRANCH  19  23
ENDBRANCH  15  17
ENDBRANCH  13  15
ENDBRANCH  11  13
ENDBRANCH  10  11
ENDBRANCH   4  10
BRANCH   1  27
HETATM   27  C   UNL     1     -41.131  55.170 -52.278  1.00  0.00     0.038 A 
HETATM   28  N   UNL     1     -40.872  54.706 -51.004  1.00  0.00    -0.277 N 
HETATM   29  C   UNL     1     -41.077  55.377 -49.739  1.00  0.00     0.179 C 
HETATM   30  N   UNL     1     -40.371  53.466 -50.977  1.00  0.00    -0.172 NA
HETATM   31  C   UNL     1     -40.403  53.054 -52.247  1.00  0.00     0.096 A 
HETATM   32  C   UNL     1     -40.849  54.090 -53.099  1.00  0.00     0.062 A 
BRANCH  31  33
HETATM   33  C   UNL     1     -40.027  51.657 -52.638  1.00  0.00     0.035 A 
HETATM   34  S   UNL     1     -39.559  50.435 -51.537  1.00  0.00    -0.100 SA
HETATM   35  C   UNL     1     -39.290  49.312 -52.801  1.00  0.00     0.050 A 
HETATM   36  C   UNL     1     -39.559  49.854 -54.039  1.00  0.00     0.008 A 
HETATM   37  C   UNL     1     -39.994  51.209 -53.943  1.00  0.00     0.022 A 
ENDBRANCH  31  33
ENDBRANCH   1  27
TORSDOF 9
ENDMDL
MODEL 6
REMARK VINA RESULT:      -7.5      3.828      9.738
REMARK  9 active torsions:
REMARK  status: ('A' for Active; 'I' for Inactive)
REMARK    1  A    between atoms: C_4  and  C_5 
REMARK    2  A    between atoms: C_11  and  C_12 
REMARK    3  A    between atoms: C_15  and  C_16 
REMARK    4  A    between atoms: C_16  and  N_17 
REMARK    5  A    between atoms: N_17  and  C_18 
REMARK    6  A    between atoms: C_18  and  N_19 
REMARK    7  A    between atoms: N_19  and  C_20 
REMARK    8  A    between atoms: C_22  and  C_23 
REMARK    9  A    between atoms: C_23  and  O_24 
ROOT
HETATM    1  C   UNL     1     -43.517  57.995 -60.406  1.00  0.00     0.067 C 
HETATM    2  C   UNL     1     -44.809  57.668 -59.607  1.00  0.00     0.001 C 
HETATM    3  C   UNL     1     -44.515  57.569 -58.092  1.00  0.00     0.040 C 
HETATM    4  C   UNL     1     -43.553  56.406 -57.802  1.00  0.00     0.206 C 
HETATM    5  N   UNL     1     -43.033  55.890 -59.149  1.00  0.00    -0.065 N 
HETATM    6  H   UNL     1     -42.301  55.189 -58.966  1.00  0.00     0.280 HD
HETATM    7  C   UNL     1     -42.420  56.981 -60.011  1.00  0.00     0.246 C 
HETATM    8  C   UNL     1     -45.292  56.274 -60.070  1.00  0.00     0.033 C 
HETATM    9  C   UNL     1     -44.178  55.233 -59.901  1.00  0.00     0.236 C 
ENDROOT
BRANCH   4  10
HETATM   10  C   UNL     1     -42.419  56.706 -56.801  1.00  0.00     0.155 C 
BRANCH  10  11
HETATM   11  N   UNL     1     -42.798  56.612 -55.396  1.00  0.00    -0.365 N 
HETATM   12  H   UNL     1     -43.584  56.012 -55.175  1.00  0.00     0.161 HD
BRANCH  11  13
HETATM   13  C   UNL     1     -41.955  56.794 -54.331  1.00  0.00     0.172 C 
HETATM   14  S   UNL     1     -42.324  57.741 -53.008  1.00  0.00    -0.041 SA
BRANCH  13  15
HETATM   15  N   UNL     1     -40.812  56.041 -54.327  1.00  0.00    -0.333 N 
HETATM   16  H   UNL     1     -40.022  56.480 -54.794  1.00  0.00     0.168 HD
BRANCH  15  17
HETATM   17  C   UNL     1     -40.602  54.713 -53.889  1.00  0.00     0.035 A 
HETATM   18  C   UNL     1     -40.720  54.327 -52.552  1.00  0.00     0.047 A 
HETATM   19  C   UNL     1     -40.448  53.012 -52.151  1.00  0.00     0.041 A 
HETATM   20  C   UNL     1     -40.116  52.053 -53.107  1.00  0.00     0.018 A 
HETATM   21  C   UNL     1     -40.059  52.416 -54.455  1.00  0.00     0.003 A 
HETATM   22  C   UNL     1     -40.305  53.739 -54.843  1.00  0.00     0.029 A 
BRANCH  19  23
HETATM   23  C   UNL     1     -40.489  52.732 -50.694  1.00  0.00     0.293 C 
HETATM   24  O   UNL     1     -40.301  51.613 -50.236  1.00  0.00    -0.259 OA
BRANCH  23  25
HETATM   25  O   UNL     1     -40.736  53.862 -49.994  1.00  0.00    -0.323 OA
HETATM   26  C   UNL     1     -40.565  53.721 -48.582  1.00  0.00     0.213 C 
ENDBRANCH  23  25
ENDBRANCH  19  23
ENDBRANCH  15  17
ENDBRANCH  13  15
ENDBRANCH  11  13
ENDBRANCH  10  11
ENDBRANCH   4  10
BRANCH   1  27
HETATM   27  C   UNL     1     -43.052  59.424 -60.310  1.00  0.00     0.038 A 
HETATM   28  N   UNL     1     -43.743  60.484 -60.861  1.00  0.00    -0.277 N 
HETATM   29  C   UNL     1     -44.992  60.469 -61.589  1.00  0.00     0.179 C 
HETATM   30  N   UNL     1     -43.148  61.668 -60.670  1.00  0.00    -0.172 NA
HETATM   31  C   UNL     1     -42.103  61.405 -59.881  1.00  0.00     0.096 A 
HETATM   32  C   UNL     1     -41.989  60.015 -59.647  1.00  0.00     0.062 A 
BRANCH  31  33
HETATM   33  C   UNL     1     -41.229  62.493 -59.334  1.00  0.00     0.035 A 
HETATM   34  S   UNL     1     -41.736  63.663 -58.196  1.00  0.00    -0.100 SA
HETATM   35  C   UNL     1     -40.211  64.440 -58.222  1.00  0.00     0.050 A 
HETATM   36  C   UNL     1     -39.328  63.815 -59.075  1.00  0.00     0.008 A 
HETATM   37  C   UNL     1     -39.916  62.683 -59.712  1.00  0.00     0.022 A 
ENDBRANCH  31  33
ENDBRANCH   1  27
TORSDOF 9
ENDMDL
MODEL 7
REMARK VINA RESULT:      -7.5      3.581      7.706
REMARK  9 active torsions:
REMARK  status: ('A' for Active; 'I' for Inactive)
REMARK    1  A    between atoms: C_4  and  C_5 
REMARK    2  A    between atoms: C_11  and  C_12 
REMARK    3  A    between atoms: C_15  and  C_16 
REMARK    4  A    between atoms: C_16  and  N_17 
REMARK    5  A    between atoms: N_17  and  C_18 
REMARK    6  A    between atoms: C_18  and  N_19 
REMARK    7  A    between atoms: N_19  and  C_20 
REMARK    8  A    between atoms: C_22  and  C_23 
REMARK    9  A    between atoms: C_23  and  O_24 
ROOT
HETATM    1  C   UNL     1     -43.082  60.238 -57.447  1.00  0.00     0.067 C 
HETATM    2  C   UNL     1     -44.458  59.571 -57.725  1.00  0.00     0.001 C 
HETATM    3  C   UNL     1     -44.385  58.040 -57.517  1.00  0.00     0.040 C 
HETATM    4  C   UNL     1     -43.415  57.403 -58.523  1.00  0.00     0.206 C 
HETATM    5  N   UNL     1     -42.675  58.540 -59.236  1.00  0.00    -0.065 N 
HETATM    6  H   UNL     1     -41.941  58.128 -59.829  1.00  0.00     0.280 HD
HETATM    7  C   UNL     1     -42.002  59.510 -58.278  1.00  0.00     0.246 C 
HETATM    8  C   UNL     1     -44.792  59.813 -59.215  1.00  0.00     0.033 C 
HETATM    9  C   UNL     1     -43.660  59.296 -60.112  1.00  0.00     0.236 C 
ENDROOT
BRANCH   4  10
HETATM   10  C   UNL     1     -42.458  56.337 -57.951  1.00  0.00     0.155 C 
BRANCH  10  11
HETATM   11  N   UNL     1     -42.209  56.440 -56.518  1.00  0.00    -0.365 N 
HETATM   12  H   UNL     1     -42.446  57.321 -56.075  1.00  0.00     0.161 HD
BRANCH  11  13
HETATM   13  C   UNL     1     -42.193  55.392 -55.636  1.00  0.00     0.172 C 
HETATM   14  S   UNL     1     -43.553  54.533 -55.192  1.00  0.00    -0.041 SA
BRANCH  13  15
HETATM   15  N   UNL     1     -40.960  54.972 -55.216  1.00  0.00    -0.333 N 
HETATM   16  H   UNL     1     -40.184  55.347 -55.757  1.00  0.00     0.168 HD
BRANCH  15  17
HETATM   17  C   UNL     1     -40.613  54.011 -54.238  1.00  0.00     0.035 A 
HETATM   18  C   UNL     1     -40.740  54.243 -52.866  1.00  0.00     0.047 A 
HETATM   19  C   UNL     1     -40.333  53.285 -51.929  1.00  0.00     0.041 A 
HETATM   20  C   UNL     1     -39.852  52.052 -52.366  1.00  0.00     0.018 A 
HETATM   21  C   UNL     1     -39.783  51.786 -53.736  1.00  0.00     0.003 A 
HETATM   22  C   UNL     1     -40.166  52.760 -54.666  1.00  0.00     0.029 A 
BRANCH  19  23
HETATM   23  C   UNL     1     -40.400  53.674 -50.498  1.00  0.00     0.293 C 
HETATM   24  O   UNL     1     -40.250  52.866 -49.591  1.00  0.00    -0.259 OA
BRANCH  23  25
HETATM   25  O   UNL     1     -40.623  55.002 -50.371  1.00  0.00    -0.323 OA
HETATM   26  C   UNL     1     -41.226  55.373 -49.130  1.00  0.00     0.213 C 
ENDBRANCH  23  25
ENDBRANCH  19  23
ENDBRANCH  15  17
ENDBRANCH  13  15
ENDBRANCH  11  13
ENDBRANCH  10  11
ENDBRANCH   4  10
BRANCH   1  27
HETATM   27  C   UNL     1     -42.714  60.362 -55.993  1.00  0.00     0.038 A 
HETATM   28  N   UNL     1     -43.141  61.400 -55.189  1.00  0.00    -0.277 N 
HETATM   29  C   UNL     1     -43.993  62.518 -55.532  1.00  0.00     0.179 C 
HETATM   30  N   UNL     1     -42.690  61.324 -53.932  1.00  0.00    -0.172 NA
HETATM   31  C   UNL     1     -42.045  60.156 -53.868  1.00  0.00     0.096 A 
HETATM   32  C   UNL     1     -42.015  59.529 -55.135  1.00  0.00     0.062 A 
BRANCH  31  33
HETATM   33  C   UNL     1     -41.480  59.632 -52.582  1.00  0.00     0.035 A 
HETATM   34  S   UNL     1     -42.115  59.974 -51.033  1.00  0.00    -0.100 SA
HETATM   35  C   UNL     1     -40.884  59.070 -50.260  1.00  0.00     0.050 A 
HETATM   36  C   UNL     1     -40.009  58.510 -51.165  1.00  0.00     0.008 A 
HETATM   37  C   UNL     1     -40.360  58.828 -52.509  1.00  0.00     0.022 A 
ENDBRANCH  31  33
ENDBRANCH   1  27
TORSDOF 9
ENDMDL
MODEL 8
REMARK VINA RESULT:      -7.4      3.878      8.358
REMARK  9 active torsions:
REMARK  status: ('A' for Active; 'I' for Inactive)
REMARK    1  A    between atoms: C_4  and  C_5 
REMARK    2  A    between atoms: C_11  and  C_12 
REMARK    3  A    between atoms: C_15  and  C_16 
REMARK    4  A    between atoms: C_16  and  N_17 
REMARK    5  A    between atoms: N_17  and  C_18 
REMARK    6  A    between atoms: C_18  and  N_19 
REMARK    7  A    between atoms: N_19  and  C_20 
REMARK    8  A    between atoms: C_22  and  C_23 
REMARK    9  A    between atoms: C_23  and  O_24 
ROOT
HETATM    1  C   UNL     1     -45.157  60.392 -53.470  1.00  0.00     0.067 C 
HETATM    2  C   UNL     1     -44.052  61.444 -53.175  1.00  0.00     0.001 C 
HETATM    3  C   UNL     1     -42.693  60.760 -52.900  1.00  0.00     0.040 C 
HETATM    4  C   UNL     1     -42.771  59.889 -51.637  1.00  0.00     0.206 C 
HETATM    5  N   UNL     1     -44.243  59.817 -51.216  1.00  0.00    -0.065 N 
HETATM    6  H   UNL     1     -44.326  59.144 -50.440  1.00  0.00     0.280 HD
HETATM    7  C   UNL     1     -45.163  59.348 -52.332  1.00  0.00     0.246 C 
HETATM    8  C   UNL     1     -44.460  62.186 -51.880  1.00  0.00     0.033 C 
HETATM    9  C   UNL     1     -44.688  61.189 -50.737  1.00  0.00     0.236 C 
ENDROOT
BRANCH   4  10
HETATM   10  C   UNL     1     -42.112  58.499 -51.737  1.00  0.00     0.155 C 
BRANCH  10  11
HETATM   11  N   UNL     1     -42.510  57.553 -50.701  1.00  0.00    -0.365 N 
HETATM   12  H   UNL     1     -43.218  57.864 -50.046  1.00  0.00     0.161 HD
BRANCH  11  13
HETATM   13  C   UNL     1     -42.449  56.188 -50.804  1.00  0.00     0.172 C 
HETATM   14  S   UNL     1     -43.773  55.185 -50.651  1.00  0.00    -0.041 SA
BRANCH  13  15
HETATM   15  N   UNL     1     -41.242  55.662 -51.183  1.00  0.00    -0.333 N 
HETATM   16  H   UNL     1     -40.450  56.007 -50.645  1.00  0.00     0.168 HD
BRANCH  15  17
HETATM   17  C   UNL     1     -40.921  54.822 -52.273  1.00  0.00     0.035 A 
HETATM   18  C   UNL     1     -40.486  53.504 -52.114  1.00  0.00     0.047 A 
HETATM   19  C   UNL     1     -40.123  52.722 -53.219  1.00  0.00     0.041 A 
HETATM   20  C   UNL     1     -40.258  53.241 -54.506  1.00  0.00     0.018 A 
HETATM   21  C   UNL     1     -40.753  54.536 -54.678  1.00  0.00     0.003 A 
HETATM   22  C   UNL     1     -41.087  55.320 -53.566  1.00  0.00     0.029 A 
BRANCH  19  23
HETATM   23  C   UNL     1     -39.564  51.377 -52.935  1.00  0.00     0.293 C 
HETATM   24  O   UNL     1     -39.494  50.923 -51.800  1.00  0.00    -0.259 OA
BRANCH  23  25
HETATM   25  O   UNL     1     -39.185  50.763 -54.078  1.00  0.00    -0.323 OA
HETATM   26  C   UNL     1     -40.045  49.693 -54.476  1.00  0.00     0.213 C 
ENDBRANCH  23  25
ENDBRANCH  19  23
ENDBRANCH  15  17
ENDBRANCH  13  15
ENDBRANCH  11  13
ENDBRANCH  10  11
ENDBRANCH   4  10
BRANCH   1  27
HETATM   27  C   UNL     1     -45.093  59.765 -54.837  1.00  0.00     0.038 A 
HETATM   28  N   UNL     1     -45.689  60.318 -55.953  1.00  0.00    -0.277 N 
HETATM   29  C   UNL     1     -46.442  61.549 -56.060  1.00  0.00     0.179 C 
HETATM   30  N   UNL     1     -45.519  59.593 -57.064  1.00  0.00    -0.172 NA
HETATM   31  C   UNL     1     -44.702  58.600 -56.706  1.00  0.00     0.096 A 
HETATM   32  C   UNL     1     -44.426  58.652 -55.321  1.00  0.00     0.062 A 
BRANCH  31  33
HETATM   33  C   UNL     1     -44.168  57.614 -57.702  1.00  0.00     0.035 A 
HETATM   34  S   UNL     1     -44.527  57.633 -59.372  1.00  0.00    -0.100 SA
HETATM   35  C   UNL     1     -43.598  56.222 -59.652  1.00  0.00     0.050 A 
HETATM   36  C   UNL     1     -43.018  55.749 -58.495  1.00  0.00     0.008 A 
HETATM   37  C   UNL     1     -43.341  56.561 -57.368  1.00  0.00     0.022 A 
ENDBRANCH  31  33
ENDBRANCH   1  27
TORSDOF 9
ENDMDL
MODEL 9
REMARK VINA RESULT:      -7.2      2.059      2.369
REMARK  9 active torsions:
REMARK  status: ('A' for Active; 'I' for Inactive)
REMARK    1  A    between atoms: C_4  and  C_5 
REMARK    2  A    between atoms: C_11  and  C_12 
REMARK    3  A    between atoms: C_15  and  C_16 
REMARK    4  A    between atoms: C_16  and  N_17 
REMARK    5  A    between atoms: N_17  and  C_18 
REMARK    6  A    between atoms: C_18  and  N_19 
REMARK    7  A    between atoms: N_19  and  C_20 
REMARK    8  A    between atoms: C_22  and  C_23 
REMARK    9  A    between atoms: C_23  and  O_24 
ROOT
HETATM    1  C   UNL     1     -41.940  56.625 -52.956  1.00  0.00     0.067 C 
HETATM    2  C   UNL     1     -43.487  56.590 -53.104  1.00  0.00     0.001 C 
HETATM    3  C   UNL     1     -43.910  55.727 -54.316  1.00  0.00     0.040 C 
HETATM    4  C   UNL     1     -43.391  56.342 -55.625  1.00  0.00     0.206 C 
HETATM    5  N   UNL     1     -42.432  57.479 -55.253  1.00  0.00    -0.065 N 
HETATM    6  H   UNL     1     -41.988  57.824 -56.117  1.00  0.00     0.280 HD
HETATM    7  C   UNL     1     -41.323  57.041 -54.310  1.00  0.00     0.246 C 
HETATM    8  C   UNL     1     -43.953  58.037 -53.389  1.00  0.00     0.033 C 
HETATM    9  C   UNL     1     -43.226  58.606 -54.614  1.00  0.00     0.236 C 
ENDROOT
BRANCH   4  10
HETATM   10  C   UNL     1     -42.778  55.352 -56.636  1.00  0.00     0.155 C 
BRANCH  10  11
HETATM   11  N   UNL     1     -42.580  55.887 -57.978  1.00  0.00    -0.365 N 
HETATM   12  H   UNL     1     -41.638  55.847 -58.351  1.00  0.00     0.161 HD
BRANCH  11  13
HETATM   13  C   UNL     1     -43.535  55.949 -58.958  1.00  0.00     0.172 C 
HETATM   14  S   UNL     1     -44.295  54.609 -59.600  1.00  0.00    -0.041 SA
BRANCH  13  15
HETATM   15  N   UNL     1     -43.958  57.201 -59.314  1.00  0.00    -0.333 N 
HETATM   16  H   UNL     1     -43.498  57.577 -60.140  1.00  0.00     0.168 HD
BRANCH  15  17
HETATM   17  C   UNL     1     -44.831  58.089 -58.645  1.00  0.00     0.035 A 
HETATM   18  C   UNL     1     -44.405  59.293 -58.081  1.00  0.00     0.047 A 
HETATM   19  C   UNL     1     -45.292  60.118 -57.376  1.00  0.00     0.041 A 
HETATM   20  C   UNL     1     -46.639  59.768 -57.290  1.00  0.00     0.018 A 
HETATM   21  C   UNL     1     -47.087  58.598 -57.908  1.00  0.00     0.003 A 
HETATM   22  C   UNL     1     -46.188  57.765 -58.585  1.00  0.00     0.029 A 
BRANCH  19  23
HETATM   23  C   UNL     1     -44.716  61.315 -56.716  1.00  0.00     0.293 C 
HETATM   24  O   UNL     1     -43.602  61.742 -56.990  1.00  0.00    -0.259 OA
BRANCH  23  25
HETATM   25  O   UNL     1     -45.587  61.839 -55.824  1.00  0.00    -0.323 OA
HETATM   26  C   UNL     1     -45.904  63.212 -56.059  1.00  0.00     0.213 C 
ENDBRANCH  23  25
ENDBRANCH  19  23
ENDBRANCH  15  17
ENDBRANCH  13  15
ENDBRANCH  11  13
ENDBRANCH  10  11
ENDBRANCH   4  10
BRANCH   1  27
HETATM   27  C   UNL     1     -41.324  55.372 -52.395  1.00  0.00     0.038 A 
HETATM   28  N   UNL     1     -41.036  55.204 -51.055  1.00  0.00    -0.277 N 
HETATM   29  C   UNL     1     -41.262  56.121 -49.960  1.00  0.00     0.179 C 
HETATM   30  N   UNL     1     -40.481  54.020 -50.772  1.00  0.00    -0.172 NA
HETATM   31  C   UNL     1     -40.504  53.344 -51.924  1.00  0.00     0.096 A 
HETATM   32  C   UNL     1     -41.001  54.154 -52.970  1.00  0.00     0.062 A 
BRANCH  31  33
HETATM   33  C   UNL     1     -40.070  51.912 -52.012  1.00  0.00     0.035 A 
HETATM   34  S   UNL     1     -39.735  51.088 -53.472  1.00  0.00    -0.100 SA
HETATM   35  C   UNL     1     -39.407  49.626 -52.645  1.00  0.00     0.050 A 
HETATM   36  C   UNL     1     -39.541  49.763 -51.280  1.00  0.00     0.008 A 
HETATM   37  C   UNL     1     -39.916  51.089 -50.914  1.00  0.00     0.022 A 
ENDBRANCH  31  33
ENDBRANCH   1  27
TORSDOF 9
ENDMDL
MODEL 10
REMARK VINA RESULT:      -7.2      2.181      2.626
REMARK  9 active torsions:
REMARK  status: ('A' for Active; 'I' for Inactive)
REMARK    1  A    between atoms: C_4  and  C_5 
REMARK    2  A    between atoms: C_11  and  C_12 
REMARK    3  A    between atoms: C_15  and  C_16 
REMARK    4  A    between atoms: C_16  and  N_17 
REMARK    5  A    between atoms: N_17  and  C_18 
REMARK    6  A    between atoms: C_18  and  N_19 
REMARK    7  A    between atoms: N_19  and  C_20 
REMARK    8  A    between atoms: C_22  and  C_23 
REMARK    9  A    between atoms: C_23  and  O_24 
ROOT
HETATM    1  C   UNL     1     -41.790  56.653 -52.470  1.00  0.00     0.067 C 
HETATM    2  C   UNL     1     -43.327  56.704 -52.696  1.00  0.00     0.001 C 
HETATM    3  C   UNL     1     -43.696  56.222 -54.118  1.00  0.00     0.040 C 
HETATM    4  C   UNL     1     -43.098  57.159 -55.179  1.00  0.00     0.206 C 
HETATM    5  N   UNL     1     -42.145  58.121 -54.462  1.00  0.00    -0.065 N 
HETATM    6  H   UNL     1     -41.650  58.678 -55.173  1.00  0.00     0.280 HD
HETATM    7  C   UNL     1     -41.095  57.409 -53.624  1.00  0.00     0.246 C 
HETATM    8  C   UNL     1     -43.756  58.186 -52.591  1.00  0.00     0.033 C 
HETATM    9  C   UNL     1     -42.956  59.050 -53.574  1.00  0.00     0.236 C 
ENDROOT
BRANCH   4  10
HETATM   10  C   UNL     1     -42.445  56.469 -56.394  1.00  0.00     0.155 C 
BRANCH  10  11
HETATM   11  N   UNL     1     -42.369  57.288 -57.599  1.00  0.00    -0.365 N 
HETATM   12  H   UNL     1     -41.711  58.059 -57.586  1.00  0.00     0.161 HD
BRANCH  11  13
HETATM   13  C   UNL     1     -42.663  56.865 -58.868  1.00  0.00     0.172 C 
HETATM   14  S   UNL     1     -43.685  55.591 -59.208  1.00  0.00    -0.041 SA
BRANCH  13  15
HETATM   15  N   UNL     1     -42.177  57.634 -59.891  1.00  0.00    -0.333 N 
HETATM   16  H   UNL     1     -41.229  57.398 -60.176  1.00  0.00     0.168 HD
BRANCH  15  17
HETATM   17  C   UNL     1     -42.737  58.771 -60.517  1.00  0.00     0.035 A 
HETATM   18  C   UNL     1     -44.086  59.115 -60.402  1.00  0.00     0.047 A 
HETATM   19  C   UNL     1     -44.614  60.218 -61.084  1.00  0.00     0.041 A 
HETATM   20  C   UNL     1     -43.770  61.031 -61.841  1.00  0.00     0.018 A 
HETATM   21  C   UNL     1     -42.407  60.732 -61.909  1.00  0.00     0.003 A 
HETATM   22  C   UNL     1     -41.893  59.610 -61.247  1.00  0.00     0.029 A 
BRANCH  19  23
HETATM   23  C   UNL     1     -46.080  60.429 -60.989  1.00  0.00     0.293 C 
HETATM   24  O   UNL     1     -46.586  61.542 -61.035  1.00  0.00    -0.259 OA
BRANCH  23  25
HETATM   25  O   UNL     1     -46.728  59.249 -60.868  1.00  0.00    -0.323 OA
HETATM   26  C   UNL     1     -47.807  59.081 -61.790  1.00  0.00     0.213 C 
ENDBRANCH  23  25
ENDBRANCH  19  23
ENDBRANCH  15  17
ENDBRANCH  13  15
ENDBRANCH  11  13
ENDBRANCH  10  11
ENDBRANCH   4  10
BRANCH   1  27
HETATM   27  C   UNL     1     -41.223  55.277 -52.249  1.00  0.00     0.038 A 
HETATM   28  N   UNL     1     -40.928  54.770 -50.999  1.00  0.00    -0.277 N 
HETATM   29  C   UNL     1     -41.101  55.396 -49.706  1.00  0.00     0.179 C 
HETATM   30  N   UNL     1     -40.422  53.532 -51.029  1.00  0.00    -0.172 NA
HETATM   31  C   UNL     1     -40.487  53.164 -52.311  1.00  0.00     0.096 A 
HETATM   32  C   UNL     1     -40.960  54.227 -53.114  1.00  0.00     0.062 A 
BRANCH  31  33
HETATM   33  C   UNL     1     -40.116  51.783 -52.760  1.00  0.00     0.035 A 
HETATM   34  S   UNL     1     -39.578  50.538 -51.720  1.00  0.00    -0.100 SA
HETATM   35  C   UNL     1     -39.363  49.453 -53.027  1.00  0.00     0.050 A 
HETATM   36  C   UNL     1     -39.703  50.025 -54.234  1.00  0.00     0.008 A 
HETATM   37  C   UNL     1     -40.147  51.371 -54.077  1.00  0.00     0.022 A 
ENDBRANCH  31  33
ENDBRANCH   1  27
TORSDOF 9
ENDMDL
