MODEL 1
REMARK VINA RESULT:      -8.6      0.000      0.000
REMARK  6 active torsions:
REMARK  status: ('A' for Active; 'I' for Inactive)
REMARK    1  A    between atoms: C_6  and  C_7 
REMARK    2  A    between atoms: N_9  and  C_10 
REMARK    3  A    between atoms: C_10  and  C_11 
REMARK    4  A    between atoms: C_18  and  C_19 
REMARK       I    between atoms: C_19  and  N_20 
REMARK    5  A    between atoms: N_20  and  C_21 
REMARK    6  A    between atoms: C_24  and  O_25 
ROOT
HETATM    1  C   UNL     1     -42.737  55.764 -55.995  1.00  0.00     0.104 A 
HETATM    2  N   UNL     1     -42.635  55.449 -57.299  1.00  0.00    -0.171 NA
HETATM    3  N   UNL     1     -43.324  56.413 -57.938  1.00  0.00    -0.275 N 
HETATM    4  C   UNL     1     -43.846  57.349 -57.098  1.00  0.00     0.132 A 
HETATM    5  C   UNL     1     -43.540  56.935 -55.815  1.00  0.00     0.080 A 
ENDROOT
BRANCH   5   6
HETATM    6  C   UNL     1     -43.985  57.608 -54.609  1.00  0.00     0.255 C 
HETATM    7  N   UNL     1     -42.972  58.192 -53.880  1.00  0.00    -0.352 N 
HETATM    8  H   UNL     1     -42.021  58.055 -54.197  1.00  0.00     0.163 HD
HETATM    9  O   UNL     1     -45.160  57.616 -54.256  1.00  0.00    -0.268 OA
BRANCH   7  10
HETATM   10  C   UNL     1     -43.207  58.938 -52.653  1.00  0.00     0.084 C 
HETATM   11  C   UNL     1     -43.376  58.015 -51.438  1.00  0.00     0.028 C 
HETATM   12  C   UNL     1     -42.069  57.332 -51.033  1.00  0.00     0.034 C 
HETATM   13  C   UNL     1     -40.923  58.321 -50.829  1.00  0.00     0.118 C 
HETATM   14  C   UNL     1     -40.760  59.277 -52.010  1.00  0.00     0.034 C 
HETATM   15  C   UNL     1     -42.075  59.949 -52.417  1.00  0.00     0.028 C 
BRANCH  13  16
HETATM   16  O   UNL     1     -41.120  59.065 -49.629  1.00  0.00    -0.396 OA
HETATM   17  H   UNL     1     -41.723  59.804 -49.805  1.00  0.00     0.210 HD
ENDBRANCH  13  16
ENDBRANCH   7  10
ENDBRANCH   5   6
BRANCH   1  18
HETATM   18  C   UNL     1     -42.070  54.935 -54.988  1.00  0.00    -0.004 A 
HETATM   19  C   UNL     1     -42.626  54.751 -53.715  1.00  0.00     0.021 A 
HETATM   20  C   UNL     1     -42.013  53.917 -52.762  1.00  0.00    -0.055 A 
HETATM   21  C   UNL     1     -40.789  53.296 -53.076  1.00  0.00    -0.056 A 
HETATM   22  C   UNL     1     -42.662  53.744 -51.416  1.00  0.00     0.049 C 
HETATM   23  C   UNL     1     -40.081  52.406 -52.092  1.00  0.00     0.049 C 
HETATM   24  C   UNL     1     -40.226  53.495 -54.345  1.00  0.00     0.008 A 
HETATM   25  C   UNL     1     -40.858  54.307 -55.289  1.00  0.00     0.014 A 
ENDBRANCH   1  18
BRANCH   3  26
HETATM   26  C   UNL     1     -43.446  56.378 -59.391  1.00  0.00     0.189 C 
BRANCH  26  27
HETATM   27  C   UNL     1     -44.807  56.840 -59.855  1.00  0.00    -0.038 A 
HETATM   28  C   UNL     1     -45.040  58.193 -60.139  1.00  0.00     0.009 A 
HETATM   29  C   UNL     1     -46.294  58.618 -60.585  1.00  0.00     0.001 A 
HETATM   30  C   UNL     1     -47.326  57.697 -60.757  1.00  0.00     0.000 A 
HETATM   31  C   UNL     1     -47.105  56.348 -60.487  1.00  0.00     0.001 A 
HETATM   32  C   UNL     1     -45.852  55.920 -60.046  1.00  0.00     0.009 A 
ENDBRANCH  26  27
ENDBRANCH   3  26
TORSDOF 6
ENDMDL
MODEL 2
REMARK VINA RESULT:      -8.6      1.056      1.735
REMARK  6 active torsions:
REMARK  status: ('A' for Active; 'I' for Inactive)
REMARK    1  A    between atoms: C_6  and  C_7 
REMARK    2  A    between atoms: N_9  and  C_10 
REMARK    3  A    between atoms: C_10  and  C_11 
REMARK    4  A    between atoms: C_18  and  C_19 
REMARK       I    between atoms: C_19  and  N_20 
REMARK    5  A    between atoms: N_20  and  C_21 
REMARK    6  A    between atoms: C_24  and  O_25 
ROOT
HETATM    1  C   UNL     1     -42.826  55.754 -55.991  1.00  0.00     0.104 A 
HETATM    2  N   UNL     1     -42.765  55.412 -57.290  1.00  0.00    -0.171 NA
HETATM    3  N   UNL     1     -43.462  56.370 -57.929  1.00  0.00    -0.275 N 
HETATM    4  C   UNL     1     -43.949  57.329 -57.094  1.00  0.00     0.132 A 
HETATM    5  C   UNL     1     -43.611  56.937 -55.812  1.00  0.00     0.080 A 
ENDROOT
BRANCH   5   6
HETATM    6  C   UNL     1     -44.013  57.640 -54.608  1.00  0.00     0.255 C 
HETATM    7  N   UNL     1     -42.974  58.235 -53.926  1.00  0.00    -0.352 N 
HETATM    8  H   UNL     1     -42.035  58.087 -54.271  1.00  0.00     0.163 HD
HETATM    9  O   UNL     1     -45.176  57.662 -54.218  1.00  0.00    -0.268 OA
BRANCH   7  10
HETATM   10  C   UNL     1     -43.166  59.010 -52.709  1.00  0.00     0.084 C 
HETATM   11  C   UNL     1     -43.411  58.116 -51.486  1.00  0.00     0.028 C 
HETATM   12  C   UNL     1     -42.160  57.345 -51.061  1.00  0.00     0.034 C 
HETATM   13  C   UNL     1     -40.948  58.252 -50.857  1.00  0.00     0.118 C 
HETATM   14  C   UNL     1     -40.706  59.180 -52.046  1.00  0.00     0.034 C 
HETATM   15  C   UNL     1     -41.967  59.940 -52.473  1.00  0.00     0.028 C 
BRANCH  13  16
HETATM   16  O   UNL     1     -41.101  59.022 -49.667  1.00  0.00    -0.396 OA
HETATM   17  H   UNL     1     -41.327  58.432 -48.930  1.00  0.00     0.210 HD
ENDBRANCH  13  16
ENDBRANCH   7  10
ENDBRANCH   5   6
BRANCH   1  18
HETATM   18  C   UNL     1     -42.140  54.938 -54.986  1.00  0.00    -0.004 A 
HETATM   19  C   UNL     1     -42.683  54.750 -53.708  1.00  0.00     0.021 A 
HETATM   20  C   UNL     1     -42.051  53.928 -52.758  1.00  0.00    -0.055 A 
HETATM   21  C   UNL     1     -40.820  53.324 -53.080  1.00  0.00    -0.056 A 
HETATM   22  C   UNL     1     -42.687  53.750 -51.406  1.00  0.00     0.049 C 
HETATM   23  C   UNL     1     -40.092  52.447 -52.098  1.00  0.00     0.049 C 
HETATM   24  C   UNL     1     -40.270  53.527 -54.354  1.00  0.00     0.008 A 
HETATM   25  C   UNL     1     -40.921  54.326 -55.296  1.00  0.00     0.014 A 
ENDBRANCH   1  18
BRANCH   3  26
HETATM   26  C   UNL     1     -43.626  56.307 -59.377  1.00  0.00     0.189 C 
BRANCH  26  27
HETATM   27  C   UNL     1     -43.382  57.646 -60.032  1.00  0.00    -0.038 A 
HETATM   28  C   UNL     1     -44.458  58.479 -60.370  1.00  0.00     0.009 A 
HETATM   29  C   UNL     1     -44.232  59.725 -60.960  1.00  0.00     0.001 A 
HETATM   30  C   UNL     1     -42.931  60.154 -61.214  1.00  0.00     0.000 A 
HETATM   31  C   UNL     1     -41.852  59.340 -60.874  1.00  0.00     0.001 A 
HETATM   32  C   UNL     1     -42.075  58.098 -60.281  1.00  0.00     0.009 A 
ENDBRANCH  26  27
ENDBRANCH   3  26
TORSDOF 6
ENDMDL
MODEL 3
REMARK VINA RESULT:      -8.6      1.758      2.267
REMARK  6 active torsions:
REMARK  status: ('A' for Active; 'I' for Inactive)
REMARK    1  A    between atoms: C_6  and  C_7 
REMARK    2  A    between atoms: N_9  and  C_10 
REMARK    3  A    between atoms: C_10  and  C_11 
REMARK    4  A    between atoms: C_18  and  C_19 
REMARK       I    between atoms: C_19  and  N_20 
REMARK    5  A    between atoms: N_20  and  C_21 
REMARK    6  A    between atoms: C_24  and  O_25 
ROOT
HETATM    1  C   UNL     1     -42.130  56.845 -55.972  1.00  0.00     0.104 A 
HETATM    2  N   UNL     1     -42.429  56.610 -57.262  1.00  0.00    -0.171 NA
HETATM    3  N   UNL     1     -42.679  57.826 -57.781  1.00  0.00    -0.275 N 
HETATM    4  C   UNL     1     -42.530  58.837 -56.882  1.00  0.00     0.132 A 
HETATM    5  C   UNL     1     -42.230  58.240 -55.672  1.00  0.00     0.080 A 
ENDROOT
BRANCH   5   6
HETATM    6  C   UNL     1     -42.072  58.959 -54.420  1.00  0.00     0.255 C 
HETATM    7  N   UNL     1     -43.155  58.866 -53.574  1.00  0.00    -0.352 N 
HETATM    8  H   UNL     1     -43.974  58.374 -53.906  1.00  0.00     0.163 HD
HETATM    9  O   UNL     1     -41.073  59.622 -54.166  1.00  0.00    -0.268 OA
BRANCH   7  10
HETATM   10  C   UNL     1     -43.190  59.490 -52.260  1.00  0.00     0.084 C 
HETATM   11  C   UNL     1     -44.388  60.436 -52.100  1.00  0.00     0.028 C 
HETATM   12  C   UNL     1     -45.720  59.688 -52.024  1.00  0.00     0.034 C 
HETATM   13  C   UNL     1     -45.725  58.595 -50.957  1.00  0.00     0.118 C 
HETATM   14  C   UNL     1     -44.519  57.663 -51.071  1.00  0.00     0.034 C 
HETATM   15  C   UNL     1     -43.189  58.420 -51.159  1.00  0.00     0.028 C 
BRANCH  13  16
HETATM   16  O   UNL     1     -45.765  59.174 -49.655  1.00  0.00    -0.396 OA
HETATM   17  H   UNL     1     -45.251  59.997 -49.654  1.00  0.00     0.210 HD
ENDBRANCH  13  16
ENDBRANCH   7  10
ENDBRANCH   5   6
BRANCH   1  18
HETATM   18  C   UNL     1     -41.768  55.732 -55.090  1.00  0.00    -0.004 A 
HETATM   19  C   UNL     1     -42.519  55.438 -53.944  1.00  0.00     0.021 A 
HETATM   20  C   UNL     1     -42.203  54.342 -53.123  1.00  0.00    -0.055 A 
HETATM   21  C   UNL     1     -41.076  53.554 -53.429  1.00  0.00    -0.056 A 
HETATM   22  C   UNL     1     -43.053  54.065 -51.913  1.00  0.00     0.049 C 
HETATM   23  C   UNL     1     -40.682  52.378 -52.578  1.00  0.00     0.049 C 
HETATM   24  C   UNL     1     -40.316  53.860 -54.567  1.00  0.00     0.008 A 
HETATM   25  C   UNL     1     -40.656  54.937 -55.387  1.00  0.00     0.014 A 
ENDBRANCH   1  18
BRANCH   3  26
HETATM   26  C   UNL     1     -43.066  57.953 -59.182  1.00  0.00     0.189 C 
BRANCH  26  27
HETATM   27  C   UNL     1     -44.430  57.361 -59.447  1.00  0.00    -0.038 A 
HETATM   28  C   UNL     1     -45.574  57.921 -58.861  1.00  0.00     0.009 A 
HETATM   29  C   UNL     1     -46.839  57.386 -59.121  1.00  0.00     0.001 A 
HETATM   30  C   UNL     1     -46.974  56.290 -59.971  1.00  0.00     0.000 A 
HETATM   31  C   UNL     1     -45.847  55.730 -60.568  1.00  0.00     0.001 A 
HETATM   32  C   UNL     1     -44.584  56.266 -60.314  1.00  0.00     0.009 A 
ENDBRANCH  26  27
ENDBRANCH   3  26
TORSDOF 6
ENDMDL
MODEL 4
REMARK VINA RESULT:      -8.6      1.969      3.921
REMARK  6 active torsions:
REMARK  status: ('A' for Active; 'I' for Inactive)
REMARK    1  A    between atoms: C_6  and  C_7 
REMARK    2  A    between atoms: N_9  and  C_10 
REMARK    3  A    between atoms: C_10  and  C_11 
REMARK    4  A    between atoms: C_18  and  C_19 
REMARK       I    between atoms: C_19  and  N_20 
REMARK    5  A    between atoms: N_20  and  C_21 
REMARK    6  A    between atoms: C_24  and  O_25 
ROOT
HETATM    1  C   UNL     1     -42.345  57.055 -55.266  1.00  0.00     0.104 A 
HETATM    2  N   UNL     1     -42.440  57.744 -56.417  1.00  0.00    -0.171 NA
HETATM    3  N   UNL     1     -42.707  56.813 -57.351  1.00  0.00    -0.275 N 
HETATM    4  C   UNL     1     -42.811  55.554 -56.843  1.00  0.00     0.132 A 
HETATM    5  C   UNL     1     -42.523  55.654 -55.495  1.00  0.00     0.080 A 
ENDROOT
BRANCH   5   6
HETATM    6  C   UNL     1     -42.440  54.523 -54.589  1.00  0.00     0.255 C 
HETATM    7  N   UNL     1     -42.632  54.845 -53.263  1.00  0.00    -0.352 N 
HETATM    8  H   UNL     1     -42.748  55.821 -53.025  1.00  0.00     0.163 HD
HETATM    9  O   UNL     1     -42.181  53.389 -54.976  1.00  0.00    -0.268 OA
BRANCH   7  10
HETATM   10  C   UNL     1     -42.616  53.854 -52.197  1.00  0.00     0.084 C 
HETATM   11  C   UNL     1     -41.194  53.567 -51.696  1.00  0.00     0.028 C 
HETATM   12  C   UNL     1     -40.597  54.740 -50.916  1.00  0.00     0.034 C 
HETATM   13  C   UNL     1     -41.504  55.219 -49.783  1.00  0.00     0.118 C 
HETATM   14  C   UNL     1     -42.936  55.474 -50.249  1.00  0.00     0.034 C 
HETATM   15  C   UNL     1     -43.522  54.299 -51.040  1.00  0.00     0.028 C 
BRANCH  13  16
HETATM   16  O   UNL     1     -41.505  54.272 -48.717  1.00  0.00    -0.396 OA
HETATM   17  H   UNL     1     -40.829  54.521 -48.066  1.00  0.00     0.210 HD
ENDBRANCH  13  16
ENDBRANCH   7  10
ENDBRANCH   5   6
BRANCH   1  18
HETATM   18  C   UNL     1     -42.087  57.762 -54.009  1.00  0.00    -0.004 A 
HETATM   19  C   UNL     1     -43.135  58.281 -53.237  1.00  0.00     0.021 A 
HETATM   20  C   UNL     1     -42.893  58.917 -52.007  1.00  0.00    -0.055 A 
HETATM   21  C   UNL     1     -41.566  59.083 -51.566  1.00  0.00    -0.056 A 
HETATM   22  C   UNL     1     -44.058  59.442 -51.213  1.00  0.00     0.049 C 
HETATM   23  C   UNL     1     -41.246  59.767 -50.266  1.00  0.00     0.049 C 
HETATM   24  C   UNL     1     -40.516  58.577 -52.348  1.00  0.00     0.008 A 
HETATM   25  C   UNL     1     -40.774  57.926 -53.556  1.00  0.00     0.014 A 
ENDBRANCH   1  18
BRANCH   3  26
HETATM   26  C   UNL     1     -42.856  57.206 -58.748  1.00  0.00     0.189 C 
BRANCH  26  27
HETATM   27  C   UNL     1     -44.208  56.822 -59.302  1.00  0.00    -0.038 A 
HETATM   28  C   UNL     1     -45.371  57.454 -58.841  1.00  0.00     0.009 A 
HETATM   29  C   UNL     1     -46.620  57.112 -59.367  1.00  0.00     0.001 A 
HETATM   30  C   UNL     1     -46.720  56.139 -60.359  1.00  0.00     0.000 A 
HETATM   31  C   UNL     1     -45.570  55.510 -60.833  1.00  0.00     0.001 A 
HETATM   32  C   UNL     1     -44.322  55.853 -60.314  1.00  0.00     0.009 A 
ENDBRANCH  26  27
ENDBRANCH   3  26
TORSDOF 6
ENDMDL
MODEL 5
REMARK VINA RESULT:      -8.4      1.875      2.639
REMARK  6 active torsions:
REMARK  status: ('A' for Active; 'I' for Inactive)
REMARK    1  A    between atoms: C_6  and  C_7 
REMARK    2  A    between atoms: N_9  and  C_10 
REMARK    3  A    between atoms: C_10  and  C_11 
REMARK    4  A    between atoms: C_18  and  C_19 
REMARK       I    between atoms: C_19  and  N_20 
REMARK    5  A    between atoms: N_20  and  C_21 
REMARK    6  A    between atoms: C_24  and  O_25 
ROOT
HETATM    1  C   UNL     1     -42.059  55.521 -55.589  1.00  0.00     0.104 A 
HETATM    2  N   UNL     1     -42.496  55.097 -56.787  1.00  0.00    -0.171 NA
HETATM    3  N   UNL     1     -42.947  56.208 -57.400  1.00  0.00    -0.275 N 
HETATM    4  C   UNL     1     -42.795  57.335 -56.650  1.00  0.00     0.132 A 
HETATM    5  C   UNL     1     -42.275  56.928 -55.436  1.00  0.00     0.080 A 
ENDROOT
BRANCH   5   6
HETATM    6  C   UNL     1     -42.036  57.811 -54.309  1.00  0.00     0.255 C 
HETATM    7  N   UNL     1     -43.123  57.974 -53.478  1.00  0.00    -0.352 N 
HETATM    8  H   UNL     1     -43.993  57.532 -53.744  1.00  0.00     0.163 HD
HETATM    9  O   UNL     1     -40.968  58.389 -54.143  1.00  0.00    -0.268 OA
BRANCH   7  10
HETATM   10  C   UNL     1     -43.086  58.796 -52.278  1.00  0.00     0.084 C 
HETATM   11  C   UNL     1     -44.148  59.905 -52.304  1.00  0.00     0.028 C 
HETATM   12  C   UNL     1     -45.569  59.361 -52.155  1.00  0.00     0.034 C 
HETATM   13  C   UNL     1     -45.732  58.459 -50.932  1.00  0.00     0.118 C 
HETATM   14  C   UNL     1     -44.662  57.370 -50.864  1.00  0.00     0.034 C 
HETATM   15  C   UNL     1     -43.242  57.922 -51.025  1.00  0.00     0.028 C 
BRANCH  13  16
HETATM   16  O   UNL     1     -45.708  59.236 -49.738  1.00  0.00    -0.396 OA
HETATM   17  H   UNL     1     -46.616  59.364 -49.420  1.00  0.00     0.210 HD
ENDBRANCH  13  16
ENDBRANCH   7  10
ENDBRANCH   5   6
BRANCH   1  18
HETATM   18  C   UNL     1     -41.463  54.569 -54.648  1.00  0.00    -0.004 A 
HETATM   19  C   UNL     1     -41.780  54.600 -53.284  1.00  0.00     0.021 A 
HETATM   20  C   UNL     1     -41.246  53.657 -52.387  1.00  0.00    -0.055 A 
HETATM   21  C   UNL     1     -40.334  52.694 -52.861  1.00  0.00    -0.056 A 
HETATM   22  C   UNL     1     -41.633  53.729 -50.935  1.00  0.00     0.049 C 
HETATM   23  C   UNL     1     -39.721  51.671 -51.945  1.00  0.00     0.049 C 
HETATM   24  C   UNL     1     -40.006  52.675 -54.225  1.00  0.00     0.008 A 
HETATM   25  C   UNL     1     -40.562  53.603 -55.107  1.00  0.00     0.014 A 
ENDBRANCH   1  18
BRANCH   3  26
HETATM   26  C   UNL     1     -43.524  56.119 -58.736  1.00  0.00     0.189 C 
BRANCH  26  27
HETATM   27  C   UNL     1     -43.316  57.388 -59.528  1.00  0.00    -0.038 A 
HETATM   28  C   UNL     1     -42.047  57.713 -60.029  1.00  0.00     0.009 A 
HETATM   29  C   UNL     1     -41.857  58.878 -60.777  1.00  0.00     0.001 A 
HETATM   30  C   UNL     1     -42.931  59.728 -61.035  1.00  0.00     0.000 A 
HETATM   31  C   UNL     1     -44.199  59.411 -60.552  1.00  0.00     0.001 A 
HETATM   32  C   UNL     1     -44.392  58.246 -59.809  1.00  0.00     0.009 A 
ENDBRANCH  26  27
ENDBRANCH   3  26
TORSDOF 6
ENDMDL
MODEL 6
REMARK VINA RESULT:      -8.1      2.323      6.480
REMARK  6 active torsions:
REMARK  status: ('A' for Active; 'I' for Inactive)
REMARK    1  A    between atoms: C_6  and  C_7 
REMARK    2  A    between atoms: N_9  and  C_10 
REMARK    3  A    between atoms: C_10  and  C_11 
REMARK    4  A    between atoms: C_18  and  C_19 
REMARK       I    between atoms: C_19  and  N_20 
REMARK    5  A    between atoms: N_20  and  C_21 
REMARK    6  A    between atoms: C_24  and  O_25 
ROOT
HETATM    1  C   UNL     1     -41.095  55.985 -53.961  1.00  0.00     0.104 A 
HETATM    2  N   UNL     1     -40.689  56.895 -53.058  1.00  0.00    -0.171 NA
HETATM    3  N   UNL     1     -41.238  58.053 -53.467  1.00  0.00    -0.275 N 
HETATM    4  C   UNL     1     -42.002  57.920 -54.586  1.00  0.00     0.132 A 
HETATM    5  C   UNL     1     -41.890  56.600 -54.980  1.00  0.00     0.080 A 
ENDROOT
BRANCH   5   6
HETATM    6  C   UNL     1     -42.486  56.051 -56.185  1.00  0.00     0.255 C 
HETATM    7  N   UNL     1     -42.373  56.862 -57.292  1.00  0.00    -0.352 N 
HETATM    8  H   UNL     1     -41.955  57.775 -57.170  1.00  0.00     0.163 HD
HETATM    9  O   UNL     1     -43.072  54.974 -56.195  1.00  0.00    -0.268 OA
BRANCH   7  10
HETATM   10  C   UNL     1     -42.878  56.487 -58.604  1.00  0.00     0.084 C 
HETATM   11  C   UNL     1     -44.391  56.714 -58.727  1.00  0.00     0.028 C 
HETATM   12  C   UNL     1     -44.762  58.197 -58.765  1.00  0.00     0.034 C 
HETATM   13  C   UNL     1     -43.991  58.973 -59.832  1.00  0.00     0.118 C 
HETATM   14  C   UNL     1     -42.484  58.732 -59.755  1.00  0.00     0.034 C 
HETATM   15  C   UNL     1     -42.122  57.244 -59.706  1.00  0.00     0.028 C 
BRANCH  13  16
HETATM   16  O   UNL     1     -44.469  58.632 -61.132  1.00  0.00    -0.396 OA
HETATM   17  H   UNL     1     -43.734  58.676 -61.764  1.00  0.00     0.210 HD
ENDBRANCH  13  16
ENDBRANCH   7  10
ENDBRANCH   5   6
BRANCH   1  18
HETATM   18  C   UNL     1     -40.704  54.581 -53.814  1.00  0.00    -0.004 A 
HETATM   19  C   UNL     1     -40.578  53.990 -52.549  1.00  0.00     0.021 A 
HETATM   20  C   UNL     1     -40.251  52.630 -52.406  1.00  0.00    -0.055 A 
HETATM   21  C   UNL     1     -39.993  51.859 -53.556  1.00  0.00    -0.056 A 
HETATM   22  C   UNL     1     -40.143  52.046 -51.024  1.00  0.00     0.049 C 
HETATM   23  C   UNL     1     -39.624  50.404 -53.463  1.00  0.00     0.049 C 
HETATM   24  C   UNL     1     -40.104  52.456 -54.820  1.00  0.00     0.008 A 
HETATM   25  C   UNL     1     -40.454  53.802 -54.948  1.00  0.00     0.014 A 
ENDBRANCH   1  18
BRANCH   3  26
HETATM   26  C   UNL     1     -40.987  59.281 -52.721  1.00  0.00     0.189 C 
BRANCH  26  27
HETATM   27  C   UNL     1     -42.269  59.950 -52.286  1.00  0.00    -0.038 A 
HETATM   28  C   UNL     1     -42.717  61.115 -52.927  1.00  0.00     0.009 A 
HETATM   29  C   UNL     1     -43.912  61.724 -52.536  1.00  0.00     0.001 A 
HETATM   30  C   UNL     1     -44.674  61.176 -51.507  1.00  0.00     0.000 A 
HETATM   31  C   UNL     1     -44.246  60.014 -50.869  1.00  0.00     0.001 A 
HETATM   32  C   UNL     1     -43.056  59.400 -51.259  1.00  0.00     0.009 A 
ENDBRANCH  26  27
ENDBRANCH   3  26
TORSDOF 6
ENDMDL
MODEL 7
REMARK VINA RESULT:      -8.1      2.246      7.027
REMARK  6 active torsions:
REMARK  status: ('A' for Active; 'I' for Inactive)
REMARK    1  A    between atoms: C_6  and  C_7 
REMARK    2  A    between atoms: N_9  and  C_10 
REMARK    3  A    between atoms: C_10  and  C_11 
REMARK    4  A    between atoms: C_18  and  C_19 
REMARK       I    between atoms: C_19  and  N_20 
REMARK    5  A    between atoms: N_20  and  C_21 
REMARK    6  A    between atoms: C_24  and  O_25 
ROOT
HETATM    1  C   UNL     1     -43.255  56.086 -53.813  1.00  0.00     0.104 A 
HETATM    2  N   UNL     1     -43.936  56.416 -52.701  1.00  0.00    -0.171 NA
HETATM    3  N   UNL     1     -44.647  57.506 -53.046  1.00  0.00    -0.275 N 
HETATM    4  C   UNL     1     -44.467  57.877 -54.344  1.00  0.00     0.132 A 
HETATM    5  C   UNL     1     -43.521  57.016 -54.867  1.00  0.00     0.080 A 
ENDROOT
BRANCH   5   6
HETATM    6  C   UNL     1     -42.975  57.116 -56.209  1.00  0.00     0.255 C 
HETATM    7  N   UNL     1     -43.907  56.964 -57.212  1.00  0.00    -0.352 N 
HETATM    8  H   UNL     1     -44.857  56.738 -56.945  1.00  0.00     0.163 HD
HETATM    9  O   UNL     1     -41.778  57.281 -56.420  1.00  0.00    -0.268 OA
BRANCH   7  10
HETATM   10  C   UNL     1     -43.573  57.056 -58.625  1.00  0.00     0.084 C 
HETATM   11  C   UNL     1     -43.160  55.698 -59.211  1.00  0.00     0.028 C 
HETATM   12  C   UNL     1     -44.334  54.725 -59.325  1.00  0.00     0.034 C 
HETATM   13  C   UNL     1     -45.524  55.320 -60.077  1.00  0.00     0.118 C 
HETATM   14  C   UNL     1     -45.930  56.691 -59.537  1.00  0.00     0.034 C 
HETATM   15  C   UNL     1     -44.745  57.656 -59.414  1.00  0.00     0.028 C 
BRANCH  13  16
HETATM   16  O   UNL     1     -45.231  55.417 -61.469  1.00  0.00    -0.396 OA
HETATM   17  H   UNL     1     -45.879  56.001 -61.893  1.00  0.00     0.210 HD
ENDBRANCH  13  16
ENDBRANCH   7  10
ENDBRANCH   5   6
BRANCH   1  18
HETATM   18  C   UNL     1     -42.383  54.909 -53.815  1.00  0.00    -0.004 A 
HETATM   19  C   UNL     1     -41.574  54.601 -52.713  1.00  0.00     0.021 A 
HETATM   20  C   UNL     1     -40.773  53.445 -52.693  1.00  0.00    -0.055 A 
HETATM   21  C   UNL     1     -40.744  52.608 -53.824  1.00  0.00    -0.056 A 
HETATM   22  C   UNL     1     -39.935  53.158 -51.477  1.00  0.00     0.049 C 
HETATM   23  C   UNL     1     -39.895  51.367 -53.865  1.00  0.00     0.049 C 
HETATM   24  C   UNL     1     -41.543  52.926 -54.933  1.00  0.00     0.008 A 
HETATM   25  C   UNL     1     -42.351  54.064 -54.929  1.00  0.00     0.014 A 
ENDBRANCH   1  18
BRANCH   3  26
HETATM   26  C   UNL     1     -45.501  58.159 -52.061  1.00  0.00     0.189 C 
BRANCH  26  27
HETATM   27  C   UNL     1     -44.764  59.236 -51.300  1.00  0.00    -0.038 A 
HETATM   28  C   UNL     1     -45.415  59.972 -50.300  1.00  0.00     0.009 A 
HETATM   29  C   UNL     1     -44.728  60.956 -49.583  1.00  0.00     0.001 A 
HETATM   30  C   UNL     1     -43.385  61.210 -49.853  1.00  0.00     0.000 A 
HETATM   31  C   UNL     1     -42.724  60.478 -50.836  1.00  0.00     0.001 A 
HETATM   32  C   UNL     1     -43.405  59.493 -51.551  1.00  0.00     0.009 A 
ENDBRANCH  26  27
ENDBRANCH   3  26
TORSDOF 6
ENDMDL
MODEL 8
REMARK VINA RESULT:      -8.1     16.188     18.746
REMARK  6 active torsions:
REMARK  status: ('A' for Active; 'I' for Inactive)
REMARK    1  A    between atoms: C_6  and  C_7 
REMARK    2  A    between atoms: N_9  and  C_10 
REMARK    3  A    between atoms: C_10  and  C_11 
REMARK    4  A    between atoms: C_18  and  C_19 
REMARK       I    between atoms: C_19  and  N_20 
REMARK    5  A    between atoms: N_20  and  C_21 
REMARK    6  A    between atoms: C_24  and  O_25 
ROOT
HETATM    1  C   UNL     1     -34.795  40.853 -56.008  1.00  0.00     0.104 A 
HETATM    2  N   UNL     1     -35.334  40.922 -57.238  1.00  0.00    -0.171 NA
HETATM    3  N   UNL     1     -36.358  41.787 -57.114  1.00  0.00    -0.275 N 
HETATM    4  C   UNL     1     -36.485  42.295 -55.858  1.00  0.00     0.132 A 
HETATM    5  C   UNL     1     -35.524  41.669 -55.086  1.00  0.00     0.080 A 
ENDROOT
BRANCH   5   6
HETATM    6  C   UNL     1     -35.369  41.862 -53.655  1.00  0.00     0.255 C 
HETATM    7  N   UNL     1     -34.349  41.126 -53.093  1.00  0.00    -0.352 N 
HETATM    8  H   UNL     1     -33.847  40.481 -53.688  1.00  0.00     0.163 HD
HETATM    9  O   UNL     1     -36.112  42.590 -53.007  1.00  0.00    -0.268 OA
BRANCH   7  10
HETATM   10  C   UNL     1     -34.009  41.194 -51.680  1.00  0.00     0.084 C 
HETATM   11  C   UNL     1     -34.771  40.152 -50.850  1.00  0.00     0.028 C 
HETATM   12  C   UNL     1     -34.297  38.724 -51.122  1.00  0.00     0.034 C 
HETATM   13  C   UNL     1     -32.785  38.563 -50.969  1.00  0.00     0.118 C 
HETATM   14  C   UNL     1     -32.004  39.615 -51.755  1.00  0.00     0.034 C 
HETATM   15  C   UNL     1     -32.493  41.042 -51.486  1.00  0.00     0.028 C 
BRANCH  13  16
HETATM   16  O   UNL     1     -32.419  38.619 -49.592  1.00  0.00    -0.396 OA
HETATM   17  H   UNL     1     -32.699  37.800 -49.153  1.00  0.00     0.210 HD
ENDBRANCH  13  16
ENDBRANCH   7  10
ENDBRANCH   5   6
BRANCH   1  18
HETATM   18  C   UNL     1     -33.618  40.014 -55.770  1.00  0.00    -0.004 A 
HETATM   19  C   UNL     1     -33.721  38.794 -55.088  1.00  0.00     0.021 A 
HETATM   20  C   UNL     1     -32.602  37.963 -54.901  1.00  0.00    -0.055 A 
HETATM   21  C   UNL     1     -31.342  38.390 -55.363  1.00  0.00    -0.056 A 
HETATM   22  C   UNL     1     -32.774  36.658 -54.173  1.00  0.00     0.049 C 
HETATM   23  C   UNL     1     -30.108  37.550 -55.178  1.00  0.00     0.049 C 
HETATM   24  C   UNL     1     -31.238  39.619 -56.032  1.00  0.00     0.008 A 
HETATM   25  C   UNL     1     -32.363  40.422 -56.231  1.00  0.00     0.014 A 
ENDBRANCH   1  18
BRANCH   3  26
HETATM   26  C   UNL     1     -37.197  42.090 -58.268  1.00  0.00     0.189 C 
BRANCH  26  27
HETATM   27  C   UNL     1     -37.577  40.845 -59.034  1.00  0.00    -0.038 A 
HETATM   28  C   UNL     1     -38.337  39.838 -58.421  1.00  0.00     0.009 A 
HETATM   29  C   UNL     1     -38.704  38.694 -59.135  1.00  0.00     0.001 A 
HETATM   30  C   UNL     1     -38.321  38.545 -60.466  1.00  0.00     0.000 A 
HETATM   31  C   UNL     1     -37.575  39.543 -61.090  1.00  0.00     0.001 A 
HETATM   32  C   UNL     1     -37.211  40.689 -60.382  1.00  0.00     0.009 A 
ENDBRANCH  26  27
ENDBRANCH   3  26
TORSDOF 6
ENDMDL
MODEL 9
REMARK VINA RESULT:      -7.7     16.353     20.485
REMARK  6 active torsions:
REMARK  status: ('A' for Active; 'I' for Inactive)
REMARK    1  A    between atoms: C_6  and  C_7 
REMARK    2  A    between atoms: N_9  and  C_10 
REMARK    3  A    between atoms: C_10  and  C_11 
REMARK    4  A    between atoms: C_18  and  C_19 
REMARK       I    between atoms: C_19  and  N_20 
REMARK    5  A    between atoms: N_20  and  C_21 
REMARK    6  A    between atoms: C_24  and  O_25 
ROOT
HETATM    1  C   UNL     1     -34.466  39.138 -52.771  1.00  0.00     0.104 A 
HETATM    2  N   UNL     1     -34.267  38.309 -51.732  1.00  0.00    -0.171 NA
HETATM    3  N   UNL     1     -34.903  38.895 -50.700  1.00  0.00    -0.275 N 
HETATM    4  C   UNL     1     -35.524  40.058 -51.041  1.00  0.00     0.132 A 
HETATM    5  C   UNL     1     -35.216  40.289 -52.368  1.00  0.00     0.080 A 
ENDROOT
BRANCH   5   6
HETATM    6  C   UNL     1     -35.612  41.474 -53.107  1.00  0.00     0.255 C 
HETATM    7  N   UNL     1     -35.929  41.239 -54.427  1.00  0.00    -0.352 N 
HETATM    8  H   UNL     1     -35.804  40.300 -54.784  1.00  0.00     0.163 HD
HETATM    9  O   UNL     1     -35.621  42.591 -52.600  1.00  0.00    -0.268 OA
BRANCH   7  10
HETATM   10  C   UNL     1     -36.376  42.285 -55.333  1.00  0.00     0.084 C 
HETATM   11  C   UNL     1     -35.273  42.712 -56.313  1.00  0.00     0.028 C 
HETATM   12  C   UNL     1     -34.964  41.636 -57.354  1.00  0.00     0.034 C 
HETATM   13  C   UNL     1     -36.211  41.151 -58.093  1.00  0.00     0.118 C 
HETATM   14  C   UNL     1     -37.338  40.758 -57.139  1.00  0.00     0.034 C 
HETATM   15  C   UNL     1     -37.634  41.836 -56.091  1.00  0.00     0.028 C 
BRANCH  13  16
HETATM   16  O   UNL     1     -36.671  42.154 -58.996  1.00  0.00    -0.396 OA
HETATM   17  H   UNL     1     -35.940  42.424 -59.574  1.00  0.00     0.210 HD
ENDBRANCH  13  16
ENDBRANCH   7  10
ENDBRANCH   5   6
BRANCH   1  18
HETATM   18  C   UNL     1     -33.931  38.799 -54.092  1.00  0.00    -0.004 A 
HETATM   19  C   UNL     1     -32.768  39.407 -54.583  1.00  0.00     0.021 A 
HETATM   20  C   UNL     1     -32.225  39.048 -55.830  1.00  0.00    -0.055 A 
HETATM   21  C   UNL     1     -32.892  38.095 -56.623  1.00  0.00    -0.056 A 
HETATM   22  C   UNL     1     -30.966  39.724 -56.301  1.00  0.00     0.049 C 
HETATM   23  C   UNL     1     -32.366  37.683 -57.970  1.00  0.00     0.049 C 
HETATM   24  C   UNL     1     -34.065  37.499 -56.137  1.00  0.00     0.008 A 
HETATM   25  C   UNL     1     -34.579  37.848 -54.886  1.00  0.00     0.014 A 
ENDBRANCH   1  18
BRANCH   3  26
HETATM   26  C   UNL     1     -34.878  38.272 -49.382  1.00  0.00     0.189 C 
BRANCH  26  27
HETATM   27  C   UNL     1     -33.603  38.582 -48.634  1.00  0.00    -0.038 A 
HETATM   28  C   UNL     1     -32.705  39.540 -49.127  1.00  0.00     0.009 A 
HETATM   29  C   UNL     1     -31.534  39.841 -48.427  1.00  0.00     0.001 A 
HETATM   30  C   UNL     1     -31.249  39.192 -47.227  1.00  0.00     0.000 A 
HETATM   31  C   UNL     1     -32.138  38.246 -46.721  1.00  0.00     0.001 A 
HETATM   32  C   UNL     1     -33.310  37.947 -47.415  1.00  0.00     0.009 A 
ENDBRANCH  26  27
ENDBRANCH   3  26
TORSDOF 6
ENDMDL
MODEL 10
REMARK VINA RESULT:      -7.7      2.385      6.960
REMARK  6 active torsions:
REMARK  status: ('A' for Active; 'I' for Inactive)
REMARK    1  A    between atoms: C_6  and  C_7 
REMARK    2  A    between atoms: N_9  and  C_10 
REMARK    3  A    between atoms: C_10  and  C_11 
REMARK    4  A    between atoms: C_18  and  C_19 
REMARK       I    between atoms: C_19  and  N_20 
REMARK    5  A    between atoms: N_20  and  C_21 
REMARK    6  A    between atoms: C_24  and  O_25 
ROOT
HETATM    1  C   UNL     1     -42.855  56.697 -54.405  1.00  0.00     0.104 A 
HETATM    2  N   UNL     1     -42.920  55.444 -53.920  1.00  0.00    -0.171 NA
HETATM    3  N   UNL     1     -42.369  55.523 -52.694  1.00  0.00    -0.275 N 
HETATM    4  C   UNL     1     -41.972  56.782 -52.363  1.00  0.00     0.132 A 
HETATM    5  C   UNL     1     -42.214  57.571 -53.471  1.00  0.00     0.080 A 
ENDROOT
BRANCH   5   6
HETATM    6  C   UNL     1     -41.857  58.975 -53.572  1.00  0.00     0.255 C 
HETATM    7  N   UNL     1     -42.911  59.842 -53.385  1.00  0.00    -0.352 N 
HETATM    8  H   UNL     1     -43.833  59.446 -53.260  1.00  0.00     0.163 HD
HETATM    9  O   UNL     1     -40.719  59.345 -53.841  1.00  0.00    -0.268 OA
BRANCH   7  10
HETATM   10  C   UNL     1     -42.762  61.289 -53.418  1.00  0.00     0.084 C 
HETATM   11  C   UNL     1     -43.264  61.892 -54.737  1.00  0.00     0.028 C 
HETATM   12  C   UNL     1     -44.786  61.824 -54.873  1.00  0.00     0.034 C 
HETATM   13  C   UNL     1     -45.515  62.423 -53.672  1.00  0.00     0.118 C 
HETATM   14  C   UNL     1     -45.005  61.867 -52.343  1.00  0.00     0.034 C 
HETATM   15  C   UNL     1     -43.479  61.928 -52.219  1.00  0.00     0.028 C 
BRANCH  13  16
HETATM   16  O   UNL     1     -45.394  63.844 -53.679  1.00  0.00    -0.396 OA
HETATM   17  H   UNL     1     -46.227  64.238 -53.374  1.00  0.00     0.210 HD
ENDBRANCH  13  16
ENDBRANCH   7  10
ENDBRANCH   5   6
BRANCH   1  18
HETATM   18  C   UNL     1     -43.400  56.998 -55.731  1.00  0.00    -0.004 A 
HETATM   19  C   UNL     1     -42.868  56.408 -56.886  1.00  0.00     0.021 A 
HETATM   20  C   UNL     1     -43.421  56.658 -58.155  1.00  0.00    -0.055 A 
HETATM   21  C   UNL     1     -44.496  57.559 -58.274  1.00  0.00    -0.056 A 
HETATM   22  C   UNL     1     -42.818  55.987 -59.359  1.00  0.00     0.049 C 
HETATM   23  C   UNL     1     -45.117  57.875 -59.606  1.00  0.00     0.049 C 
HETATM   24  C   UNL     1     -45.017  58.160 -57.118  1.00  0.00     0.008 A 
HETATM   25  C   UNL     1     -44.473  57.884 -55.861  1.00  0.00     0.014 A 
ENDBRANCH   1  18
BRANCH   3  26
HETATM   26  C   UNL     1     -42.250  54.324 -51.872  1.00  0.00     0.189 C 
BRANCH  26  27
HETATM   27  C   UNL     1     -41.245  53.349 -52.437  1.00  0.00    -0.038 A 
HETATM   28  C   UNL     1     -40.294  52.745 -51.602  1.00  0.00     0.009 A 
HETATM   29  C   UNL     1     -39.375  51.829 -52.120  1.00  0.00     0.001 A 
HETATM   30  C   UNL     1     -39.399  51.503 -53.475  1.00  0.00     0.000 A 
HETATM   31  C   UNL     1     -40.345  52.088 -54.313  1.00  0.00     0.001 A 
HETATM   32  C   UNL     1     -41.267  52.999 -53.797  1.00  0.00     0.009 A 
ENDBRANCH  26  27
ENDBRANCH   3  26
TORSDOF 6
ENDMDL
