MODEL 1
REMARK VINA RESULT:      -7.8      0.000      0.000
REMARK  7 active torsions:
REMARK  status: ('A' for Active; 'I' for Inactive)
REMARK    1  A    between atoms: C_4  and  C_5 
REMARK    2  A    between atoms: C_5  and  N_6 
REMARK       I    between atoms: N_6  and  C_7 
REMARK    3  A    between atoms: C_7  and  C_8 
REMARK    4  A    between atoms: C_8  and  C_9 
REMARK    5  A    between atoms: C_9  and  N_10 
REMARK    6  A    between atoms: N_10  and  C_11 
REMARK    7  A    between atoms: C_13  and  N_14 
ROOT
HETATM    1  N   UNL     1     -43.689  54.242 -51.983  1.00  0.00    -0.262 NA
HETATM    2  H   UNL     1     -42.936  53.547 -51.933  1.00  0.00     0.130 HD
ENDROOT
BRANCH   1   3
HETATM    3  C   UNL     1     -43.730  55.044 -50.754  1.00  0.00     0.104 C 
BRANCH   3   4
HETATM    4  C   UNL     1     -42.338  55.591 -50.447  1.00  0.00     0.117 C 
BRANCH   4   5
HETATM    5  C   UNL     1     -41.439  54.484 -49.941  1.00  0.00     0.219 C 
HETATM    6  N   UNL     1     -40.749  53.849 -50.943  1.00  0.00    -0.357 N 
HETATM    7  H   UNL     1     -40.967  54.054 -51.909  1.00  0.00     0.162 HD
HETATM    8  O   UNL     1     -41.360  54.198 -48.751  1.00  0.00    -0.274 OA
BRANCH   6   9
HETATM    9  C   UNL     1     -39.927  52.681 -50.696  1.00  0.00     0.161 C 
BRANCH   9  10
HETATM   10  C   UNL     1     -39.893  51.785 -51.907  1.00  0.00    -0.041 A 
HETATM   11  C   UNL     1     -39.607  50.417 -51.776  1.00  0.00     0.009 A 
HETATM   12  C   UNL     1     -39.574  49.589 -52.900  1.00  0.00     0.001 A 
HETATM   13  C   UNL     1     -39.826  50.117 -54.163  1.00  0.00     0.000 A 
HETATM   14  C   UNL     1     -40.107  51.475 -54.307  1.00  0.00     0.001 A 
HETATM   15  C   UNL     1     -40.134  52.306 -53.186  1.00  0.00     0.009 A 
ENDBRANCH   9  10
ENDBRANCH   6   9
ENDBRANCH   4   5
ENDBRANCH   3   4
ENDBRANCH   1   3
BRANCH   1  16
HETATM   16  C   UNL     1     -43.415  54.963 -53.138  1.00  0.00     0.181 A 
HETATM   17  N   UNL     1     -42.361  54.583 -53.872  1.00  0.00    -0.207 NA
HETATM   18  C   UNL     1     -42.149  55.247 -55.020  1.00  0.00     0.116 A 
HETATM   19  C   UNL     1     -42.969  56.304 -55.453  1.00  0.00     0.031 A 
HETATM   20  C   UNL     1     -44.066  56.622 -54.631  1.00  0.00     0.048 A 
HETATM   21  C   UNL     1     -42.776  57.058 -56.633  1.00  0.00     0.017 A 
HETATM   22  N   UNL     1     -44.252  55.930 -53.502  1.00  0.00    -0.330 N 
HETATM   23  C   UNL     1     -44.954  57.648 -54.986  1.00  0.00     0.030 A 
HETATM   24  H   UNL     1     -45.056  56.094 -52.909  1.00  0.00     0.168 HD
HETATM   25  C   UNL     1     -44.749  58.373 -56.160  1.00  0.00     0.002 A 
HETATM   26  C   UNL     1     -43.662  58.080 -56.979  1.00  0.00     0.001 A 
BRANCH  18  27
HETATM   27  N   UNL     1     -41.020  54.859 -55.732  1.00  0.00    -0.286 NA
HETATM   28  H   UNL     1     -40.185  54.964 -55.159  1.00  0.00     0.125 HD
HETATM   29  H   UNL     1     -41.078  53.924 -56.125  1.00  0.00     0.125 HD
ENDBRANCH  18  27
ENDBRANCH   1  16
TORSDOF 7
ENDMDL
MODEL 2
REMARK VINA RESULT:      -7.8      2.585      6.177
REMARK  7 active torsions:
REMARK  status: ('A' for Active; 'I' for Inactive)
REMARK    1  A    between atoms: C_4  and  C_5 
REMARK    2  A    between atoms: C_5  and  N_6 
REMARK       I    between atoms: N_6  and  C_7 
REMARK    3  A    between atoms: C_7  and  C_8 
REMARK    4  A    between atoms: C_8  and  C_9 
REMARK    5  A    between atoms: C_9  and  N_10 
REMARK    6  A    between atoms: N_10  and  C_11 
REMARK    7  A    between atoms: C_13  and  N_14 
ROOT
HETATM    1  N   UNL     1     -41.945  57.356 -50.405  1.00  0.00    -0.262 NA
HETATM    2  H   UNL     1     -42.538  57.390 -49.569  1.00  0.00     0.130 HD
ENDROOT
BRANCH   1   3
HETATM    3  C   UNL     1     -40.917  58.403 -50.348  1.00  0.00     0.104 C 
BRANCH   3   4
HETATM    4  C   UNL     1     -41.307  59.560 -51.265  1.00  0.00     0.117 C 
BRANCH   4   5
HETATM    5  C   UNL     1     -41.018  59.206 -52.708  1.00  0.00     0.219 C 
HETATM    6  N   UNL     1     -42.150  58.927 -53.432  1.00  0.00    -0.357 N 
HETATM    7  H   UNL     1     -43.040  58.848 -52.958  1.00  0.00     0.162 HD
HETATM    8  O   UNL     1     -39.877  59.172 -53.157  1.00  0.00    -0.274 OA
BRANCH   6   9
HETATM    9  C   UNL     1     -42.096  58.446 -54.797  1.00  0.00     0.161 C 
BRANCH   9  10
HETATM   10  C   UNL     1     -42.530  57.005 -54.875  1.00  0.00    -0.041 A 
HETATM   11  C   UNL     1     -41.980  56.144 -55.837  1.00  0.00     0.009 A 
HETATM   12  C   UNL     1     -42.386  54.810 -55.909  1.00  0.00     0.001 A 
HETATM   13  C   UNL     1     -43.343  54.323 -55.022  1.00  0.00     0.000 A 
HETATM   14  C   UNL     1     -43.900  55.170 -54.065  1.00  0.00     0.001 A 
HETATM   15  C   UNL     1     -43.501  56.505 -53.996  1.00  0.00     0.009 A 
ENDBRANCH   9  10
ENDBRANCH   6   9
ENDBRANCH   4   5
ENDBRANCH   3   4
ENDBRANCH   1   3
BRANCH   1  16
HETATM   16  C   UNL     1     -41.450  56.058 -50.423  1.00  0.00     0.181 A 
HETATM   17  N   UNL     1     -41.326  55.425 -49.249  1.00  0.00    -0.207 NA
HETATM   18  C   UNL     1     -40.910  54.148 -49.289  1.00  0.00     0.116 A 
HETATM   19  C   UNL     1     -40.601  53.483 -50.488  1.00  0.00     0.031 A 
HETATM   20  C   UNL     1     -40.780  54.218 -51.676  1.00  0.00     0.048 A 
HETATM   21  C   UNL     1     -40.129  52.154 -50.588  1.00  0.00     0.017 A 
HETATM   22  N   UNL     1     -41.208  55.482 -51.596  1.00  0.00    -0.330 N 
HETATM   23  C   UNL     1     -40.517  53.636 -52.924  1.00  0.00     0.030 A 
HETATM   24  H   UNL     1     -41.398  56.027 -52.428  1.00  0.00     0.168 HD
HETATM   25  C   UNL     1     -40.062  52.320 -53.000  1.00  0.00     0.002 A 
HETATM   26  C   UNL     1     -39.866  51.583 -51.835  1.00  0.00     0.001 A 
BRANCH  18  27
HETATM   27  N   UNL     1     -40.746  53.537 -48.051  1.00  0.00    -0.286 NA
HETATM   28  H   UNL     1     -41.464  52.829 -47.907  1.00  0.00     0.125 HD
HETATM   29  H   UNL     1     -39.818  53.153 -47.897  1.00  0.00     0.125 HD
ENDBRANCH  18  27
ENDBRANCH   1  16
TORSDOF 7
ENDMDL
MODEL 3
REMARK VINA RESULT:      -7.6      2.718      7.497
REMARK  7 active torsions:
REMARK  status: ('A' for Active; 'I' for Inactive)
REMARK    1  A    between atoms: C_4  and  C_5 
REMARK    2  A    between atoms: C_5  and  N_6 
REMARK       I    between atoms: N_6  and  C_7 
REMARK    3  A    between atoms: C_7  and  C_8 
REMARK    4  A    between atoms: C_8  and  C_9 
REMARK    5  A    between atoms: C_9  and  N_10 
REMARK    6  A    between atoms: N_10  and  C_11 
REMARK    7  A    between atoms: C_13  and  N_14 
ROOT
HETATM    1  N   UNL     1     -41.419  55.653 -53.987  1.00  0.00    -0.262 NA
HETATM    2  H   UNL     1     -41.554  55.387 -54.969  1.00  0.00     0.130 HD
ENDROOT
BRANCH   1   3
HETATM    3  C   UNL     1     -42.675  56.151 -53.413  1.00  0.00     0.104 C 
BRANCH   3   4
HETATM    4  C   UNL     1     -43.807  55.983 -54.423  1.00  0.00     0.117 C 
BRANCH   4   5
HETATM    5  C   UNL     1     -43.245  55.688 -55.796  1.00  0.00     0.219 C 
HETATM    6  N   UNL     1     -43.144  56.804 -56.589  1.00  0.00    -0.357 N 
HETATM    7  H   UNL     1     -43.548  57.677 -56.278  1.00  0.00     0.162 HD
HETATM    8  O   UNL     1     -42.927  54.555 -56.143  1.00  0.00    -0.274 OA
BRANCH   6   9
HETATM    9  C   UNL     1     -42.747  56.730 -57.981  1.00  0.00     0.161 C 
BRANCH   9  10
HETATM   10  C   UNL     1     -43.924  56.383 -58.855  1.00  0.00    -0.041 A 
HETATM   11  C   UNL     1     -43.893  55.246 -59.678  1.00  0.00     0.009 A 
HETATM   12  C   UNL     1     -44.983  54.928 -60.489  1.00  0.00     0.001 A 
HETATM   13  C   UNL     1     -46.115  55.740 -60.487  1.00  0.00     0.000 A 
HETATM   14  C   UNL     1     -46.157  56.874 -59.678  1.00  0.00     0.001 A 
HETATM   15  C   UNL     1     -45.064  57.198 -58.871  1.00  0.00     0.009 A 
ENDBRANCH   9  10
ENDBRANCH   6   9
ENDBRANCH   4   5
ENDBRANCH   3   4
ENDBRANCH   1   3
BRANCH   1  16
HETATM   16  C   UNL     1     -40.920  54.506 -53.384  1.00  0.00     0.181 A 
HETATM   17  N   UNL     1     -40.663  54.557 -52.071  1.00  0.00    -0.207 NA
HETATM   18  C   UNL     1     -40.245  53.420 -51.489  1.00  0.00     0.116 A 
HETATM   19  C   UNL     1     -40.066  52.221 -52.200  1.00  0.00     0.031 A 
HETATM   20  C   UNL     1     -40.380  52.252 -53.572  1.00  0.00     0.048 A 
HETATM   21  C   UNL     1     -39.599  51.006 -51.648  1.00  0.00     0.017 A 
HETATM   22  N   UNL     1     -40.805  53.399 -54.112  1.00  0.00    -0.330 N 
HETATM   23  C   UNL     1     -40.252  51.102 -54.362  1.00  0.00     0.030 A 
HETATM   24  H   UNL     1     -41.089  53.451 -55.082  1.00  0.00     0.168 HD
HETATM   25  C   UNL     1     -39.799  49.910 -53.795  1.00  0.00     0.002 A 
HETATM   26  C   UNL     1     -39.471  49.864 -52.443  1.00  0.00     0.001 A 
BRANCH  18  27
HETATM   27  N   UNL     1     -39.941  53.521 -50.136  1.00  0.00    -0.286 NA
HETATM   28  H   UNL     1     -39.391  54.358 -49.958  1.00  0.00     0.125 HD
HETATM   29  H   UNL     1     -40.752  53.479 -49.525  1.00  0.00     0.125 HD
ENDBRANCH  18  27
ENDBRANCH   1  16
TORSDOF 7
ENDMDL
MODEL 4
REMARK VINA RESULT:      -7.6      2.214      3.108
REMARK  7 active torsions:
REMARK  status: ('A' for Active; 'I' for Inactive)
REMARK    1  A    between atoms: C_4  and  C_5 
REMARK    2  A    between atoms: C_5  and  N_6 
REMARK       I    between atoms: N_6  and  C_7 
REMARK    3  A    between atoms: C_7  and  C_8 
REMARK    4  A    between atoms: C_8  and  C_9 
REMARK    5  A    between atoms: C_9  and  N_10 
REMARK    6  A    between atoms: N_10  and  C_11 
REMARK    7  A    between atoms: C_13  and  N_14 
ROOT
HETATM    1  N   UNL     1     -44.002  56.268 -53.747  1.00  0.00    -0.262 NA
HETATM    2  H   UNL     1     -43.199  55.767 -53.352  1.00  0.00     0.130 HD
ENDROOT
BRANCH   1   3
HETATM    3  C   UNL     1     -44.495  57.275 -52.798  1.00  0.00     0.104 C 
BRANCH   3   4
HETATM    4  C   UNL     1     -44.017  56.935 -51.389  1.00  0.00     0.117 C 
BRANCH   4   5
HETATM    5  C   UNL     1     -42.550  56.564 -51.408  1.00  0.00     0.219 C 
HETATM    6  N   UNL     1     -42.324  55.240 -51.127  1.00  0.00    -0.357 N 
HETATM    7  H   UNL     1     -43.089  54.658 -50.812  1.00  0.00     0.162 HD
HETATM    8  O   UNL     1     -41.671  57.386 -51.647  1.00  0.00    -0.274 OA
BRANCH   6   9
HETATM    9  C   UNL     1     -40.989  54.699 -50.971  1.00  0.00     0.161 C 
BRANCH   9  10
HETATM   10  C   UNL     1     -40.692  53.690 -52.050  1.00  0.00    -0.041 A 
HETATM   11  C   UNL     1     -41.174  53.875 -53.355  1.00  0.00     0.009 A 
HETATM   12  C   UNL     1     -40.900  52.938 -54.352  1.00  0.00     0.001 A 
HETATM   13  C   UNL     1     -40.141  51.807 -54.058  1.00  0.00     0.000 A 
HETATM   14  C   UNL     1     -39.660  51.609 -52.765  1.00  0.00     0.001 A 
HETATM   15  C   UNL     1     -39.940  52.542 -51.764  1.00  0.00     0.009 A 
ENDBRANCH   9  10
ENDBRANCH   6   9
ENDBRANCH   4   5
ENDBRANCH   3   4
ENDBRANCH   1   3
BRANCH   1  16
HETATM   16  C   UNL     1     -43.529  56.785 -54.947  1.00  0.00     0.181 A 
HETATM   17  N   UNL     1     -42.921  57.978 -54.912  1.00  0.00    -0.207 NA
HETATM   18  C   UNL     1     -42.410  58.433 -56.068  1.00  0.00     0.116 A 
HETATM   19  C   UNL     1     -42.502  57.720 -57.276  1.00  0.00     0.031 A 
HETATM   20  C   UNL     1     -43.139  56.466 -57.216  1.00  0.00     0.048 A 
HETATM   21  C   UNL     1     -42.013  58.163 -58.526  1.00  0.00     0.017 A 
HETATM   22  N   UNL     1     -43.623  56.041 -56.044  1.00  0.00    -0.330 N 
HETATM   23  C   UNL     1     -43.264  55.671 -58.364  1.00  0.00     0.030 A 
HETATM   24  H   UNL     1     -44.043  55.125 -55.949  1.00  0.00     0.168 HD
HETATM   25  C   UNL     1     -42.765  56.124 -59.586  1.00  0.00     0.002 A 
HETATM   26  C   UNL     1     -42.144  57.367 -59.666  1.00  0.00     0.001 A 
BRANCH  18  27
HETATM   27  N   UNL     1     -41.829  59.695 -56.006  1.00  0.00    -0.286 NA
HETATM   28  H   UNL     1     -40.821  59.615 -55.888  1.00  0.00     0.125 HD
HETATM   29  H   UNL     1     -42.059  60.296 -56.792  1.00  0.00     0.125 HD
ENDBRANCH  18  27
ENDBRANCH   1  16
TORSDOF 7
ENDMDL
MODEL 5
REMARK VINA RESULT:      -7.6      1.936      2.642
REMARK  7 active torsions:
REMARK  status: ('A' for Active; 'I' for Inactive)
REMARK    1  A    between atoms: C_4  and  C_5 
REMARK    2  A    between atoms: C_5  and  N_6 
REMARK       I    between atoms: N_6  and  C_7 
REMARK    3  A    between atoms: C_7  and  C_8 
REMARK    4  A    between atoms: C_8  and  C_9 
REMARK    5  A    between atoms: C_9  and  N_10 
REMARK    6  A    between atoms: N_10  and  C_11 
REMARK    7  A    between atoms: C_13  and  N_14 
ROOT
HETATM    1  N   UNL     1     -44.204  56.158 -54.074  1.00  0.00    -0.262 NA
HETATM    2  H   UNL     1     -45.082  55.737 -54.398  1.00  0.00     0.130 HD
ENDROOT
BRANCH   1   3
HETATM    3  C   UNL     1     -43.359  55.146 -53.426  1.00  0.00     0.104 C 
BRANCH   3   4
HETATM    4  C   UNL     1     -42.573  55.784 -52.284  1.00  0.00     0.117 C 
BRANCH   4   5
HETATM    5  C   UNL     1     -41.938  54.714 -51.422  1.00  0.00     0.219 C 
HETATM    6  N   UNL     1     -40.687  54.346 -51.852  1.00  0.00    -0.357 N 
HETATM    7  H   UNL     1     -40.342  54.692 -52.738  1.00  0.00     0.162 HD
HETATM    8  O   UNL     1     -42.508  54.236 -50.447  1.00  0.00    -0.274 OA
BRANCH   6   9
HETATM    9  C   UNL     1     -39.952  53.254 -51.248  1.00  0.00     0.161 C 
BRANCH   9  10
HETATM   10  C   UNL     1     -39.908  52.064 -52.171  1.00  0.00    -0.041 A 
HETATM   11  C   UNL     1     -39.581  50.790 -51.679  1.00  0.00     0.009 A 
HETATM   12  C   UNL     1     -39.539  49.689 -52.536  1.00  0.00     0.001 A 
HETATM   13  C   UNL     1     -39.822  49.847 -53.890  1.00  0.00     0.000 A 
HETATM   14  C   UNL     1     -40.142  51.108 -54.392  1.00  0.00     0.001 A 
HETATM   15  C   UNL     1     -40.179  52.211 -53.538  1.00  0.00     0.009 A 
ENDBRANCH   9  10
ENDBRANCH   6   9
ENDBRANCH   4   5
ENDBRANCH   3   4
ENDBRANCH   1   3
BRANCH   1  16
HETATM   16  C   UNL     1     -43.653  56.728 -55.214  1.00  0.00     0.181 A 
HETATM   17  N   UNL     1     -43.035  57.909 -55.081  1.00  0.00    -0.207 NA
HETATM   18  C   UNL     1     -42.450  58.415 -56.179  1.00  0.00     0.116 A 
HETATM   19  C   UNL     1     -42.476  57.767 -57.426  1.00  0.00     0.031 A 
HETATM   20  C   UNL     1     -43.129  56.521 -57.470  1.00  0.00     0.048 A 
HETATM   21  C   UNL     1     -41.907  58.267 -58.619  1.00  0.00     0.017 A 
HETATM   22  N   UNL     1     -43.689  56.043 -56.353  1.00  0.00    -0.330 N 
HETATM   23  C   UNL     1     -43.193  55.787 -58.663  1.00  0.00     0.030 A 
HETATM   24  H   UNL     1     -44.124  55.130 -56.331  1.00  0.00     0.168 HD
HETATM   25  C   UNL     1     -42.615  56.295 -59.827  1.00  0.00     0.002 A 
HETATM   26  C   UNL     1     -41.977  57.532 -59.805  1.00  0.00     0.001 A 
BRANCH  18  27
HETATM   27  N   UNL     1     -41.860  59.664 -56.017  1.00  0.00    -0.286 NA
HETATM   28  H   UNL     1     -42.109  60.277 -56.790  1.00  0.00     0.125 HD
HETATM   29  H   UNL     1     -42.058  60.103 -55.122  1.00  0.00     0.125 HD
ENDBRANCH  18  27
ENDBRANCH   1  16
TORSDOF 7
ENDMDL
MODEL 6
REMARK VINA RESULT:      -7.5      1.464      1.596
REMARK  7 active torsions:
REMARK  status: ('A' for Active; 'I' for Inactive)
REMARK    1  A    between atoms: C_4  and  C_5 
REMARK    2  A    between atoms: C_5  and  N_6 
REMARK       I    between atoms: N_6  and  C_7 
REMARK    3  A    between atoms: C_7  and  C_8 
REMARK    4  A    between atoms: C_8  and  C_9 
REMARK    5  A    between atoms: C_9  and  N_10 
REMARK    6  A    between atoms: N_10  and  C_11 
REMARK    7  A    between atoms: C_13  and  N_14 
ROOT
HETATM    1  N   UNL     1     -42.610  56.007 -52.054  1.00  0.00    -0.262 NA
HETATM    2  H   UNL     1     -42.776  55.034 -51.776  1.00  0.00     0.130 HD
ENDROOT
BRANCH   1   3
HETATM    3  C   UNL     1     -41.325  56.480 -51.522  1.00  0.00     0.104 C 
BRANCH   3   4
HETATM    4  C   UNL     1     -41.316  56.349 -50.002  1.00  0.00     0.117 C 
BRANCH   4   5
HETATM    5  C   UNL     1     -40.958  54.935 -49.599  1.00  0.00     0.219 C 
HETATM    6  N   UNL     1     -40.372  54.217 -50.611  1.00  0.00    -0.357 N 
HETATM    7  H   UNL     1     -40.337  54.606 -51.544  1.00  0.00     0.162 HD
HETATM    8  O   UNL     1     -41.188  54.497 -48.476  1.00  0.00    -0.274 OA
BRANCH   6   9
HETATM    9  C   UNL     1     -40.062  52.808 -50.481  1.00  0.00     0.161 C 
BRANCH   9  10
HETATM   10  C   UNL     1     -40.056  52.135 -51.830  1.00  0.00    -0.041 A 
HETATM   11  C   UNL     1     -39.587  50.820 -51.970  1.00  0.00     0.009 A 
HETATM   12  C   UNL     1     -39.579  50.199 -53.220  1.00  0.00     0.001 A 
HETATM   13  C   UNL     1     -40.039  50.884 -54.342  1.00  0.00     0.000 A 
HETATM   14  C   UNL     1     -40.503  52.193 -54.217  1.00  0.00     0.001 A 
HETATM   15  C   UNL     1     -40.505  52.818 -52.969  1.00  0.00     0.009 A 
ENDBRANCH   9  10
ENDBRANCH   6   9
ENDBRANCH   4   5
ENDBRANCH   3   4
ENDBRANCH   1   3
BRANCH   1  16
HETATM   16  C   UNL     1     -42.692  55.988 -53.440  1.00  0.00     0.181 A 
HETATM   17  N   UNL     1     -43.122  54.860 -54.022  1.00  0.00    -0.207 NA
HETATM   18  C   UNL     1     -43.259  54.880 -55.358  1.00  0.00     0.116 A 
HETATM   19  C   UNL     1     -42.966  56.012 -56.138  1.00  0.00     0.031 A 
HETATM   20  C   UNL     1     -42.542  57.160 -55.443  1.00  0.00     0.048 A 
HETATM   21  C   UNL     1     -43.062  56.080 -57.547  1.00  0.00     0.017 A 
HETATM   22  N   UNL     1     -42.429  57.105 -54.111  1.00  0.00    -0.330 N 
HETATM   23  C   UNL     1     -42.243  58.344 -56.131  1.00  0.00     0.030 A 
HETATM   24  H   UNL     1     -42.176  57.922 -53.570  1.00  0.00     0.168 HD
HETATM   25  C   UNL     1     -42.354  58.392 -57.521  1.00  0.00     0.002 A 
HETATM   26  C   UNL     1     -42.760  57.263 -58.226  1.00  0.00     0.001 A 
BRANCH  18  27
HETATM   27  N   UNL     1     -43.660  53.679 -55.932  1.00  0.00    -0.286 NA
HETATM   28  H   UNL     1     -43.380  53.644 -56.911  1.00  0.00     0.125 HD
HETATM   29  H   UNL     1     -43.343  52.854 -55.432  1.00  0.00     0.125 HD
ENDBRANCH  18  27
ENDBRANCH   1  16
TORSDOF 7
ENDMDL
MODEL 7
REMARK VINA RESULT:      -7.5      2.609      7.109
REMARK  7 active torsions:
REMARK  status: ('A' for Active; 'I' for Inactive)
REMARK    1  A    between atoms: C_4  and  C_5 
REMARK    2  A    between atoms: C_5  and  N_6 
REMARK       I    between atoms: N_6  and  C_7 
REMARK    3  A    between atoms: C_7  and  C_8 
REMARK    4  A    between atoms: C_8  and  C_9 
REMARK    5  A    between atoms: C_9  and  N_10 
REMARK    6  A    between atoms: N_10  and  C_11 
REMARK    7  A    between atoms: C_13  and  N_14 
ROOT
HETATM    1  N   UNL     1     -40.818  54.707 -55.421  1.00  0.00    -0.262 NA
HETATM    2  H   UNL     1     -40.304  54.302 -56.211  1.00  0.00     0.130 HD
ENDROOT
BRANCH   1   3
HETATM    3  C   UNL     1     -42.248  54.812 -55.739  1.00  0.00     0.104 C 
BRANCH   3   4
HETATM    4  C   UNL     1     -42.629  56.278 -55.927  1.00  0.00     0.117 C 
BRANCH   4   5
HETATM    5  C   UNL     1     -43.347  56.794 -54.698  1.00  0.00     0.219 C 
HETATM    6  N   UNL     1     -42.756  56.401 -53.524  1.00  0.00    -0.357 N 
HETATM    7  H   UNL     1     -42.005  55.724 -53.543  1.00  0.00     0.162 HD
HETATM    8  O   UNL     1     -44.356  57.487 -54.774  1.00  0.00    -0.274 OA
BRANCH   6   9
HETATM    9  C   UNL     1     -43.346  56.680 -52.230  1.00  0.00     0.161 C 
BRANCH   9  10
HETATM   10  C   UNL     1     -42.639  57.826 -51.555  1.00  0.00    -0.041 A 
HETATM   11  C   UNL     1     -41.331  57.672 -51.068  1.00  0.00     0.009 A 
HETATM   12  C   UNL     1     -40.679  58.735 -50.441  1.00  0.00     0.001 A 
HETATM   13  C   UNL     1     -41.323  59.961 -50.294  1.00  0.00     0.000 A 
HETATM   14  C   UNL     1     -42.623  60.125 -50.769  1.00  0.00     0.001 A 
HETATM   15  C   UNL     1     -43.280  59.062 -51.391  1.00  0.00     0.009 A 
ENDBRANCH   9  10
ENDBRANCH   6   9
ENDBRANCH   4   5
ENDBRANCH   3   4
ENDBRANCH   1   3
BRANCH   1  16
HETATM   16  C   UNL     1     -40.522  53.870 -54.353  1.00  0.00     0.181 A 
HETATM   17  N   UNL     1     -40.577  54.394 -53.121  1.00  0.00    -0.207 NA
HETATM   18  C   UNL     1     -40.353  53.557 -52.095  1.00  0.00     0.116 A 
HETATM   19  C   UNL     1     -40.063  52.193 -52.272  1.00  0.00     0.031 A 
HETATM   20  C   UNL     1     -40.047  51.723 -53.599  1.00  0.00     0.048 A 
HETATM   21  C   UNL     1     -39.788  51.274 -51.233  1.00  0.00     0.017 A 
HETATM   22  N   UNL     1     -40.286  52.584 -54.593  1.00  0.00    -0.330 N 
HETATM   23  C   UNL     1     -39.785  50.374 -53.878  1.00  0.00     0.030 A 
HETATM   24  H   UNL     1     -40.333  52.277 -55.556  1.00  0.00     0.168 HD
HETATM   25  C   UNL     1     -39.527  49.483 -52.836  1.00  0.00     0.002 A 
HETATM   26  C   UNL     1     -39.526  49.932 -51.519  1.00  0.00     0.001 A 
BRANCH  18  27
HETATM   27  N   UNL     1     -40.370  54.143 -50.834  1.00  0.00    -0.286 NA
HETATM   28  H   UNL     1     -40.038  53.484 -50.132  1.00  0.00     0.125 HD
HETATM   29  H   UNL     1     -39.864  55.022 -50.779  1.00  0.00     0.125 HD
ENDBRANCH  18  27
ENDBRANCH   1  16
TORSDOF 7
ENDMDL
MODEL 8
REMARK VINA RESULT:      -7.5      2.576      3.586
REMARK  7 active torsions:
REMARK  status: ('A' for Active; 'I' for Inactive)
REMARK    1  A    between atoms: C_4  and  C_5 
REMARK    2  A    between atoms: C_5  and  N_6 
REMARK       I    between atoms: N_6  and  C_7 
REMARK    3  A    between atoms: C_7  and  C_8 
REMARK    4  A    between atoms: C_8  and  C_9 
REMARK    5  A    between atoms: C_9  and  N_10 
REMARK    6  A    between atoms: N_10  and  C_11 
REMARK    7  A    between atoms: C_13  and  N_14 
ROOT
HETATM    1  N   UNL     1     -42.705  58.584 -54.055  1.00  0.00    -0.262 NA
HETATM    2  H   UNL     1     -42.738  57.859 -53.330  1.00  0.00     0.130 HD
ENDROOT
BRANCH   1   3
HETATM    3  C   UNL     1     -41.543  59.459 -53.852  1.00  0.00     0.104 C 
BRANCH   3   4
HETATM    4  C   UNL     1     -40.490  58.736 -53.017  1.00  0.00     0.117 C 
BRANCH   4   5
HETATM    5  C   UNL     1     -41.136  57.651 -52.183  1.00  0.00     0.219 C 
HETATM    6  N   UNL     1     -40.990  56.397 -52.721  1.00  0.00    -0.357 N 
HETATM    7  H   UNL     1     -40.600  56.293 -53.649  1.00  0.00     0.162 HD
HETATM    8  O   UNL     1     -41.732  57.897 -51.139  1.00  0.00    -0.274 OA
BRANCH   6   9
HETATM    9  C   UNL     1     -41.634  55.231 -52.152  1.00  0.00     0.161 C 
BRANCH   9  10
HETATM   10  C   UNL     1     -40.951  53.967 -52.607  1.00  0.00    -0.041 A 
HETATM   11  C   UNL     1     -40.893  53.636 -53.969  1.00  0.00     0.009 A 
HETATM   12  C   UNL     1     -40.262  52.463 -54.388  1.00  0.00     0.001 A 
HETATM   13  C   UNL     1     -39.682  51.610 -53.451  1.00  0.00     0.000 A 
HETATM   14  C   UNL     1     -39.737  51.926 -52.094  1.00  0.00     0.001 A 
HETATM   15  C   UNL     1     -40.374  53.094 -51.674  1.00  0.00     0.009 A 
ENDBRANCH   9  10
ENDBRANCH   6   9
ENDBRANCH   4   5
ENDBRANCH   3   4
ENDBRANCH   1   3
BRANCH   1  16
HETATM   16  C   UNL     1     -42.696  57.876 -55.250  1.00  0.00     0.181 A 
HETATM   17  N   UNL     1     -43.077  56.593 -55.214  1.00  0.00    -0.207 NA
HETATM   18  C   UNL     1     -43.127  55.941 -56.388  1.00  0.00     0.116 A 
HETATM   19  C   UNL     1     -42.792  56.546 -57.611  1.00  0.00     0.031 A 
HETATM   20  C   UNL     1     -42.423  57.904 -57.559  1.00  0.00     0.048 A 
HETATM   21  C   UNL     1     -42.796  55.902 -58.870  1.00  0.00     0.017 A 
HETATM   22  N   UNL     1     -42.397  58.522 -56.373  1.00  0.00    -0.330 N 
HETATM   23  C   UNL     1     -42.090  58.601 -58.728  1.00  0.00     0.030 A 
HETATM   24  H   UNL     1     -42.187  59.509 -56.298  1.00  0.00     0.168 HD
HETATM   25  C   UNL     1     -42.110  57.948 -59.961  1.00  0.00     0.002 A 
HETATM   26  C   UNL     1     -42.459  56.603 -60.030  1.00  0.00     0.001 A 
BRANCH  18  27
HETATM   27  N   UNL     1     -43.480  54.599 -56.308  1.00  0.00    -0.286 NA
HETATM   28  H   UNL     1     -42.787  54.022 -56.780  1.00  0.00     0.125 HD
HETATM   29  H   UNL     1     -43.647  54.269 -55.362  1.00  0.00     0.125 HD
ENDBRANCH  18  27
ENDBRANCH   1  16
TORSDOF 7
ENDMDL
MODEL 9
REMARK VINA RESULT:      -7.5      1.817      2.337
REMARK  7 active torsions:
REMARK  status: ('A' for Active; 'I' for Inactive)
REMARK    1  A    between atoms: C_4  and  C_5 
REMARK    2  A    between atoms: C_5  and  N_6 
REMARK       I    between atoms: N_6  and  C_7 
REMARK    3  A    between atoms: C_7  and  C_8 
REMARK    4  A    between atoms: C_8  and  C_9 
REMARK    5  A    between atoms: C_9  and  N_10 
REMARK    6  A    between atoms: N_10  and  C_11 
REMARK    7  A    between atoms: C_13  and  N_14 
ROOT
HETATM    1  N   UNL     1     -42.217  57.204 -50.685  1.00  0.00    -0.262 NA
HETATM    2  H   UNL     1     -43.098  56.795 -50.356  1.00  0.00     0.130 HD
ENDROOT
BRANCH   1   3
HETATM    3  C   UNL     1     -41.073  56.515 -50.075  1.00  0.00     0.104 C 
BRANCH   3   4
HETATM    4  C   UNL     1     -41.540  55.221 -49.415  1.00  0.00     0.117 C 
BRANCH   4   5
HETATM    5  C   UNL     1     -40.477  54.152 -49.543  1.00  0.00     0.219 C 
HETATM    6  N   UNL     1     -40.872  53.088 -50.314  1.00  0.00    -0.357 N 
HETATM    7  H   UNL     1     -41.833  53.021 -50.620  1.00  0.00     0.162 HD
HETATM    8  O   UNL     1     -39.383  54.250 -48.997  1.00  0.00    -0.274 OA
BRANCH   6   9
HETATM    9  C   UNL     1     -40.057  51.900 -50.468  1.00  0.00     0.161 C 
BRANCH   9  10
HETATM   10  C   UNL     1     -40.000  51.473 -51.912  1.00  0.00    -0.041 A 
HETATM   11  C   UNL     1     -39.661  50.155 -52.255  1.00  0.00     0.009 A 
HETATM   12  C   UNL     1     -39.606  49.762 -53.593  1.00  0.00     0.001 A 
HETATM   13  C   UNL     1     -39.891  50.679 -54.602  1.00  0.00     0.000 A 
HETATM   14  C   UNL     1     -40.226  51.992 -54.275  1.00  0.00     0.001 A 
HETATM   15  C   UNL     1     -40.274  52.389 -52.937  1.00  0.00     0.009 A 
ENDBRANCH   9  10
ENDBRANCH   6   9
ENDBRANCH   4   5
ENDBRANCH   3   4
ENDBRANCH   1   3
BRANCH   1  16
HETATM   16  C   UNL     1     -42.285  57.102 -52.069  1.00  0.00     0.181 A 
HETATM   17  N   UNL     1     -41.907  58.166 -52.789  1.00  0.00    -0.207 NA
HETATM   18  C   UNL     1     -41.914  58.029 -54.125  1.00  0.00     0.116 A 
HETATM   19  C   UNL     1     -42.305  56.841 -54.768  1.00  0.00     0.031 A 
HETATM   20  C   UNL     1     -42.666  55.767 -53.934  1.00  0.00     0.048 A 
HETATM   21  C   UNL     1     -42.363  56.650 -56.168  1.00  0.00     0.017 A 
HETATM   22  N   UNL     1     -42.634  55.938 -52.608  1.00  0.00    -0.330 N 
HETATM   23  C   UNL     1     -43.053  54.534 -54.480  1.00  0.00     0.030 A 
HETATM   24  H   UNL     1     -42.838  55.176 -51.973  1.00  0.00     0.168 HD
HETATM   25  C   UNL     1     -43.093  54.365 -55.864  1.00  0.00     0.002 A 
HETATM   26  C   UNL     1     -42.752  55.421 -56.704  1.00  0.00     0.001 A 
BRANCH  18  27
HETATM   27  N   UNL     1     -41.563  59.167 -54.842  1.00  0.00    -0.286 NA
HETATM   28  H   UNL     1     -42.145  59.955 -54.564  1.00  0.00     0.125 HD
HETATM   29  H   UNL     1     -40.577  59.403 -54.788  1.00  0.00     0.125 HD
ENDBRANCH  18  27
ENDBRANCH   1  16
TORSDOF 7
ENDMDL
MODEL 10
REMARK VINA RESULT:      -7.4      2.637      6.439
REMARK  7 active torsions:
REMARK  status: ('A' for Active; 'I' for Inactive)
REMARK    1  A    between atoms: C_4  and  C_5 
REMARK    2  A    between atoms: C_5  and  N_6 
REMARK       I    between atoms: N_6  and  C_7 
REMARK    3  A    between atoms: C_7  and  C_8 
REMARK    4  A    between atoms: C_8  and  C_9 
REMARK    5  A    between atoms: C_9  and  N_10 
REMARK    6  A    between atoms: N_10  and  C_11 
REMARK    7  A    between atoms: C_13  and  N_14 
ROOT
HETATM    1  N   UNL     1     -41.803  56.960 -51.783  1.00  0.00    -0.262 NA
HETATM    2  H   UNL     1     -42.791  56.808 -51.555  1.00  0.00     0.130 HD
ENDROOT
BRANCH   1   3
HETATM    3  C   UNL     1     -41.033  57.242 -50.564  1.00  0.00     0.104 C 
BRANCH   3   4
HETATM    4  C   UNL     1     -40.569  58.696 -50.570  1.00  0.00     0.117 C 
BRANCH   4   5
HETATM    5  C   UNL     1     -40.674  59.274 -51.965  1.00  0.00     0.219 C 
HETATM    6  N   UNL     1     -41.862  59.923 -52.192  1.00  0.00    -0.357 N 
HETATM    7  H   UNL     1     -42.603  59.865 -51.505  1.00  0.00     0.162 HD
HETATM    8  O   UNL     1     -39.777  59.154 -52.792  1.00  0.00    -0.274 OA
BRANCH   6   9
HETATM    9  C   UNL     1     -42.224  60.443 -53.494  1.00  0.00     0.161 C 
BRANCH   9  10
HETATM   10  C   UNL     1     -42.836  59.364 -54.350  1.00  0.00    -0.041 A 
HETATM   11  C   UNL     1     -42.234  58.983 -55.560  1.00  0.00     0.009 A 
HETATM   12  C   UNL     1     -42.805  57.985 -56.352  1.00  0.00     0.001 A 
HETATM   13  C   UNL     1     -43.980  57.358 -55.945  1.00  0.00     0.000 A 
HETATM   14  C   UNL     1     -44.590  57.731 -54.748  1.00  0.00     0.001 A 
HETATM   15  C   UNL     1     -44.025  58.733 -53.958  1.00  0.00     0.009 A 
ENDBRANCH   9  10
ENDBRANCH   6   9
ENDBRANCH   4   5
ENDBRANCH   3   4
ENDBRANCH   1   3
BRANCH   1  16
HETATM   16  C   UNL     1     -41.422  55.805 -52.455  1.00  0.00     0.181 A 
HETATM   17  N   UNL     1     -41.487  55.816 -53.793  1.00  0.00    -0.207 NA
HETATM   18  C   UNL     1     -41.053  54.717 -54.431  1.00  0.00     0.116 A 
HETATM   19  C   UNL     1     -40.557  53.588 -53.755  1.00  0.00     0.031 A 
HETATM   20  C   UNL     1     -40.505  53.672 -52.350  1.00  0.00     0.048 A 
HETATM   21  C   UNL     1     -40.118  52.394 -54.371  1.00  0.00     0.017 A 
HETATM   22  N   UNL     1     -40.935  54.788 -51.752  1.00  0.00    -0.330 N 
HETATM   23  C   UNL     1     -40.009  52.605 -51.587  1.00  0.00     0.030 A 
HETATM   24  H   UNL     1     -40.867  54.907 -50.750  1.00  0.00     0.168 HD
HETATM   25  C   UNL     1     -39.571  51.440 -52.217  1.00  0.00     0.002 A 
HETATM   26  C   UNL     1     -39.628  51.334 -53.604  1.00  0.00     0.001 A 
BRANCH  18  27
HETATM   27  N   UNL     1     -41.180  54.743 -55.815  1.00  0.00    -0.286 NA
HETATM   28  H   UNL     1     -40.420  55.278 -56.230  1.00  0.00     0.125 HD
HETATM   29  H   UNL     1     -41.256  53.824 -56.242  1.00  0.00     0.125 HD
ENDBRANCH  18  27
ENDBRANCH   1  16
TORSDOF 7
ENDMDL
