MODEL 1
REMARK VINA RESULT:      -7.9      0.000      0.000
REMARK  4 active torsions:
REMARK  status: ('A' for Active; 'I' for Inactive)
REMARK    1  A    between atoms: N_2  and  C_3 
REMARK    2  A    between atoms: C_5  and  C_6 
REMARK    3  A    between atoms: C_6  and  C_7 
REMARK    4  A    between atoms: C_13  and  O_14 
ROOT
HETATM    1  C   UNL     1     -40.515  52.425 -53.418  1.00  0.00     0.113 A 
HETATM    2  N   UNL     1     -41.306  52.887 -54.407  1.00  0.00    -0.223 NA
HETATM    3  C   UNL     1     -42.232  53.838 -54.116  1.00  0.00     0.106 A 
HETATM    4  N   UNL     1     -42.404  54.342 -52.883  1.00  0.00    -0.347 N 
HETATM    5  H   UNL     1     -43.120  55.042 -52.704  1.00  0.00     0.167 HD
HETATM    6  C   UNL     1     -41.611  53.904 -51.909  1.00  0.00     0.020 A 
HETATM    7  C   UNL     1     -40.644  52.943 -52.150  1.00  0.00     0.005 A 
HETATM    8  C   UNL     1     -39.905  52.620 -50.891  1.00  0.00     0.044 C 
HETATM    9  C   UNL     1     -40.271  53.829 -50.008  1.00  0.00     0.011 C 
HETATM   10  C   UNL     1     -41.649  54.324 -50.476  1.00  0.00     0.058 C 
ENDROOT
BRANCH   3  11
HETATM   11  C   UNL     1     -43.133  54.303 -55.226  1.00  0.00     0.085 C 
BRANCH  11  12
HETATM   12  C   UNL     1     -42.528  55.466 -56.019  1.00  0.00     0.021 C 
HETATM   13  C   UNL     1     -42.865  56.839 -55.438  1.00  0.00     0.181 C 
HETATM   14  O   UNL     1     -42.116  57.852 -56.107  1.00  0.00    -0.347 OA
HETATM   15  C   UNL     1     -42.248  57.876 -57.473  1.00  0.00     0.108 A 
HETATM   16  C   UNL     1     -42.680  56.732 -58.176  1.00  0.00    -0.021 A 
HETATM   17  C   UNL     1     -41.901  59.042 -58.175  1.00  0.00     0.102 A 
HETATM   18  C   UNL     1     -43.039  55.458 -57.462  1.00  0.00     0.048 C 
HETATM   19  C   UNL     1     -42.810  56.779 -59.572  1.00  0.00     0.010 A 
HETATM   20  C   UNL     1     -42.486  57.939 -60.267  1.00  0.00     0.003 A 
HETATM   21  C   UNL     1     -42.031  59.056 -59.571  1.00  0.00     0.039 A 
BRANCH  17  22
HETATM   22  O   UNL     1     -41.439  60.234 -57.688  1.00  0.00    -0.353 OA
HETATM   23  C   UNL     1     -41.385  61.360 -58.548  1.00  0.00     0.210 C 
ENDBRANCH  17  22
ENDBRANCH  11  12
ENDBRANCH   3  11
BRANCH   1  24
HETATM   24  N   UNL     1     -39.515  51.497 -53.687  1.00  0.00    -0.281 NA
HETATM   25  C   UNL     1     -39.934  50.268 -54.345  1.00  0.00     0.114 C 
HETATM   26  H   UNL     1     -38.938  51.307 -52.871  1.00  0.00     0.128 HD
ENDBRANCH   1  24
TORSDOF 4
ENDMDL
MODEL 2
REMARK VINA RESULT:      -7.8      1.027      2.428
REMARK  4 active torsions:
REMARK  status: ('A' for Active; 'I' for Inactive)
REMARK    1  A    between atoms: N_2  and  C_3 
REMARK    2  A    between atoms: C_5  and  C_6 
REMARK    3  A    between atoms: C_6  and  C_7 
REMARK    4  A    between atoms: C_13  and  O_14 
ROOT
HETATM    1  C   UNL     1     -40.682  53.557 -51.921  1.00  0.00     0.113 A 
HETATM    2  N   UNL     1     -41.648  54.310 -52.483  1.00  0.00    -0.223 NA
HETATM    3  C   UNL     1     -42.141  53.945 -53.696  1.00  0.00     0.106 A 
HETATM    4  N   UNL     1     -41.708  52.867 -54.370  1.00  0.00    -0.347 N 
HETATM    5  H   UNL     1     -42.092  52.637 -55.284  1.00  0.00     0.167 HD
HETATM    6  C   UNL     1     -40.769  52.110 -53.808  1.00  0.00     0.020 A 
HETATM    7  C   UNL     1     -40.238  52.428 -52.570  1.00  0.00     0.005 A 
HETATM    8  C   UNL     1     -39.198  51.429 -52.176  1.00  0.00     0.044 C 
HETATM    9  C   UNL     1     -39.519  50.267 -53.135  1.00  0.00     0.011 C 
HETATM   10  C   UNL     1     -40.147  50.885 -54.395  1.00  0.00     0.058 C 
ENDROOT
BRANCH   3  11
HETATM   11  C   UNL     1     -43.185  54.826 -54.324  1.00  0.00     0.085 C 
BRANCH  11  12
HETATM   12  C   UNL     1     -42.599  55.748 -55.399  1.00  0.00     0.021 C 
HETATM   13  C   UNL     1     -43.004  57.212 -55.232  1.00  0.00     0.181 C 
HETATM   14  O   UNL     1     -42.273  58.029 -56.145  1.00  0.00    -0.347 OA
HETATM   15  C   UNL     1     -42.365  57.665 -57.464  1.00  0.00     0.108 A 
HETATM   16  C   UNL     1     -42.733  56.353 -57.827  1.00  0.00    -0.021 A 
HETATM   17  C   UNL     1     -42.041  58.603 -58.459  1.00  0.00     0.102 A 
HETATM   18  C   UNL     1     -43.066  55.315 -56.791  1.00  0.00     0.048 C 
HETATM   19  C   UNL     1     -42.823  56.003 -59.182  1.00  0.00     0.010 A 
HETATM   20  C   UNL     1     -42.522  56.936 -60.168  1.00  0.00     0.003 A 
HETATM   21  C   UNL     1     -42.129  58.221 -59.805  1.00  0.00     0.039 A 
BRANCH  17  22
HETATM   22  O   UNL     1     -41.637  59.903 -58.317  1.00  0.00    -0.353 OA
HETATM   23  C   UNL     1     -41.760  60.790 -59.415  1.00  0.00     0.210 C 
ENDBRANCH  17  22
ENDBRANCH  11  12
ENDBRANCH   3  11
BRANCH   1  24
HETATM   24  N   UNL     1     -40.194  53.862 -50.654  1.00  0.00    -0.281 NA
HETATM   25  C   UNL     1     -41.138  54.472 -49.728  1.00  0.00     0.114 C 
HETATM   26  H   UNL     1     -39.320  54.380 -50.694  1.00  0.00     0.128 HD
ENDBRANCH   1  24
TORSDOF 4
ENDMDL
MODEL 3
REMARK VINA RESULT:      -7.8      3.947      5.632
REMARK  4 active torsions:
REMARK  status: ('A' for Active; 'I' for Inactive)
REMARK    1  A    between atoms: N_2  and  C_3 
REMARK    2  A    between atoms: C_5  and  C_6 
REMARK    3  A    between atoms: C_6  and  C_7 
REMARK    4  A    between atoms: C_13  and  O_14 
ROOT
HETATM    1  C   UNL     1     -40.243  52.751 -51.165  1.00  0.00     0.113 A 
HETATM    2  N   UNL     1     -40.612  53.900 -51.765  1.00  0.00    -0.223 NA
HETATM    3  C   UNL     1     -40.609  53.961 -53.123  1.00  0.00     0.106 A 
HETATM    4  N   UNL     1     -40.249  52.929 -53.903  1.00  0.00    -0.347 N 
HETATM    5  H   UNL     1     -40.245  53.021 -54.916  1.00  0.00     0.167 HD
HETATM    6  C   UNL     1     -39.904  51.787 -53.314  1.00  0.00     0.020 A 
HETATM    7  C   UNL     1     -39.898  51.664 -51.936  1.00  0.00     0.005 A 
HETATM    8  C   UNL     1     -39.462  50.291 -51.536  1.00  0.00     0.044 C 
HETATM    9  C   UNL     1     -39.647  49.520 -52.857  1.00  0.00     0.011 C 
HETATM   10  C   UNL     1     -39.462  50.534 -53.997  1.00  0.00     0.058 C 
ENDROOT
BRANCH   3  11
HETATM   11  C   UNL     1     -40.980  55.268 -53.767  1.00  0.00     0.085 C 
BRANCH  11  12
HETATM   12  C   UNL     1     -41.835  56.148 -52.849  1.00  0.00     0.021 C 
HETATM   13  C   UNL     1     -43.185  56.529 -53.456  1.00  0.00     0.181 C 
HETATM   14  O   UNL     1     -43.996  57.179 -52.478  1.00  0.00    -0.347 OA
HETATM   15  C   UNL     1     -43.428  58.272 -51.874  1.00  0.00     0.108 A 
HETATM   16  C   UNL     1     -42.028  58.442 -51.860  1.00  0.00    -0.021 A 
HETATM   17  C   UNL     1     -44.254  59.203 -51.224  1.00  0.00     0.102 A 
HETATM   18  C   UNL     1     -41.109  57.456 -52.526  1.00  0.00     0.048 C 
HETATM   19  C   UNL     1     -41.468  59.568 -51.239  1.00  0.00     0.010 A 
HETATM   20  C   UNL     1     -42.286  60.501 -50.612  1.00  0.00     0.003 A 
HETATM   21  C   UNL     1     -43.666  60.313 -50.602  1.00  0.00     0.039 A 
BRANCH  17  22
HETATM   22  O   UNL     1     -45.617  59.204 -51.099  1.00  0.00    -0.353 OA
HETATM   23  C   UNL     1     -46.360  60.289 -51.629  1.00  0.00     0.210 C 
ENDBRANCH  17  22
ENDBRANCH  11  12
ENDBRANCH   3  11
BRANCH   1  24
HETATM   24  N   UNL     1     -40.291  52.628 -49.780  1.00  0.00    -0.281 NA
HETATM   25  C   UNL     1     -40.301  53.870 -49.021  1.00  0.00     0.114 C 
HETATM   26  H   UNL     1     -39.592  51.980 -49.428  1.00  0.00     0.128 HD
ENDBRANCH   1  24
TORSDOF 4
ENDMDL
MODEL 4
REMARK VINA RESULT:      -7.7      0.869      2.345
REMARK  4 active torsions:
REMARK  status: ('A' for Active; 'I' for Inactive)
REMARK    1  A    between atoms: N_2  and  C_3 
REMARK    2  A    between atoms: C_5  and  C_6 
REMARK    3  A    between atoms: C_6  and  C_7 
REMARK    4  A    between atoms: C_13  and  O_14 
ROOT
HETATM    1  C   UNL     1     -41.822  54.080 -51.971  1.00  0.00     0.113 A 
HETATM    2  N   UNL     1     -42.612  54.464 -52.992  1.00  0.00    -0.223 NA
HETATM    3  C   UNL     1     -42.401  53.926 -54.223  1.00  0.00     0.106 A 
HETATM    4  N   UNL     1     -41.437  53.027 -54.475  1.00  0.00    -0.347 N 
HETATM    5  H   UNL     1     -41.302  52.660 -55.414  1.00  0.00     0.167 HD
HETATM    6  C   UNL     1     -40.669  52.629 -53.464  1.00  0.00     0.020 A 
HETATM    7  C   UNL     1     -40.843  53.136 -52.188  1.00  0.00     0.005 A 
HETATM    8  C   UNL     1     -39.848  52.537 -51.247  1.00  0.00     0.044 C 
HETATM    9  C   UNL     1     -39.380  51.307 -52.048  1.00  0.00     0.011 C 
HETATM   10  C   UNL     1     -39.539  51.654 -53.536  1.00  0.00     0.058 C 
ENDROOT
BRANCH   3  11
HETATM   11  C   UNL     1     -43.265  54.406 -55.356  1.00  0.00     0.085 C 
BRANCH  11  12
HETATM   12  C   UNL     1     -42.621  55.559 -56.132  1.00  0.00     0.021 C 
HETATM   13  C   UNL     1     -42.901  56.933 -55.524  1.00  0.00     0.181 C 
HETATM   14  O   UNL     1     -42.118  57.928 -56.180  1.00  0.00    -0.347 OA
HETATM   15  C   UNL     1     -42.257  57.982 -57.544  1.00  0.00     0.108 A 
HETATM   16  C   UNL     1     -42.737  56.868 -58.265  1.00  0.00    -0.021 A 
HETATM   17  C   UNL     1     -41.871  59.146 -58.228  1.00  0.00     0.102 A 
HETATM   18  C   UNL     1     -43.140  55.596 -57.571  1.00  0.00     0.048 C 
HETATM   19  C   UNL     1     -42.874  56.945 -59.659  1.00  0.00     0.010 A 
HETATM   20  C   UNL     1     -42.510  58.104 -60.335  1.00  0.00     0.003 A 
HETATM   21  C   UNL     1     -42.008  59.190 -59.623  1.00  0.00     0.039 A 
BRANCH  17  22
HETATM   22  O   UNL     1     -41.359  60.311 -57.724  1.00  0.00    -0.353 OA
HETATM   23  C   UNL     1     -42.246  61.349 -57.343  1.00  0.00     0.210 C 
ENDBRANCH  17  22
ENDBRANCH  11  12
ENDBRANCH   3  11
BRANCH   1  24
HETATM   24  N   UNL     1     -42.043  54.561 -50.685  1.00  0.00    -0.281 NA
HETATM   25  C   UNL     1     -41.455  55.855 -50.369  1.00  0.00     0.114 C 
HETATM   26  H   UNL     1     -41.828  53.868 -49.973  1.00  0.00     0.128 HD
ENDBRANCH   1  24
TORSDOF 4
ENDMDL
MODEL 5
REMARK VINA RESULT:      -7.7      2.885      8.217
REMARK  4 active torsions:
REMARK  status: ('A' for Active; 'I' for Inactive)
REMARK    1  A    between atoms: N_2  and  C_3 
REMARK    2  A    between atoms: C_5  and  C_6 
REMARK    3  A    between atoms: C_6  and  C_7 
REMARK    4  A    between atoms: C_13  and  O_14 
ROOT
HETATM    1  C   UNL     1     -42.356  58.573 -56.955  1.00  0.00     0.113 A 
HETATM    2  N   UNL     1     -42.582  57.926 -55.794  1.00  0.00    -0.223 NA
HETATM    3  C   UNL     1     -43.094  56.667 -55.834  1.00  0.00     0.106 A 
HETATM    4  N   UNL     1     -43.391  56.032 -56.980  1.00  0.00    -0.347 N 
HETATM    5  H   UNL     1     -43.788  55.095 -56.966  1.00  0.00     0.167 HD
HETATM    6  C   UNL     1     -43.149  56.660 -58.127  1.00  0.00     0.020 A 
HETATM    7  C   UNL     1     -42.621  57.939 -58.147  1.00  0.00     0.005 A 
HETATM    8  C   UNL     1     -42.460  58.416 -59.555  1.00  0.00     0.044 C 
HETATM    9  C   UNL     1     -42.548  57.089 -60.334  1.00  0.00     0.011 C 
HETATM   10  C   UNL     1     -43.421  56.137 -59.501  1.00  0.00     0.058 C 
ENDROOT
BRANCH   3  11
HETATM   11  C   UNL     1     -43.381  55.984 -54.526  1.00  0.00     0.085 C 
BRANCH  11  12
HETATM   12  C   UNL     1     -42.228  55.080 -54.076  1.00  0.00     0.021 C 
HETATM   13  C   UNL     1     -42.138  53.773 -54.861  1.00  0.00     0.181 C 
HETATM   14  O   UNL     1     -40.938  53.079 -54.522  1.00  0.00    -0.347 OA
HETATM   15  C   UNL     1     -40.758  52.835 -53.183  1.00  0.00     0.108 A 
HETATM   16  C   UNL     1     -41.430  53.607 -52.212  1.00  0.00    -0.021 A 
HETATM   17  C   UNL     1     -39.858  51.834 -52.783  1.00  0.00     0.102 A 
HETATM   18  C   UNL     1     -42.385  54.702 -52.601  1.00  0.00     0.048 C 
HETATM   19  C   UNL     1     -41.233  53.339 -50.850  1.00  0.00     0.010 A 
HETATM   20  C   UNL     1     -40.357  52.336 -50.452  1.00  0.00     0.003 A 
HETATM   21  C   UNL     1     -39.673  51.597 -51.414  1.00  0.00     0.039 A 
BRANCH  17  22
HETATM   22  O   UNL     1     -39.094  51.004 -53.558  1.00  0.00    -0.353 OA
HETATM   23  C   UNL     1     -39.707  49.901 -54.203  1.00  0.00     0.210 C 
ENDBRANCH  17  22
ENDBRANCH  11  12
ENDBRANCH   3  11
BRANCH   1  24
HETATM   24  N   UNL     1     -41.777  59.837 -56.958  1.00  0.00    -0.281 NA
HETATM   25  C   UNL     1     -42.506  60.883 -56.256  1.00  0.00     0.114 C 
HETATM   26  H   UNL     1     -41.505  60.132 -57.893  1.00  0.00     0.128 HD
ENDBRANCH   1  24
TORSDOF 4
ENDMDL
MODEL 6
REMARK VINA RESULT:      -7.6      2.893      7.654
REMARK  4 active torsions:
REMARK  status: ('A' for Active; 'I' for Inactive)
REMARK    1  A    between atoms: N_2  and  C_3 
REMARK    2  A    between atoms: C_5  and  C_6 
REMARK    3  A    between atoms: C_6  and  C_7 
REMARK    4  A    between atoms: C_13  and  O_14 
ROOT
HETATM    1  C   UNL     1     -42.395  58.583 -56.813  1.00  0.00     0.113 A 
HETATM    2  N   UNL     1     -42.971  58.129 -55.682  1.00  0.00    -0.223 NA
HETATM    3  C   UNL     1     -43.637  56.944 -55.715  1.00  0.00     0.106 A 
HETATM    4  N   UNL     1     -43.754  56.200 -56.827  1.00  0.00    -0.347 N 
HETATM    5  H   UNL     1     -44.275  55.326 -56.813  1.00  0.00     0.167 HD
HETATM    6  C   UNL     1     -43.169  56.635 -57.939  1.00  0.00     0.020 A 
HETATM    7  C   UNL     1     -42.470  57.830 -57.962  1.00  0.00     0.005 A 
HETATM    8  C   UNL     1     -41.925  58.090 -59.329  1.00  0.00     0.044 C 
HETATM    9  C   UNL     1     -42.024  56.690 -59.965  1.00  0.00     0.011 C 
HETATM   10  C   UNL     1     -43.192  55.967 -59.275  1.00  0.00     0.058 C 
ENDROOT
BRANCH   3  11
HETATM   11  C   UNL     1     -44.310  56.482 -54.453  1.00  0.00     0.085 C 
BRANCH  11  12
HETATM   12  C   UNL     1     -43.452  55.487 -53.665  1.00  0.00     0.021 C 
HETATM   13  C   UNL     1     -42.323  56.150 -52.877  1.00  0.00     0.181 C 
HETATM   14  O   UNL     1     -41.694  55.193 -52.024  1.00  0.00    -0.347 OA
HETATM   15  C   UNL     1     -41.229  54.064 -52.650  1.00  0.00     0.108 A 
HETATM   16  C   UNL     1     -41.746  53.667 -53.901  1.00  0.00    -0.021 A 
HETATM   17  C   UNL     1     -40.261  53.274 -52.008  1.00  0.00     0.102 A 
HETATM   18  C   UNL     1     -42.798  54.475 -54.609  1.00  0.00     0.048 C 
HETATM   19  C   UNL     1     -41.254  52.510 -54.524  1.00  0.00     0.010 A 
HETATM   20  C   UNL     1     -40.282  51.737 -53.899  1.00  0.00     0.003 A 
HETATM   21  C   UNL     1     -39.797  52.116 -52.650  1.00  0.00     0.039 A 
BRANCH  17  22
HETATM   22  O   UNL     1     -39.661  53.466 -50.794  1.00  0.00    -0.353 OA
HETATM   23  C   UNL     1     -40.382  53.168 -49.610  1.00  0.00     0.210 C 
ENDBRANCH  17  22
ENDBRANCH  11  12
ENDBRANCH   3  11
BRANCH   1  24
HETATM   24  N   UNL     1     -41.654  59.760 -56.806  1.00  0.00    -0.281 NA
HETATM   25  C   UNL     1     -42.408  60.999 -56.923  1.00  0.00     0.114 C 
HETATM   26  H   UNL     1     -40.878  59.730 -57.463  1.00  0.00     0.128 HD
ENDBRANCH   1  24
TORSDOF 4
ENDMDL
MODEL 7
REMARK VINA RESULT:      -7.5     14.806     16.699
REMARK  4 active torsions:
REMARK  status: ('A' for Active; 'I' for Inactive)
REMARK    1  A    between atoms: N_2  and  C_3 
REMARK    2  A    between atoms: C_5  and  C_6 
REMARK    3  A    between atoms: C_6  and  C_7 
REMARK    4  A    between atoms: C_13  and  O_14 
ROOT
HETATM    1  C   UNL     1     -34.170  41.126 -54.858  1.00  0.00     0.113 A 
HETATM    2  N   UNL     1     -34.980  41.513 -55.863  1.00  0.00    -0.223 NA
HETATM    3  C   UNL     1     -36.260  41.870 -55.573  1.00  0.00     0.106 A 
HETATM    4  N   UNL     1     -36.762  41.854 -54.328  1.00  0.00    -0.347 N 
HETATM    5  H   UNL     1     -37.730  42.114 -54.155  1.00  0.00     0.167 HD
HETATM    6  C   UNL     1     -35.958  41.493 -53.331  1.00  0.00     0.020 A 
HETATM    7  C   UNL     1     -34.644  41.128 -53.566  1.00  0.00     0.005 A 
HETATM    8  C   UNL     1     -33.968  40.757 -52.285  1.00  0.00     0.044 C 
HETATM    9  C   UNL     1     -34.925  41.378 -51.249  1.00  0.00     0.011 C 
HETATM   10  C   UNL     1     -36.324  41.396 -51.886  1.00  0.00     0.058 C 
ENDROOT
BRANCH   3  11
HETATM   11  C   UNL     1     -37.157  42.253 -56.717  1.00  0.00     0.085 C 
BRANCH  11  12
HETATM   12  C   UNL     1     -37.054  41.274 -57.891  1.00  0.00     0.021 C 
HETATM   13  C   UNL     1     -37.399  41.904 -59.240  1.00  0.00     0.181 C 
HETATM   14  O   UNL     1     -37.096  40.995 -60.297  1.00  0.00    -0.347 OA
HETATM   15  C   UNL     1     -37.680  39.757 -60.195  1.00  0.00     0.108 A 
HETATM   16  C   UNL     1     -38.126  39.271 -58.948  1.00  0.00    -0.021 A 
HETATM   17  C   UNL     1     -37.787  38.952 -61.340  1.00  0.00     0.102 A 
HETATM   18  C   UNL     1     -38.009  40.094 -57.695  1.00  0.00     0.048 C 
HETATM   19  C   UNL     1     -38.722  38.004 -58.866  1.00  0.00     0.010 A 
HETATM   20  C   UNL     1     -38.847  37.214 -60.003  1.00  0.00     0.003 A 
HETATM   21  C   UNL     1     -38.377  37.685 -61.226  1.00  0.00     0.039 A 
BRANCH  17  22
HETATM   22  O   UNL     1     -37.392  39.223 -62.622  1.00  0.00    -0.353 OA
HETATM   23  C   UNL     1     -37.149  38.148 -63.514  1.00  0.00     0.210 C 
ENDBRANCH  17  22
ENDBRANCH  11  12
ENDBRANCH   3  11
BRANCH   1  24
HETATM   24  N   UNL     1     -32.838  40.811 -55.105  1.00  0.00    -0.281 NA
HETATM   25  C   UNL     1     -32.516  40.377 -56.456  1.00  0.00     0.114 C 
HETATM   26  H   UNL     1     -32.458  40.176 -54.407  1.00  0.00     0.128 HD
ENDBRANCH   1  24
TORSDOF 4
ENDMDL
MODEL 8
REMARK VINA RESULT:      -7.4      4.294      7.622
REMARK  4 active torsions:
REMARK  status: ('A' for Active; 'I' for Inactive)
REMARK    1  A    between atoms: N_2  and  C_3 
REMARK    2  A    between atoms: C_5  and  C_6 
REMARK    3  A    between atoms: C_6  and  C_7 
REMARK    4  A    between atoms: C_13  and  O_14 
ROOT
HETATM    1  C   UNL     1     -42.282  59.124 -51.948  1.00  0.00     0.113 A 
HETATM    2  N   UNL     1     -42.389  58.076 -52.788  1.00  0.00    -0.223 NA
HETATM    3  C   UNL     1     -43.584  57.435 -52.888  1.00  0.00     0.106 A 
HETATM    4  N   UNL     1     -44.670  57.794 -52.184  1.00  0.00    -0.347 N 
HETATM    5  H   UNL     1     -45.542  57.279 -52.276  1.00  0.00     0.167 HD
HETATM    6  C   UNL     1     -44.573  58.842 -51.370  1.00  0.00     0.020 A 
HETATM    7  C   UNL     1     -43.384  59.538 -51.235  1.00  0.00     0.005 A 
HETATM    8  C   UNL     1     -43.541  60.655 -50.255  1.00  0.00     0.044 C 
HETATM    9  C   UNL     1     -45.075  60.781 -50.185  1.00  0.00     0.011 C 
HETATM   10  C   UNL     1     -45.653  59.391 -50.495  1.00  0.00     0.058 C 
ENDROOT
BRANCH   3  11
HETATM   11  C   UNL     1     -43.666  56.240 -53.796  1.00  0.00     0.085 C 
BRANCH  11  12
HETATM   12  C   UNL     1     -42.469  55.298 -53.628  1.00  0.00     0.021 C 
HETATM   13  C   UNL     1     -42.501  54.099 -54.575  1.00  0.00     0.181 C 
HETATM   14  O   UNL     1     -41.271  53.380 -54.496  1.00  0.00    -0.347 OA
HETATM   15  C   UNL     1     -40.908  52.972 -53.238  1.00  0.00     0.108 A 
HETATM   16  C   UNL     1     -41.430  53.611 -52.093  1.00  0.00    -0.021 A 
HETATM   17  C   UNL     1     -39.968  51.938 -53.096  1.00  0.00     0.102 A 
HETATM   18  C   UNL     1     -42.421  54.737 -52.204  1.00  0.00     0.048 C 
HETATM   19  C   UNL     1     -41.046  53.177 -50.816  1.00  0.00     0.010 A 
HETATM   20  C   UNL     1     -40.131  52.141 -50.674  1.00  0.00     0.003 A 
HETATM   21  C   UNL     1     -39.595  51.533 -51.806  1.00  0.00     0.039 A 
BRANCH  17  22
HETATM   22  O   UNL     1     -39.328  51.218 -54.068  1.00  0.00    -0.353 OA
HETATM   23  C   UNL     1     -39.794  49.919 -54.388  1.00  0.00     0.210 C 
ENDBRANCH  17  22
ENDBRANCH  11  12
ENDBRANCH   3  11
BRANCH   1  24
HETATM   24  N   UNL     1     -41.094  59.843 -51.862  1.00  0.00    -0.281 NA
HETATM   25  C   UNL     1     -39.930  59.113 -51.381  1.00  0.00     0.114 C 
HETATM   26  H   UNL     1     -41.213  60.724 -51.369  1.00  0.00     0.128 HD
ENDBRANCH   1  24
TORSDOF 4
ENDMDL
MODEL 9
REMARK VINA RESULT:      -7.3      3.753      5.686
REMARK  4 active torsions:
REMARK  status: ('A' for Active; 'I' for Inactive)
REMARK    1  A    between atoms: N_2  and  C_3 
REMARK    2  A    between atoms: C_5  and  C_6 
REMARK    3  A    between atoms: C_6  and  C_7 
REMARK    4  A    between atoms: C_13  and  O_14 
ROOT
HETATM    1  C   UNL     1     -40.317  52.966 -53.593  1.00  0.00     0.113 A 
HETATM    2  N   UNL     1     -40.438  53.929 -52.658  1.00  0.00    -0.223 NA
HETATM    3  C   UNL     1     -40.320  53.590 -51.347  1.00  0.00     0.106 A 
HETATM    4  N   UNL     1     -40.091  52.333 -50.933  1.00  0.00    -0.347 N 
HETATM    5  H   UNL     1     -40.026  52.118 -49.940  1.00  0.00     0.167 HD
HETATM    6  C   UNL     1     -39.950  51.384 -51.853  1.00  0.00     0.020 A 
HETATM    7  C   UNL     1     -40.051  51.673 -53.203  1.00  0.00     0.005 A 
HETATM    8  C   UNL     1     -39.867  50.433 -54.018  1.00  0.00     0.044 C 
HETATM    9  C   UNL     1     -39.213  49.491 -52.989  1.00  0.00     0.011 C 
HETATM   10  C   UNL     1     -39.707  49.931 -51.601  1.00  0.00     0.058 C 
ENDROOT
BRANCH   3  11
HETATM   11  C   UNL     1     -40.505  54.674 -50.322  1.00  0.00     0.085 C 
BRANCH  11  12
HETATM   12  C   UNL     1     -41.190  55.915 -50.905  1.00  0.00     0.021 C 
HETATM   13  C   UNL     1     -40.721  57.223 -50.269  1.00  0.00     0.181 C 
HETATM   14  O   UNL     1     -41.252  58.335 -50.988  1.00  0.00    -0.347 OA
HETATM   15  C   UNL     1     -42.617  58.346 -51.129  1.00  0.00     0.108 A 
HETATM   16  C   UNL     1     -43.364  57.156 -51.011  1.00  0.00    -0.021 A 
HETATM   17  C   UNL     1     -43.264  59.553 -51.442  1.00  0.00     0.102 A 
HETATM   18  C   UNL     1     -42.705  55.841 -50.699  1.00  0.00     0.048 C 
HETATM   19  C   UNL     1     -44.759  57.190 -51.157  1.00  0.00     0.010 A 
HETATM   20  C   UNL     1     -45.403  58.387 -51.448  1.00  0.00     0.003 A 
HETATM   21  C   UNL     1     -44.658  59.555 -51.593  1.00  0.00     0.039 A 
BRANCH  17  22
HETATM   22  O   UNL     1     -42.724  60.796 -51.626  1.00  0.00    -0.353 OA
HETATM   23  C   UNL     1     -42.622  61.678 -50.521  1.00  0.00     0.210 C 
ENDBRANCH  17  22
ENDBRANCH  11  12
ENDBRANCH   3  11
BRANCH   1  24
HETATM   24  N   UNL     1     -40.371  53.282 -54.946  1.00  0.00    -0.281 NA
HETATM   25  C   UNL     1     -41.120  54.478 -55.301  1.00  0.00     0.114 C 
HETATM   26  H   UNL     1     -40.645  52.485 -55.516  1.00  0.00     0.128 HD
ENDBRANCH   1  24
TORSDOF 4
ENDMDL
MODEL 10
REMARK VINA RESULT:      -7.2      2.027      3.830
REMARK  4 active torsions:
REMARK  status: ('A' for Active; 'I' for Inactive)
REMARK    1  A    between atoms: N_2  and  C_3 
REMARK    2  A    between atoms: C_5  and  C_6 
REMARK    3  A    between atoms: C_6  and  C_7 
REMARK    4  A    between atoms: C_13  and  O_14 
ROOT
HETATM    1  C   UNL     1     -43.137  55.677 -54.029  1.00  0.00     0.113 A 
HETATM    2  N   UNL     1     -43.568  56.208 -55.190  1.00  0.00    -0.223 NA
HETATM    3  C   UNL     1     -42.853  55.976 -56.323  1.00  0.00     0.106 A 
HETATM    4  N   UNL     1     -41.728  55.242 -56.343  1.00  0.00    -0.347 N 
HETATM    5  H   UNL     1     -41.213  55.105 -57.209  1.00  0.00     0.167 HD
HETATM    6  C   UNL     1     -41.312  54.699 -55.202  1.00  0.00     0.020 A 
HETATM    7  C   UNL     1     -42.005  54.894 -54.020  1.00  0.00     0.005 A 
HETATM    8  C   UNL     1     -41.322  54.190 -52.892  1.00  0.00     0.044 C 
HETATM    9  C   UNL     1     -40.408  53.213 -53.656  1.00  0.00     0.011 C 
HETATM   10  C   UNL     1     -40.086  53.866 -55.010  1.00  0.00     0.058 C 
ENDROOT
BRANCH   3  11
HETATM   11  C   UNL     1     -43.328  56.617 -57.597  1.00  0.00     0.085 C 
BRANCH  11  12
HETATM   12  C   UNL     1     -42.454  57.806 -58.012  1.00  0.00     0.021 C 
HETATM   13  C   UNL     1     -42.557  58.998 -57.062  1.00  0.00     0.181 C 
HETATM   14  O   UNL     1     -41.580  59.981 -57.401  1.00  0.00    -0.347 OA
HETATM   15  C   UNL     1     -41.609  60.415 -58.702  1.00  0.00     0.108 A 
HETATM   16  C   UNL     1     -42.205  59.630 -59.711  1.00  0.00    -0.021 A 
HETATM   17  C   UNL     1     -40.994  61.633 -59.033  1.00  0.00     0.102 A 
HETATM   18  C   UNL     1     -42.854  58.309 -59.401  1.00  0.00     0.048 C 
HETATM   19  C   UNL     1     -42.225  60.093 -61.035  1.00  0.00     0.010 A 
HETATM   20  C   UNL     1     -41.634  61.309 -61.361  1.00  0.00     0.003 A 
HETATM   21  C   UNL     1     -41.020  62.066 -60.366  1.00  0.00     0.039 A 
BRANCH  17  22
HETATM   22  O   UNL     1     -40.344  62.518 -58.216  1.00  0.00    -0.353 OA
HETATM   23  C   UNL     1     -39.992  63.796 -58.720  1.00  0.00     0.210 C 
ENDBRANCH  17  22
ENDBRANCH  11  12
ENDBRANCH   3  11
BRANCH   1  24
HETATM   24  N   UNL     1     -43.872  55.841 -52.860  1.00  0.00    -0.281 NA
HETATM   25  C   UNL     1     -43.558  57.014 -52.058  1.00  0.00     0.114 C 
HETATM   26  H   UNL     1     -43.891  54.995 -52.296  1.00  0.00     0.128 HD
ENDBRANCH   1  24
TORSDOF 4
ENDMDL
