MODEL 1
REMARK VINA RESULT:      -8.7      0.000      0.000
REMARK  8 active torsions:
REMARK  status: ('A' for Active; 'I' for Inactive)
REMARK    1  A    between atoms: C_2  and  N_3 
REMARK       I    between atoms: N_3  and  C_4 
REMARK       I    between atoms: C_4  and  N_5 
REMARK    2  A    between atoms: N_5  and  C_6 
REMARK    3  A    between atoms: N_5  and  C_21 
REMARK    4  A    between atoms: C_6  and  C_7 
REMARK    5  A    between atoms: C_8  and  O_9 
REMARK    6  A    between atoms: C_21  and  C_22 
REMARK    7  A    between atoms: C_22  and  C_23 
REMARK    8  A    between atoms: C_23  and  N_24 
ROOT
HETATM    1  N   UNL     1     -40.816  54.290 -52.566  1.00  0.00    -0.309 N 
HETATM    2  C   UNL     1     -42.030  54.743 -52.110  1.00  0.00     0.323 C 
HETATM    3  N   UNL     1     -42.250  56.121 -52.260  1.00  0.00    -0.330 N 
HETATM    4  O   UNL     1     -42.900  54.037 -51.604  1.00  0.00    -0.247 OA
HETATM    5  H   UNL     1     -40.060  54.958 -52.564  1.00  0.00     0.170 HD
ENDROOT
BRANCH   3   6
HETATM    6  C   UNL     1     -41.332  56.999 -53.002  1.00  0.00     0.170 C 
BRANCH   6   7
HETATM    7  C   UNL     1     -41.721  57.326 -54.416  1.00  0.00     0.013 A 
HETATM    8  C   UNL     1     -41.790  58.617 -54.928  1.00  0.00     0.170 A 
HETATM    9  N   UNL     1     -42.156  58.923 -56.186  1.00  0.00    -0.224 NA
HETATM   10  C   UNL     1     -42.583  57.930 -56.985  1.00  0.00     0.072 A 
HETATM   11  C   UNL     1     -42.595  56.576 -56.556  1.00  0.00    -0.004 A 
HETATM   12  C   UNL     1     -43.049  58.225 -58.262  1.00  0.00     0.072 A 
HETATM   13  C   UNL     1     -42.140  56.295 -55.263  1.00  0.00     0.027 A 
HETATM   14  C   UNL     1     -43.067  55.549 -57.394  1.00  0.00     0.053 A 
HETATM   15  C   UNL     1     -43.531  55.901 -58.639  1.00  0.00     0.106 A 
HETATM   16  C   UNL     1     -43.522  57.204 -59.062  1.00  0.00     0.107 A 
HETATM   17  O   UNL     1     -44.045  55.052 -59.565  1.00  0.00    -0.323 OA
HETATM   18  O   UNL     1     -44.031  57.342 -60.315  1.00  0.00    -0.323 OA
HETATM   19  C   UNL     1     -44.396  55.978 -60.617  1.00  0.00     0.352 A 
BRANCH   8  20
HETATM   20  O   UNL     1     -41.445  59.709 -54.182  1.00  0.00    -0.344 OA
HETATM   21  H   UNL     1     -41.237  60.422 -54.807  1.00  0.00     0.219 HD
ENDBRANCH   8  20
ENDBRANCH   6   7
ENDBRANCH   3   6
BRANCH   3  22
HETATM   22  C   UNL     1     -43.174  56.737 -51.293  1.00  0.00     0.129 C 
BRANCH  22  23
HETATM   23  C   UNL     1     -44.480  57.311 -51.868  1.00  0.00     0.048 C 
BRANCH  23  24
HETATM   24  C   UNL     1     -45.053  58.465 -51.054  1.00  0.00     0.236 C 
BRANCH  24  25
HETATM   25  N   UNL     1     -44.907  59.788 -51.781  1.00  0.00    -0.067 N 
HETATM   26  H   UNL     1     -45.685  60.395 -51.497  1.00  0.00     0.280 HD
HETATM   27  C   UNL     1     -43.600  60.519 -51.471  1.00  0.00     0.261 C 
HETATM   28  C   UNL     1     -43.538  61.816 -52.290  1.00  0.00     0.195 C 
HETATM   29  O   UNL     1     -43.651  61.553 -53.693  1.00  0.00    -0.388 OA
HETATM   30  C   UNL     1     -44.892  60.918 -54.016  1.00  0.00     0.195 C 
HETATM   31  C   UNL     1     -45.025  59.576 -53.294  1.00  0.00     0.261 C 
ENDBRANCH  24  25
ENDBRANCH  23  24
ENDBRANCH  22  23
ENDBRANCH   3  22
BRANCH   1  32
HETATM   32  C   UNL     1     -40.392  52.946 -52.674  1.00  0.00     0.036 A 
HETATM   33  C   UNL     1     -39.894  52.198 -51.603  1.00  0.00     0.032 A 
HETATM   34  C   UNL     1     -39.495  50.872 -51.795  1.00  0.00     0.044 A 
HETATM   35  C   UNL     1     -39.603  50.293 -53.054  1.00  0.00     0.116 A 
HETATM   36  C   UNL     1     -40.108  51.016 -54.126  1.00  0.00     0.044 A 
HETATM   37  F   UNL     1     -39.218  49.024 -53.234  1.00  0.00    -0.206 F 
HETATM   38  C   UNL     1     -40.506  52.341 -53.935  1.00  0.00     0.032 A 
ENDBRANCH   1  32
TORSDOF 8
ENDMDL
MODEL 2
REMARK VINA RESULT:      -8.6      1.000      1.327
REMARK  8 active torsions:
REMARK  status: ('A' for Active; 'I' for Inactive)
REMARK    1  A    between atoms: C_2  and  N_3 
REMARK       I    between atoms: N_3  and  C_4 
REMARK       I    between atoms: C_4  and  N_5 
REMARK    2  A    between atoms: N_5  and  C_6 
REMARK    3  A    between atoms: N_5  and  C_21 
REMARK    4  A    between atoms: C_6  and  C_7 
REMARK    5  A    between atoms: C_8  and  O_9 
REMARK    6  A    between atoms: C_21  and  C_22 
REMARK    7  A    between atoms: C_22  and  C_23 
REMARK    8  A    between atoms: C_23  and  N_24 
ROOT
HETATM    1  N   UNL     1     -40.858  54.263 -52.607  1.00  0.00    -0.309 N 
HETATM    2  C   UNL     1     -42.087  54.704 -52.179  1.00  0.00     0.323 C 
HETATM    3  N   UNL     1     -42.321  56.078 -52.345  1.00  0.00    -0.330 N 
HETATM    4  O   UNL     1     -42.956  53.991 -51.683  1.00  0.00    -0.247 OA
HETATM    5  H   UNL     1     -40.111  54.942 -52.598  1.00  0.00     0.170 HD
ENDROOT
BRANCH   3   6
HETATM    6  C   UNL     1     -41.402  56.961 -53.077  1.00  0.00     0.170 C 
BRANCH   6   7
HETATM    7  C   UNL     1     -41.775  57.282 -54.497  1.00  0.00     0.013 A 
HETATM    8  C   UNL     1     -41.825  58.569 -55.019  1.00  0.00     0.170 A 
HETATM    9  N   UNL     1     -42.176  58.868 -56.283  1.00  0.00    -0.224 NA
HETATM   10  C   UNL     1     -42.607  57.873 -57.078  1.00  0.00     0.072 A 
HETATM   11  C   UNL     1     -42.638  56.523 -56.639  1.00  0.00    -0.004 A 
HETATM   12  C   UNL     1     -43.059  58.164 -58.361  1.00  0.00     0.072 A 
HETATM   13  C   UNL     1     -42.197  56.248 -55.339  1.00  0.00     0.027 A 
HETATM   14  C   UNL     1     -43.113  55.495 -57.473  1.00  0.00     0.053 A 
HETATM   15  C   UNL     1     -43.563  55.842 -58.724  1.00  0.00     0.106 A 
HETATM   16  C   UNL     1     -43.536  57.141 -59.158  1.00  0.00     0.107 A 
HETATM   17  O   UNL     1     -44.078  54.991 -59.648  1.00  0.00    -0.323 OA
HETATM   18  O   UNL     1     -44.032  57.274 -60.416  1.00  0.00    -0.323 OA
HETATM   19  C   UNL     1     -44.409  55.912 -60.711  1.00  0.00     0.352 A 
BRANCH   8  20
HETATM   20  O   UNL     1     -41.475  59.663 -54.279  1.00  0.00    -0.344 OA
HETATM   21  H   UNL     1     -42.301  60.077 -53.982  1.00  0.00     0.219 HD
ENDBRANCH   8  20
ENDBRANCH   6   7
ENDBRANCH   3   6
BRANCH   3  22
HETATM   22  C   UNL     1     -43.273  56.689 -51.400  1.00  0.00     0.129 C 
BRANCH  22  23
HETATM   23  C   UNL     1     -44.272  57.695 -51.996  1.00  0.00     0.048 C 
BRANCH  23  24
HETATM   24  C   UNL     1     -45.128  58.400 -50.949  1.00  0.00     0.236 C 
BRANCH  24  25
HETATM   25  N   UNL     1     -44.383  59.552 -50.303  1.00  0.00    -0.067 N 
HETATM   26  H   UNL     1     -43.799  59.171 -49.550  1.00  0.00     0.280 HD
HETATM   27  C   UNL     1     -43.474  60.314 -51.268  1.00  0.00     0.261 C 
HETATM   28  C   UNL     1     -42.807  61.479 -50.523  1.00  0.00     0.195 C 
HETATM   29  O   UNL     1     -43.783  62.356 -49.948  1.00  0.00    -0.388 OA
HETATM   30  C   UNL     1     -44.612  61.678 -48.999  1.00  0.00     0.195 C 
HETATM   31  C   UNL     1     -45.374  60.528 -49.661  1.00  0.00     0.261 C 
ENDBRANCH  24  25
ENDBRANCH  23  24
ENDBRANCH  22  23
ENDBRANCH   3  22
BRANCH   1  32
HETATM   32  C   UNL     1     -40.413  52.925 -52.696  1.00  0.00     0.036 A 
HETATM   33  C   UNL     1     -39.906  52.200 -51.614  1.00  0.00     0.032 A 
HETATM   34  C   UNL     1     -39.487  50.877 -51.786  1.00  0.00     0.044 A 
HETATM   35  C   UNL     1     -39.585  50.279 -53.036  1.00  0.00     0.116 A 
HETATM   36  C   UNL     1     -40.098  50.978 -54.119  1.00  0.00     0.044 A 
HETATM   37  F   UNL     1     -39.180  49.013 -53.198  1.00  0.00    -0.206 F 
HETATM   38  C   UNL     1     -40.517  52.300 -53.948  1.00  0.00     0.032 A 
ENDBRANCH   1  32
TORSDOF 8
ENDMDL
MODEL 3
REMARK VINA RESULT:      -8.5      2.215      6.696
REMARK  8 active torsions:
REMARK  status: ('A' for Active; 'I' for Inactive)
REMARK    1  A    between atoms: C_2  and  N_3 
REMARK       I    between atoms: N_3  and  C_4 
REMARK       I    between atoms: C_4  and  N_5 
REMARK    2  A    between atoms: N_5  and  C_6 
REMARK    3  A    between atoms: N_5  and  C_21 
REMARK    4  A    between atoms: C_6  and  C_7 
REMARK    5  A    between atoms: C_8  and  O_9 
REMARK    6  A    between atoms: C_21  and  C_22 
REMARK    7  A    between atoms: C_22  and  C_23 
REMARK    8  A    between atoms: C_23  and  N_24 
ROOT
HETATM    1  N   UNL     1     -41.963  54.355 -53.797  1.00  0.00    -0.309 N 
HETATM    2  C   UNL     1     -41.522  55.414 -54.552  1.00  0.00     0.323 C 
HETATM    3  N   UNL     1     -42.516  56.318 -54.956  1.00  0.00    -0.330 N 
HETATM    4  O   UNL     1     -40.352  55.607 -54.877  1.00  0.00    -0.247 OA
HETATM    5  H   UNL     1     -42.922  54.072 -53.940  1.00  0.00     0.170 HD
ENDROOT
BRANCH   3   6
HETATM    6  C   UNL     1     -43.903  56.247 -54.471  1.00  0.00     0.170 C 
BRANCH   6   7
HETATM    7  C   UNL     1     -44.259  57.161 -53.333  1.00  0.00     0.013 A 
HETATM    8  C   UNL     1     -44.246  56.783 -51.996  1.00  0.00     0.170 A 
HETATM    9  N   UNL     1     -44.581  57.587 -50.970  1.00  0.00    -0.224 NA
HETATM   10  C   UNL     1     -45.058  58.813 -51.251  1.00  0.00     0.072 A 
HETATM   11  C   UNL     1     -45.155  59.292 -52.584  1.00  0.00    -0.004 A 
HETATM   12  C   UNL     1     -45.495  59.635 -50.217  1.00  0.00     0.072 A 
HETATM   13  C   UNL     1     -44.729  58.447 -53.615  1.00  0.00     0.027 A 
HETATM   14  C   UNL     1     -45.678  60.567 -52.865  1.00  0.00     0.053 A 
HETATM   15  C   UNL     1     -46.109  61.330 -51.807  1.00  0.00     0.106 A 
HETATM   16  C   UNL     1     -46.019  60.877 -50.516  1.00  0.00     0.107 A 
HETATM   17  O   UNL     1     -46.663  62.567 -51.891  1.00  0.00    -0.323 OA
HETATM   18  O   UNL     1     -46.507  61.775 -49.620  1.00  0.00    -0.323 OA
HETATM   19  C   UNL     1     -46.949  62.832 -50.500  1.00  0.00     0.352 A 
BRANCH   8  20
HETATM   20  O   UNL     1     -43.845  55.538 -51.600  1.00  0.00    -0.344 OA
HETATM   21  H   UNL     1     -44.646  55.053 -51.344  1.00  0.00     0.219 HD
ENDBRANCH   8  20
ENDBRANCH   6   7
ENDBRANCH   3   6
BRANCH   3  22
HETATM   22  C   UNL     1     -42.250  57.058 -56.202  1.00  0.00     0.129 C 
BRANCH  22  23
HETATM   23  C   UNL     1     -42.877  56.484 -57.483  1.00  0.00     0.048 C 
BRANCH  23  24
HETATM   24  C   UNL     1     -44.130  57.224 -57.936  1.00  0.00     0.236 C 
BRANCH  24  25
HETATM   25  N   UNL     1     -44.980  56.370 -58.857  1.00  0.00    -0.067 N 
HETATM   26  H   UNL     1     -45.632  55.828 -58.278  1.00  0.00     0.280 HD
HETATM   27  C   UNL     1     -45.803  57.181 -59.860  1.00  0.00     0.261 C 
HETATM   28  C   UNL     1     -46.587  56.221 -60.766  1.00  0.00     0.195 C 
HETATM   29  O   UNL     1     -45.711  55.313 -61.445  1.00  0.00    -0.388 OA
HETATM   30  C   UNL     1     -44.970  54.504 -60.527  1.00  0.00     0.195 C 
HETATM   31  C   UNL     1     -44.101  55.369 -59.612  1.00  0.00     0.261 C 
ENDBRANCH  24  25
ENDBRANCH  23  24
ENDBRANCH  22  23
ENDBRANCH   3  22
BRANCH   1  32
HETATM   32  C   UNL     1     -41.173  53.385 -53.140  1.00  0.00     0.036 A 
HETATM   33  C   UNL     1     -40.907  53.396 -51.768  1.00  0.00     0.032 A 
HETATM   34  C   UNL     1     -40.114  52.397 -51.195  1.00  0.00     0.044 A 
HETATM   35  C   UNL     1     -39.597  51.384 -51.993  1.00  0.00     0.116 A 
HETATM   36  C   UNL     1     -39.861  51.348 -53.355  1.00  0.00     0.044 A 
HETATM   37  F   UNL     1     -38.836  50.430 -51.442  1.00  0.00    -0.206 F 
HETATM   38  C   UNL     1     -40.653  52.346 -53.928  1.00  0.00     0.032 A 
ENDBRANCH   1  32
TORSDOF 8
ENDMDL
MODEL 4
REMARK VINA RESULT:      -8.4      3.393      6.817
REMARK  8 active torsions:
REMARK  status: ('A' for Active; 'I' for Inactive)
REMARK    1  A    between atoms: C_2  and  N_3 
REMARK       I    between atoms: N_3  and  C_4 
REMARK       I    between atoms: C_4  and  N_5 
REMARK    2  A    between atoms: N_5  and  C_6 
REMARK    3  A    between atoms: N_5  and  C_21 
REMARK    4  A    between atoms: C_6  and  C_7 
REMARK    5  A    between atoms: C_8  and  O_9 
REMARK    6  A    between atoms: C_21  and  C_22 
REMARK    7  A    between atoms: C_22  and  C_23 
REMARK    8  A    between atoms: C_23  and  N_24 
ROOT
HETATM    1  N   UNL     1     -41.990  58.021 -53.869  1.00  0.00    -0.309 N 
HETATM    2  C   UNL     1     -40.911  58.424 -53.120  1.00  0.00     0.323 C 
HETATM    3  N   UNL     1     -40.903  57.977 -51.790  1.00  0.00    -0.330 N 
HETATM    4  O   UNL     1     -39.988  59.123 -53.535  1.00  0.00    -0.247 OA
HETATM    5  H   UNL     1     -42.841  57.830 -53.361  1.00  0.00     0.170 HD
ENDROOT
BRANCH   3   6
HETATM    6  C   UNL     1     -41.879  57.007 -51.270  1.00  0.00     0.170 C 
BRANCH   6   7
HETATM    7  C   UNL     1     -41.437  55.571 -51.234  1.00  0.00     0.013 A 
HETATM    8  C   UNL     1     -41.027  54.910 -50.083  1.00  0.00     0.170 A 
HETATM    9  N   UNL     1     -40.611  53.631 -50.042  1.00  0.00    -0.224 NA
HETATM   10  C   UNL     1     -40.484  52.964 -51.203  1.00  0.00     0.072 A 
HETATM   11  C   UNL     1     -40.835  53.553 -52.447  1.00  0.00    -0.004 A 
HETATM   12  C   UNL     1     -39.974  51.670 -51.202  1.00  0.00     0.072 A 
HETATM   13  C   UNL     1     -41.329  54.862 -52.435  1.00  0.00     0.027 A 
HETATM   14  C   UNL     1     -40.674  52.853 -53.657  1.00  0.00     0.053 A 
HETATM   15  C   UNL     1     -40.151  51.584 -53.598  1.00  0.00     0.106 A 
HETATM   16  C   UNL     1     -39.810  51.007 -52.403  1.00  0.00     0.107 A 
HETATM   17  O   UNL     1     -39.903  50.776 -54.660  1.00  0.00    -0.323 OA
HETATM   18  O   UNL     1     -39.303  49.756 -52.561  1.00  0.00    -0.323 OA
HETATM   19  C   UNL     1     -39.329  49.627 -53.999  1.00  0.00     0.352 A 
BRANCH   8  20
HETATM   20  O   UNL     1     -41.048  55.512 -48.857  1.00  0.00    -0.344 OA
HETATM   21  H   UNL     1     -40.254  55.216 -48.383  1.00  0.00     0.219 HD
ENDBRANCH   8  20
ENDBRANCH   6   7
ENDBRANCH   3   6
BRANCH   3  22
HETATM   22  C   UNL     1     -40.181  58.825 -50.827  1.00  0.00     0.129 C 
BRANCH  22  23
HETATM   23  C   UNL     1     -41.041  59.539 -49.770  1.00  0.00     0.048 C 
BRANCH  23  24
HETATM   24  C   UNL     1     -41.987  60.582 -50.353  1.00  0.00     0.236 C 
BRANCH  24  25
HETATM   25  N   UNL     1     -43.425  60.320 -49.948  1.00  0.00    -0.067 N 
HETATM   26  H   UNL     1     -43.427  59.568 -49.249  1.00  0.00     0.280 HD
HETATM   27  C   UNL     1     -44.123  61.536 -49.337  1.00  0.00     0.261 C 
HETATM   28  C   UNL     1     -45.577  61.173 -49.008  1.00  0.00     0.195 C 
HETATM   29  O   UNL     1     -46.278  60.719 -50.171  1.00  0.00    -0.388 OA
HETATM   30  C   UNL     1     -45.676  59.548 -50.730  1.00  0.00     0.195 C 
HETATM   31  C   UNL     1     -44.231  59.823 -51.153  1.00  0.00     0.261 C 
ENDBRANCH  24  25
ENDBRANCH  23  24
ENDBRANCH  22  23
ENDBRANCH   3  22
BRANCH   1  32
HETATM   32  C   UNL     1     -42.181  58.199 -55.258  1.00  0.00     0.036 A 
HETATM   33  C   UNL     1     -42.383  57.148 -56.157  1.00  0.00     0.032 A 
HETATM   34  C   UNL     1     -42.565  57.411 -57.518  1.00  0.00     0.044 A 
HETATM   35  C   UNL     1     -42.555  58.723 -57.976  1.00  0.00     0.116 A 
HETATM   36  C   UNL     1     -42.370  59.780 -57.097  1.00  0.00     0.044 A 
HETATM   37  F   UNL     1     -42.727  58.970 -59.281  1.00  0.00    -0.206 F 
HETATM   38  C   UNL     1     -42.187  59.519 -55.736  1.00  0.00     0.032 A 
ENDBRANCH   1  32
TORSDOF 8
ENDMDL
MODEL 5
REMARK VINA RESULT:      -8.1      1.866      6.424
REMARK  8 active torsions:
REMARK  status: ('A' for Active; 'I' for Inactive)
REMARK    1  A    between atoms: C_2  and  N_3 
REMARK       I    between atoms: N_3  and  C_4 
REMARK       I    between atoms: C_4  and  N_5 
REMARK    2  A    between atoms: N_5  and  C_6 
REMARK    3  A    between atoms: N_5  and  C_21 
REMARK    4  A    between atoms: C_6  and  C_7 
REMARK    5  A    between atoms: C_8  and  O_9 
REMARK    6  A    between atoms: C_21  and  C_22 
REMARK    7  A    between atoms: C_22  and  C_23 
REMARK    8  A    between atoms: C_23  and  N_24 
ROOT
HETATM    1  N   UNL     1     -40.903  54.387 -52.815  1.00  0.00    -0.309 N 
HETATM    2  C   UNL     1     -40.706  55.436 -53.679  1.00  0.00     0.323 C 
HETATM    3  N   UNL     1     -41.056  56.699 -53.177  1.00  0.00    -0.330 N 
HETATM    4  O   UNL     1     -40.256  55.334 -54.819  1.00  0.00    -0.247 OA
HETATM    5  H   UNL     1     -41.626  54.508 -52.120  1.00  0.00     0.170 HD
ENDROOT
BRANCH   3   6
HETATM    6  C   UNL     1     -41.442  56.922 -51.776  1.00  0.00     0.170 C 
BRANCH   6   7
HETATM    7  C   UNL     1     -42.683  57.738 -51.548  1.00  0.00     0.013 A 
HETATM    8  C   UNL     1     -43.975  57.267 -51.750  1.00  0.00     0.170 A 
HETATM    9  N   UNL     1     -45.092  57.995 -51.568  1.00  0.00    -0.224 NA
HETATM   10  C   UNL     1     -44.961  59.299 -51.265  1.00  0.00     0.072 A 
HETATM   11  C   UNL     1     -43.688  59.899 -51.075  1.00  0.00    -0.004 A 
HETATM   12  C   UNL     1     -46.095  60.097 -51.156  1.00  0.00     0.072 A 
HETATM   13  C   UNL     1     -42.556  59.088 -51.206  1.00  0.00     0.027 A 
HETATM   14  C   UNL     1     -43.565  61.270 -50.783  1.00  0.00     0.053 A 
HETATM   15  C   UNL     1     -44.717  62.014 -50.703  1.00  0.00     0.106 A 
HETATM   16  C   UNL     1     -45.950  61.443 -50.884  1.00  0.00     0.107 A 
HETATM   17  O   UNL     1     -44.787  63.347 -50.458  1.00  0.00    -0.323 OA
HETATM   18  O   UNL     1     -46.957  62.349 -50.774  1.00  0.00    -0.323 OA
HETATM   19  C   UNL     1     -46.213  63.564 -50.540  1.00  0.00     0.352 A 
BRANCH   8  20
HETATM   20  O   UNL     1     -44.223  55.977 -52.125  1.00  0.00    -0.344 OA
HETATM   21  H   UNL     1     -45.005  55.685 -51.628  1.00  0.00     0.219 HD
ENDBRANCH   8  20
ENDBRANCH   6   7
ENDBRANCH   3   6
BRANCH   3  22
HETATM   22  C   UNL     1     -41.452  57.705 -54.178  1.00  0.00     0.129 C 
BRANCH  22  23
HETATM   23  C   UNL     1     -42.506  57.264 -55.207  1.00  0.00     0.048 C 
BRANCH  23  24
HETATM   24  C   UNL     1     -42.566  58.155 -56.443  1.00  0.00     0.236 C 
BRANCH  24  25
HETATM   25  N   UNL     1     -42.282  57.371 -57.710  1.00  0.00    -0.067 N 
HETATM   26  H   UNL     1     -41.420  56.832 -57.565  1.00  0.00     0.280 HD
HETATM   27  C   UNL     1     -43.394  56.391 -58.088  1.00  0.00     0.261 C 
HETATM   28  C   UNL     1     -43.025  55.688 -59.402  1.00  0.00     0.195 C 
HETATM   29  O   UNL     1     -42.803  56.634 -60.455  1.00  0.00    -0.388 OA
HETATM   30  C   UNL     1     -41.729  57.528 -60.148  1.00  0.00     0.195 C 
HETATM   31  C   UNL     1     -42.029  58.328 -58.879  1.00  0.00     0.261 C 
ENDBRANCH  24  25
ENDBRANCH  23  24
ENDBRANCH  22  23
ENDBRANCH   3  22
BRANCH   1  32
HETATM   32  C   UNL     1     -40.508  53.042 -52.999  1.00  0.00     0.036 A 
HETATM   33  C   UNL     1     -40.702  52.329 -54.185  1.00  0.00     0.032 A 
HETATM   34  C   UNL     1     -40.280  50.999 -54.284  1.00  0.00     0.044 A 
HETATM   35  C   UNL     1     -39.657  50.389 -53.203  1.00  0.00     0.116 A 
HETATM   36  C   UNL     1     -39.443  51.086 -52.022  1.00  0.00     0.044 A 
HETATM   37  F   UNL     1     -39.257  49.116 -53.301  1.00  0.00    -0.206 F 
HETATM   38  C   UNL     1     -39.865  52.414 -51.921  1.00  0.00     0.032 A 
ENDBRANCH   1  32
TORSDOF 8
ENDMDL
MODEL 6
REMARK VINA RESULT:      -8.1      2.924      6.595
REMARK  8 active torsions:
REMARK  status: ('A' for Active; 'I' for Inactive)
REMARK    1  A    between atoms: C_2  and  N_3 
REMARK       I    between atoms: N_3  and  C_4 
REMARK       I    between atoms: C_4  and  N_5 
REMARK    2  A    between atoms: N_5  and  C_6 
REMARK    3  A    between atoms: N_5  and  C_21 
REMARK    4  A    between atoms: C_6  and  C_7 
REMARK    5  A    between atoms: C_8  and  O_9 
REMARK    6  A    between atoms: C_21  and  C_22 
REMARK    7  A    between atoms: C_22  and  C_23 
REMARK    8  A    between atoms: C_23  and  N_24 
ROOT
HETATM    1  N   UNL     1     -43.860  57.061 -56.768  1.00  0.00    -0.309 N 
HETATM    2  C   UNL     1     -42.890  57.971 -56.424  1.00  0.00     0.323 C 
HETATM    3  N   UNL     1     -42.733  58.188 -55.046  1.00  0.00    -0.330 N 
HETATM    4  O   UNL     1     -42.179  58.578 -57.223  1.00  0.00    -0.247 OA
HETATM    5  H   UNL     1     -44.622  56.952 -56.115  1.00  0.00     0.170 HD
ENDROOT
BRANCH   3   6
HETATM    6  C   UNL     1     -43.425  57.384 -54.028  1.00  0.00     0.170 C 
BRANCH   6   7
HETATM    7  C   UNL     1     -42.641  56.252 -53.427  1.00  0.00     0.013 A 
HETATM    8  C   UNL     1     -41.970  56.326 -52.213  1.00  0.00     0.170 A 
HETATM    9  N   UNL     1     -41.249  55.326 -51.674  1.00  0.00    -0.224 NA
HETATM   10  C   UNL     1     -41.076  54.205 -52.396  1.00  0.00     0.072 A 
HETATM   11  C   UNL     1     -41.681  54.033 -53.669  1.00  0.00    -0.004 A 
HETATM   12  C   UNL     1     -40.264  53.187 -51.904  1.00  0.00     0.072 A 
HETATM   13  C   UNL     1     -42.479  55.071 -54.160  1.00  0.00     0.027 A 
HETATM   14  C   UNL     1     -41.472  52.864 -54.424  1.00  0.00     0.053 A 
HETATM   15  C   UNL     1     -40.649  51.899 -53.896  1.00  0.00     0.106 A 
HETATM   16  C   UNL     1     -40.061  52.056 -52.668  1.00  0.00     0.107 A 
HETATM   17  O   UNL     1     -40.314  50.726 -54.492  1.00  0.00    -0.323 OA
HETATM   18  O   UNL     1     -39.278  50.996 -52.334  1.00  0.00    -0.323 OA
HETATM   19  C   UNL     1     -39.412  50.170 -53.511  1.00  0.00     0.352 A 
BRANCH   8  20
HETATM   20  O   UNL     1     -42.019  57.443 -51.427  1.00  0.00    -0.344 OA
HETATM   21  H   UNL     1     -42.415  57.175 -50.581  1.00  0.00     0.219 HD
ENDBRANCH   8  20
ENDBRANCH   6   7
ENDBRANCH   3   6
BRANCH   3  22
HETATM   22  C   UNL     1     -42.211  59.510 -54.656  1.00  0.00     0.129 C 
BRANCH  22  23
HETATM   23  C   UNL     1     -43.096  60.340 -53.712  1.00  0.00     0.048 C 
BRANCH  23  24
HETATM   24  C   UNL     1     -42.467  60.593 -52.347  1.00  0.00     0.236 C 
BRANCH  24  25
HETATM   25  N   UNL     1     -43.430  60.270 -51.220  1.00  0.00    -0.067 N 
HETATM   26  H   UNL     1     -42.989  59.566 -50.617  1.00  0.00     0.280 HD
HETATM   27  C   UNL     1     -43.787  61.478 -50.353  1.00  0.00     0.261 C 
HETATM   28  C   UNL     1     -44.796  61.049 -49.278  1.00  0.00     0.195 C 
HETATM   29  O   UNL     1     -45.972  60.480 -49.863  1.00  0.00    -0.388 OA
HETATM   30  C   UNL     1     -45.670  59.315 -50.636  1.00  0.00     0.195 C 
HETATM   31  C   UNL     1     -44.713  59.650 -51.782  1.00  0.00     0.261 C 
ENDBRANCH  24  25
ENDBRANCH  23  24
ENDBRANCH  22  23
ENDBRANCH   3  22
BRANCH   1  32
HETATM   32  C   UNL     1     -44.131  56.546 -58.055  1.00  0.00     0.036 A 
HETATM   33  C   UNL     1     -43.515  55.408 -58.584  1.00  0.00     0.032 A 
HETATM   34  C   UNL     1     -43.841  54.963 -59.869  1.00  0.00     0.044 A 
HETATM   35  C   UNL     1     -44.788  55.650 -60.619  1.00  0.00     0.116 A 
HETATM   36  C   UNL     1     -45.420  56.774 -60.105  1.00  0.00     0.044 A 
HETATM   37  F   UNL     1     -45.095  55.223 -61.849  1.00  0.00    -0.206 F 
HETATM   38  C   UNL     1     -45.095  57.219 -58.821  1.00  0.00     0.032 A 
ENDBRANCH   1  32
TORSDOF 8
ENDMDL
MODEL 7
REMARK VINA RESULT:      -7.9      2.229      6.523
REMARK  8 active torsions:
REMARK  status: ('A' for Active; 'I' for Inactive)
REMARK    1  A    between atoms: C_2  and  N_3 
REMARK       I    between atoms: N_3  and  C_4 
REMARK       I    between atoms: C_4  and  N_5 
REMARK    2  A    between atoms: N_5  and  C_6 
REMARK    3  A    between atoms: N_5  and  C_21 
REMARK    4  A    between atoms: C_6  and  C_7 
REMARK    5  A    between atoms: C_8  and  O_9 
REMARK    6  A    between atoms: C_21  and  C_22 
REMARK    7  A    between atoms: C_22  and  C_23 
REMARK    8  A    between atoms: C_23  and  N_24 
ROOT
HETATM    1  N   UNL     1     -41.396  54.117 -53.085  1.00  0.00    -0.309 N 
HETATM    2  C   UNL     1     -41.072  55.219 -53.839  1.00  0.00     0.323 C 
HETATM    3  N   UNL     1     -41.766  56.395 -53.511  1.00  0.00    -0.330 N 
HETATM    4  O   UNL     1     -40.240  55.233 -54.744  1.00  0.00    -0.247 OA
HETATM    5  H   UNL     1     -42.326  54.102 -52.693  1.00  0.00     0.170 HD
ENDROOT
BRANCH   3   6
HETATM    6  C   UNL     1     -42.649  56.499 -52.340  1.00  0.00     0.170 C 
BRANCH   6   7
HETATM    7  C   UNL     1     -42.839  57.875 -51.769  1.00  0.00     0.013 A 
HETATM    8  C   UNL     1     -41.821  58.631 -51.200  1.00  0.00     0.170 A 
HETATM    9  N   UNL     1     -41.983  59.856 -50.667  1.00  0.00    -0.224 NA
HETATM   10  C   UNL     1     -43.229  60.355 -50.585  1.00  0.00     0.072 A 
HETATM   11  C   UNL     1     -44.353  59.654 -51.097  1.00  0.00    -0.004 A 
HETATM   12  C   UNL     1     -43.440  61.581 -49.962  1.00  0.00     0.072 A 
HETATM   13  C   UNL     1     -44.128  58.414 -51.704  1.00  0.00     0.027 A 
HETATM   14  C   UNL     1     -45.653  60.177 -50.982  1.00  0.00     0.053 A 
HETATM   15  C   UNL     1     -45.805  61.384 -50.343  1.00  0.00     0.106 A 
HETATM   16  C   UNL     1     -44.727  62.069 -49.847  1.00  0.00     0.107 A 
HETATM   17  O   UNL     1     -46.981  62.023 -50.118  1.00  0.00    -0.323 OA
HETATM   18  O   UNL     1     -45.089  63.232 -49.244  1.00  0.00    -0.323 OA
HETATM   19  C   UNL     1     -46.525  63.182 -49.386  1.00  0.00     0.352 A 
BRANCH   8  20
HETATM   20  O   UNL     1     -40.527  58.192 -51.166  1.00  0.00    -0.344 OA
HETATM   21  H   UNL     1     -40.064  58.626 -51.901  1.00  0.00     0.219 HD
ENDBRANCH   8  20
ENDBRANCH   6   7
ENDBRANCH   3   6
BRANCH   3  22
HETATM   22  C   UNL     1     -41.934  57.371 -54.602  1.00  0.00     0.129 C 
BRANCH  22  23
HETATM   23  C   UNL     1     -43.135  57.148 -55.536  1.00  0.00     0.048 C 
BRANCH  23  24
HETATM   24  C   UNL     1     -42.756  56.562 -56.891  1.00  0.00     0.236 C 
BRANCH  24  25
HETATM   25  N   UNL     1     -43.973  56.368 -57.776  1.00  0.00    -0.067 N 
HETATM   26  H   UNL     1     -44.659  55.809 -57.255  1.00  0.00     0.280 HD
HETATM   27  C   UNL     1     -44.646  57.677 -58.190  1.00  0.00     0.261 C 
HETATM   28  C   UNL     1     -45.832  57.367 -59.114  1.00  0.00     0.195 C 
HETATM   29  O   UNL     1     -45.415  56.625 -60.266  1.00  0.00    -0.388 OA
HETATM   30  C   UNL     1     -44.831  55.370 -59.906  1.00  0.00     0.195 C 
HETATM   31  C   UNL     1     -43.594  55.573 -59.029  1.00  0.00     0.261 C 
ENDBRANCH  24  25
ENDBRANCH  23  24
ENDBRANCH  22  23
ENDBRANCH   3  22
BRANCH   1  32
HETATM   32  C   UNL     1     -40.759  52.856 -53.098  1.00  0.00     0.036 A 
HETATM   33  C   UNL     1     -40.009  52.352 -52.032  1.00  0.00     0.032 A 
HETATM   34  C   UNL     1     -39.411  51.091 -52.125  1.00  0.00     0.044 A 
HETATM   35  C   UNL     1     -39.571  50.334 -53.278  1.00  0.00     0.116 A 
HETATM   36  C   UNL     1     -40.324  50.812 -54.342  1.00  0.00     0.044 A 
HETATM   37  F   UNL     1     -38.995  49.129 -53.365  1.00  0.00    -0.206 F 
HETATM   38  C   UNL     1     -40.922  52.071 -54.250  1.00  0.00     0.032 A 
ENDBRANCH   1  32
TORSDOF 8
ENDMDL
MODEL 8
REMARK VINA RESULT:      -7.9      2.011      6.219
REMARK  8 active torsions:
REMARK  status: ('A' for Active; 'I' for Inactive)
REMARK    1  A    between atoms: C_2  and  N_3 
REMARK       I    between atoms: N_3  and  C_4 
REMARK       I    between atoms: C_4  and  N_5 
REMARK    2  A    between atoms: N_5  and  C_6 
REMARK    3  A    between atoms: N_5  and  C_21 
REMARK    4  A    between atoms: C_6  and  C_7 
REMARK    5  A    between atoms: C_8  and  O_9 
REMARK    6  A    between atoms: C_21  and  C_22 
REMARK    7  A    between atoms: C_22  and  C_23 
REMARK    8  A    between atoms: C_23  and  N_24 
ROOT
HETATM    1  N   UNL     1     -40.663  54.234 -53.221  1.00  0.00    -0.309 N 
HETATM    2  C   UNL     1     -41.519  54.445 -54.275  1.00  0.00     0.323 C 
HETATM    3  N   UNL     1     -41.545  55.758 -54.771  1.00  0.00    -0.330 N 
HETATM    4  O   UNL     1     -42.230  53.584 -54.788  1.00  0.00    -0.247 OA
HETATM    5  H   UNL     1     -40.465  55.033 -52.638  1.00  0.00     0.170 HD
ENDROOT
BRANCH   3   6
HETATM    6  C   UNL     1     -40.608  56.799 -54.322  1.00  0.00     0.170 C 
BRANCH   6   7
HETATM    7  C   UNL     1     -41.160  57.832 -53.381  1.00  0.00     0.013 A 
HETATM    8  C   UNL     1     -41.360  57.622 -52.022  1.00  0.00     0.170 A 
HETATM    9  N   UNL     1     -41.871  58.533 -51.174  1.00  0.00    -0.224 NA
HETATM   10  C   UNL     1     -42.317  59.696 -51.681  1.00  0.00     0.072 A 
HETATM   11  C   UNL     1     -42.202  60.004 -53.062  1.00  0.00    -0.004 A 
HETATM   12  C   UNL     1     -42.930  60.623 -50.843  1.00  0.00     0.072 A 
HETATM   13  C   UNL     1     -41.600  59.056 -53.896  1.00  0.00     0.027 A 
HETATM   14  C   UNL     1     -42.694  61.215 -53.583  1.00  0.00     0.053 A 
HETATM   15  C   UNL     1     -43.304  62.086 -52.713  1.00  0.00     0.106 A 
HETATM   16  C   UNL     1     -43.419  61.798 -51.378  1.00  0.00     0.107 A 
HETATM   17  O   UNL     1     -43.858  63.281 -53.041  1.00  0.00    -0.323 OA
HETATM   18  O   UNL     1     -44.062  62.780 -50.693  1.00  0.00    -0.323 OA
HETATM   19  C   UNL     1     -44.372  63.704 -51.759  1.00  0.00     0.352 A 
BRANCH   8  20
HETATM   20  O   UNL     1     -41.008  56.451 -51.412  1.00  0.00    -0.344 OA
HETATM   21  H   UNL     1     -41.715  56.238 -50.782  1.00  0.00     0.219 HD
ENDBRANCH   8  20
ENDBRANCH   6   7
ENDBRANCH   3   6
BRANCH   3  22
HETATM   22  C   UNL     1     -42.802  56.180 -55.414  1.00  0.00     0.129 C 
BRANCH  22  23
HETATM   23  C   UNL     1     -42.697  56.633 -56.880  1.00  0.00     0.048 C 
BRANCH  23  24
HETATM   24  C   UNL     1     -43.942  57.351 -57.389  1.00  0.00     0.236 C 
BRANCH  24  25
HETATM   25  N   UNL     1     -44.735  56.483 -58.347  1.00  0.00    -0.067 N 
HETATM   26  H   UNL     1     -45.374  55.900 -57.794  1.00  0.00     0.280 HD
HETATM   27  C   UNL     1     -45.571  57.279 -59.349  1.00  0.00     0.261 C 
HETATM   28  C   UNL     1     -46.293  56.307 -60.293  1.00  0.00     0.195 C 
HETATM   29  O   UNL     1     -45.365  55.454 -60.972  1.00  0.00    -0.388 OA
HETATM   30  C   UNL     1     -44.609  54.657 -60.056  1.00  0.00     0.195 C 
HETATM   31  C   UNL     1     -43.797  55.538 -59.105  1.00  0.00     0.261 C 
ENDBRANCH  24  25
ENDBRANCH  23  24
ENDBRANCH  22  23
ENDBRANCH   3  22
BRANCH   1  32
HETATM   32  C   UNL     1     -40.328  52.996 -52.627  1.00  0.00     0.036 A 
HETATM   33  C   UNL     1     -39.789  51.915 -53.330  1.00  0.00     0.032 A 
HETATM   34  C   UNL     1     -39.485  50.723 -52.666  1.00  0.00     0.044 A 
HETATM   35  C   UNL     1     -39.712  50.616 -51.299  1.00  0.00     0.116 A 
HETATM   36  C   UNL     1     -40.234  51.683 -50.582  1.00  0.00     0.044 A 
HETATM   37  F   UNL     1     -39.422  49.473 -50.667  1.00  0.00    -0.206 F 
HETATM   38  C   UNL     1     -40.538  52.875 -51.245  1.00  0.00     0.032 A 
ENDBRANCH   1  32
TORSDOF 8
ENDMDL
MODEL 9
REMARK VINA RESULT:      -7.8      3.543      8.235
REMARK  8 active torsions:
REMARK  status: ('A' for Active; 'I' for Inactive)
REMARK    1  A    between atoms: C_2  and  N_3 
REMARK       I    between atoms: N_3  and  C_4 
REMARK       I    between atoms: C_4  and  N_5 
REMARK    2  A    between atoms: N_5  and  C_6 
REMARK    3  A    between atoms: N_5  and  C_21 
REMARK    4  A    between atoms: C_6  and  C_7 
REMARK    5  A    between atoms: C_8  and  O_9 
REMARK    6  A    between atoms: C_21  and  C_22 
REMARK    7  A    between atoms: C_22  and  C_23 
REMARK    8  A    between atoms: C_23  and  N_24 
ROOT
HETATM    1  N   UNL     1     -44.383  59.692 -51.599  1.00  0.00    -0.309 N 
HETATM    2  C   UNL     1     -43.754  59.856 -52.809  1.00  0.00     0.323 C 
HETATM    3  N   UNL     1     -43.604  58.686 -53.570  1.00  0.00    -0.330 N 
HETATM    4  O   UNL     1     -43.335  60.926 -53.245  1.00  0.00    -0.247 OA
HETATM    5  H   UNL     1     -44.304  58.780 -51.173  1.00  0.00     0.170 HD
ENDROOT
BRANCH   3   6
HETATM    6  C   UNL     1     -44.221  57.405 -53.193  1.00  0.00     0.170 C 
BRANCH   6   7
HETATM    7  C   UNL     1     -43.284  56.319 -52.749  1.00  0.00     0.013 A 
HETATM    8  C   UNL     1     -42.600  56.324 -51.539  1.00  0.00     0.170 A 
HETATM    9  N   UNL     1     -41.743  55.367 -51.140  1.00  0.00    -0.224 NA
HETATM   10  C   UNL     1     -41.443  54.380 -52.003  1.00  0.00     0.072 A 
HETATM   11  C   UNL     1     -42.051  54.294 -53.284  1.00  0.00    -0.004 A 
HETATM   12  C   UNL     1     -40.496  53.423 -51.653  1.00  0.00     0.072 A 
HETATM   13  C   UNL     1     -42.988  55.273 -53.630  1.00  0.00     0.027 A 
HETATM   14  C   UNL     1     -41.710  53.269 -54.186  1.00  0.00     0.053 A 
HETATM   15  C   UNL     1     -40.757  52.361 -53.793  1.00  0.00     0.106 A 
HETATM   16  C   UNL     1     -40.166  52.435 -52.559  1.00  0.00     0.107 A 
HETATM   17  O   UNL     1     -40.287  51.328 -54.539  1.00  0.00    -0.323 OA
HETATM   18  O   UNL     1     -39.245  51.453 -52.370  1.00  0.00    -0.323 OA
HETATM   19  C   UNL     1     -39.299  50.774 -53.644  1.00  0.00     0.352 A 
BRANCH   8  20
HETATM   20  O   UNL     1     -42.775  57.315 -50.615  1.00  0.00    -0.344 OA
HETATM   21  H   UNL     1     -42.697  58.160 -51.089  1.00  0.00     0.219 HD
ENDBRANCH   8  20
ENDBRANCH   6   7
ENDBRANCH   3   6
BRANCH   3  22
HETATM   22  C   UNL     1     -42.464  58.663 -54.503  1.00  0.00     0.129 C 
BRANCH  22  23
HETATM   23  C   UNL     1     -42.810  58.605 -55.999  1.00  0.00     0.048 C 
BRANCH  23  24
HETATM   24  C   UNL     1     -42.509  57.258 -56.646  1.00  0.00     0.236 C 
BRANCH  24  25
HETATM   25  N   UNL     1     -43.282  57.072 -57.937  1.00  0.00    -0.067 N 
HETATM   26  H   UNL     1     -44.260  57.334 -57.763  1.00  0.00     0.280 HD
HETATM   27  C   UNL     1     -42.763  57.929 -59.092  1.00  0.00     0.261 C 
HETATM   28  C   UNL     1     -43.585  57.631 -60.354  1.00  0.00     0.195 C 
HETATM   29  O   UNL     1     -43.535  56.240 -60.692  1.00  0.00    -0.388 OA
HETATM   30  C   UNL     1     -44.067  55.420 -59.648  1.00  0.00     0.195 C 
HETATM   31  C   UNL     1     -43.272  55.598 -58.353  1.00  0.00     0.261 C 
ENDBRANCH  24  25
ENDBRANCH  23  24
ENDBRANCH  22  23
ENDBRANCH   3  22
BRANCH   1  32
HETATM   32  C   UNL     1     -44.793  60.706 -50.704  1.00  0.00     0.036 A 
HETATM   33  C   UNL     1     -44.037  61.130 -49.608  1.00  0.00     0.032 A 
HETATM   34  C   UNL     1     -44.516  62.142 -48.770  1.00  0.00     0.044 A 
HETATM   35  C   UNL     1     -45.744  62.735 -49.036  1.00  0.00     0.116 A 
HETATM   36  C   UNL     1     -46.503  62.337 -50.127  1.00  0.00     0.044 A 
HETATM   37  F   UNL     1     -46.201  63.701 -48.230  1.00  0.00    -0.206 F 
HETATM   38  C   UNL     1     -46.025  61.325 -50.964  1.00  0.00     0.032 A 
ENDBRANCH   1  32
TORSDOF 8
ENDMDL
MODEL 10
REMARK VINA RESULT:      -7.8      3.092      7.357
REMARK  8 active torsions:
REMARK  status: ('A' for Active; 'I' for Inactive)
REMARK    1  A    between atoms: C_2  and  N_3 
REMARK       I    between atoms: N_3  and  C_4 
REMARK       I    between atoms: C_4  and  N_5 
REMARK    2  A    between atoms: N_5  and  C_6 
REMARK    3  A    between atoms: N_5  and  C_21 
REMARK    4  A    between atoms: C_6  and  C_7 
REMARK    5  A    between atoms: C_8  and  O_9 
REMARK    6  A    between atoms: C_21  and  C_22 
REMARK    7  A    between atoms: C_22  and  C_23 
REMARK    8  A    between atoms: C_23  and  N_24 
ROOT
HETATM    1  N   UNL     1     -44.126  57.388 -56.994  1.00  0.00    -0.309 N 
HETATM    2  C   UNL     1     -43.057  58.192 -56.680  1.00  0.00     0.323 C 
HETATM    3  N   UNL     1     -42.912  58.489 -55.316  1.00  0.00    -0.330 N 
HETATM    4  O   UNL     1     -42.253  58.643 -57.492  1.00  0.00    -0.247 OA
HETATM    5  H   UNL     1     -44.914  57.424 -56.365  1.00  0.00     0.170 HD
ENDROOT
BRANCH   3   6
HETATM    6  C   UNL     1     -43.730  57.856 -54.270  1.00  0.00     0.170 C 
BRANCH   6   7
HETATM    7  C   UNL     1     -43.095  56.716 -53.526  1.00  0.00     0.013 A 
HETATM    8  C   UNL     1     -43.084  55.401 -53.976  1.00  0.00     0.170 A 
HETATM    9  N   UNL     1     -42.536  54.368 -53.310  1.00  0.00    -0.224 NA
HETATM   10  C   UNL     1     -42.049  54.592 -52.076  1.00  0.00     0.072 A 
HETATM   11  C   UNL     1     -42.045  55.889 -51.497  1.00  0.00    -0.004 A 
HETATM   12  C   UNL     1     -41.555  53.529 -51.328  1.00  0.00     0.072 A 
HETATM   13  C   UNL     1     -42.561  56.946 -52.254  1.00  0.00     0.027 A 
HETATM   14  C   UNL     1     -41.554  56.105 -50.197  1.00  0.00     0.053 A 
HETATM   15  C   UNL     1     -41.093  55.016 -49.497  1.00  0.00     0.106 A 
HETATM   16  C   UNL     1     -41.092  53.761 -50.048  1.00  0.00     0.107 A 
HETATM   17  O   UNL     1     -40.611  55.032 -48.228  1.00  0.00    -0.323 OA
HETATM   18  O   UNL     1     -40.607  52.823 -49.191  1.00  0.00    -0.323 OA
HETATM   19  C   UNL     1     -40.337  53.629 -48.023  1.00  0.00     0.352 A 
BRANCH   8  20
HETATM   20  O   UNL     1     -43.613  55.046 -55.186  1.00  0.00    -0.344 OA
HETATM   21  H   UNL     1     -43.006  54.398 -55.579  1.00  0.00     0.219 HD
ENDBRANCH   8  20
ENDBRANCH   6   7
ENDBRANCH   3   6
BRANCH   3  22
HETATM   22  C   UNL     1     -42.237  59.760 -55.000  1.00  0.00     0.129 C 
BRANCH  22  23
HETATM   23  C   UNL     1     -42.422  60.292 -53.569  1.00  0.00     0.048 C 
BRANCH  23  24
HETATM   24  C   UNL     1     -43.256  61.567 -53.494  1.00  0.00     0.236 C 
BRANCH  24  25
HETATM   25  N   UNL     1     -44.187  61.555 -52.296  1.00  0.00    -0.067 N 
HETATM   26  H   UNL     1     -43.971  62.375 -51.717  1.00  0.00     0.280 HD
HETATM   27  C   UNL     1     -45.668  61.616 -52.669  1.00  0.00     0.261 C 
HETATM   28  C   UNL     1     -46.516  61.553 -51.391  1.00  0.00     0.195 C 
HETATM   29  O   UNL     1     -46.233  60.371 -50.635  1.00  0.00    -0.388 OA
HETATM   30  C   UNL     1     -44.863  60.318 -50.226  1.00  0.00     0.195 C 
HETATM   31  C   UNL     1     -43.929  60.312 -51.439  1.00  0.00     0.261 C 
ENDBRANCH  24  25
ENDBRANCH  23  24
ENDBRANCH  22  23
ENDBRANCH   3  22
BRANCH   1  32
HETATM   32  C   UNL     1     -44.425  56.816 -58.252  1.00  0.00     0.036 A 
HETATM   33  C   UNL     1     -45.432  57.285 -59.100  1.00  0.00     0.032 A 
HETATM   34  C   UNL     1     -45.663  56.662 -60.330  1.00  0.00     0.044 A 
HETATM   35  C   UNL     1     -44.882  55.579 -60.714  1.00  0.00     0.116 A 
HETATM   36  C   UNL     1     -43.868  55.109 -59.892  1.00  0.00     0.044 A 
HETATM   37  F   UNL     1     -45.108  54.984 -61.892  1.00  0.00    -0.206 F 
HETATM   38  C   UNL     1     -43.636  55.730 -58.662  1.00  0.00     0.032 A 
ENDBRANCH   1  32
TORSDOF 8
ENDMDL
