MODEL 1
REMARK VINA RESULT:      -8.7      0.000      0.000
REMARK  3 active torsions:
REMARK  status: ('A' for Active; 'I' for Inactive)
REMARK    1  A    between atoms: C_9  and  C_10 
REMARK    2  A    between atoms: C_10  and  C_11 
REMARK       I    between atoms: C_11  and  N_12 
REMARK    3  A    between atoms: N_12  and  C_13 
ROOT
HETATM    1  C   UNL     1     -40.783  54.936 -55.092  1.00  0.00     0.165 C 
ENDROOT
BRANCH   1   2
HETATM    2  C   UNL     1     -40.822  54.612 -53.608  1.00  0.00     0.074 A 
HETATM    3  C   UNL     1     -40.387  53.266 -53.137  1.00  0.00     0.006 A 
HETATM    4  C   UNL     1     -39.970  52.237 -53.993  1.00  0.00     0.014 A 
HETATM    5  C   UNL     1     -40.420  53.029 -51.763  1.00  0.00     0.046 A 
HETATM    6  C   UNL     1     -39.567  51.004 -53.468  1.00  0.00     0.001 A 
HETATM    7  C   UNL     1     -39.584  50.786 -52.091  1.00  0.00     0.001 A 
HETATM    8  C   UNL     1     -40.015  51.796 -51.236  1.00  0.00     0.018 A 
HETATM    9  C   UNL     1     -40.914  54.083 -50.865  1.00  0.00     0.272 A 
HETATM   10  O   UNL     1     -40.957  53.926 -49.651  1.00  0.00    -0.266 OA
HETATM   11  N   UNL     1     -41.338  55.241 -51.468  1.00  0.00    -0.243 N 
HETATM   12  N   UNL     1     -41.297  55.514 -52.797  1.00  0.00    -0.175 NA
HETATM   13  H   UNL     1     -41.695  55.966 -50.853  1.00  0.00     0.192 HD
ENDBRANCH   1   2
BRANCH   1  14
HETATM   14  C   UNL     1     -42.090  55.001 -55.864  1.00  0.00     0.227 C 
HETATM   15  N   UNL     1     -42.087  55.822 -56.969  1.00  0.00    -0.327 N 
HETATM   16  H   UNL     1     -41.168  56.167 -57.252  1.00  0.00     0.169 HD
HETATM   17  O   UNL     1     -43.070  54.397 -55.429  1.00  0.00    -0.273 OA
BRANCH  15  18
HETATM   18  C   UNL     1     -43.169  56.157 -57.809  1.00  0.00     0.036 A 
HETATM   19  C   UNL     1     -43.523  55.438 -58.955  1.00  0.00     0.056 A 
HETATM   20  C   UNL     1     -44.622  55.835 -59.721  1.00  0.00     0.074 A 
HETATM   21 CL   UNL     1     -45.048  54.932 -61.125  1.00  0.00    -0.081 Cl
HETATM   22  C   UNL     1     -45.369  56.949 -59.346  1.00  0.00     0.138 A 
HETATM   23  F   UNL     1     -46.428  57.343 -60.068  1.00  0.00    -0.204 F 
HETATM   24  C   UNL     1     -45.029  57.672 -58.210  1.00  0.00     0.046 A 
HETATM   25  C   UNL     1     -43.933  57.275 -57.441  1.00  0.00     0.032 A 
ENDBRANCH  15  18
ENDBRANCH   1  14
TORSDOF 3
ENDMDL
MODEL 2
REMARK VINA RESULT:      -8.4      2.238      2.556
REMARK  3 active torsions:
REMARK  status: ('A' for Active; 'I' for Inactive)
REMARK    1  A    between atoms: C_9  and  C_10 
REMARK    2  A    between atoms: C_10  and  C_11 
REMARK       I    between atoms: C_11  and  N_12 
REMARK    3  A    between atoms: N_12  and  C_13 
ROOT
HETATM    1  C   UNL     1     -43.158  54.712 -54.216  1.00  0.00     0.165 C 
ENDROOT
BRANCH   1   2
HETATM    2  C   UNL     1     -42.367  54.323 -52.978  1.00  0.00     0.074 A 
HETATM    3  C   UNL     1     -41.349  53.238 -53.066  1.00  0.00     0.006 A 
HETATM    4  C   UNL     1     -41.090  52.503 -54.232  1.00  0.00     0.014 A 
HETATM    5  C   UNL     1     -40.635  52.937 -51.907  1.00  0.00     0.046 A 
HETATM    6  C   UNL     1     -40.108  51.507 -54.233  1.00  0.00     0.001 A 
HETATM    7  C   UNL     1     -39.386  51.229 -53.073  1.00  0.00     0.001 A 
HETATM    8  C   UNL     1     -39.650  51.940 -51.906  1.00  0.00     0.018 A 
HETATM    9  C   UNL     1     -40.944  53.661 -50.665  1.00  0.00     0.272 A 
HETATM   10  O   UNL     1     -40.341  53.437 -49.622  1.00  0.00    -0.266 OA
HETATM   11  N   UNL     1     -41.956  54.585 -50.741  1.00  0.00    -0.243 N 
HETATM   12  N   UNL     1     -42.654  54.920 -51.856  1.00  0.00    -0.175 NA
HETATM   13  H   UNL     1     -42.184  55.077 -49.882  1.00  0.00     0.192 HD
ENDBRANCH   1   2
BRANCH   1  14
HETATM   14  C   UNL     1     -42.526  55.658 -55.223  1.00  0.00     0.227 C 
HETATM   15  N   UNL     1     -43.252  55.870 -56.374  1.00  0.00    -0.327 N 
HETATM   16  H   UNL     1     -44.206  55.508 -56.359  1.00  0.00     0.169 HD
HETATM   17  O   UNL     1     -41.404  56.108 -54.995  1.00  0.00    -0.273 OA
BRANCH  15  18
HETATM   18  C   UNL     1     -42.877  56.608 -57.515  1.00  0.00     0.036 A 
HETATM   19  C   UNL     1     -42.503  57.955 -57.490  1.00  0.00     0.056 A 
HETATM   20  C   UNL     1     -42.132  58.603 -58.671  1.00  0.00     0.074 A 
HETATM   21 CL   UNL     1     -41.666  60.261 -58.620  1.00  0.00    -0.081 Cl
HETATM   22  C   UNL     1     -42.133  57.909 -59.879  1.00  0.00     0.138 A 
HETATM   23  F   UNL     1     -41.779  58.515 -61.021  1.00  0.00    -0.204 F 
HETATM   24  C   UNL     1     -42.502  56.570 -59.919  1.00  0.00     0.046 A 
HETATM   25  C   UNL     1     -42.870  55.920 -58.739  1.00  0.00     0.032 A 
ENDBRANCH  15  18
ENDBRANCH   1  14
TORSDOF 3
ENDMDL
MODEL 3
REMARK VINA RESULT:      -8.4      3.983      8.155
REMARK  3 active torsions:
REMARK  status: ('A' for Active; 'I' for Inactive)
REMARK    1  A    between atoms: C_9  and  C_10 
REMARK    2  A    between atoms: C_10  and  C_11 
REMARK       I    between atoms: C_11  and  N_12 
REMARK    3  A    between atoms: N_12  and  C_13 
ROOT
HETATM    1  C   UNL     1     -42.464  56.647 -54.996  1.00  0.00     0.165 C 
ENDROOT
BRANCH   1   2
HETATM    2  C   UNL     1     -42.748  56.413 -56.471  1.00  0.00     0.074 A 
HETATM    3  C   UNL     1     -42.530  57.519 -57.447  1.00  0.00     0.006 A 
HETATM    4  C   UNL     1     -42.109  58.806 -57.087  1.00  0.00     0.014 A 
HETATM    5  C   UNL     1     -42.784  57.243 -58.790  1.00  0.00     0.046 A 
HETATM    6  C   UNL     1     -41.918  59.785 -58.067  1.00  0.00     0.001 A 
HETATM    7  C   UNL     1     -42.154  59.492 -59.410  1.00  0.00     0.001 A 
HETATM    8  C   UNL     1     -42.592  58.222 -59.774  1.00  0.00     0.018 A 
HETATM    9  C   UNL     1     -43.286  55.914 -59.168  1.00  0.00     0.272 A 
HETATM   10  O   UNL     1     -43.517  55.621 -60.335  1.00  0.00    -0.266 OA
HETATM   11  N   UNL     1     -43.493  55.031 -58.138  1.00  0.00    -0.243 N 
HETATM   12  N   UNL     1     -43.235  55.257 -56.824  1.00  0.00    -0.175 NA
HETATM   13  H   UNL     1     -43.855  54.116 -58.392  1.00  0.00     0.192 HD
ENDBRANCH   1   2
BRANCH   1  14
HETATM   14  C   UNL     1     -42.233  55.447 -54.094  1.00  0.00     0.227 C 
HETATM   15  N   UNL     1     -41.025  54.806 -54.258  1.00  0.00    -0.327 N 
HETATM   16  H   UNL     1     -40.348  55.297 -54.842  1.00  0.00     0.169 HD
HETATM   17  O   UNL     1     -43.137  55.082 -53.345  1.00  0.00    -0.273 OA
BRANCH  15  18
HETATM   18  C   UNL     1     -40.579  53.619 -53.641  1.00  0.00     0.036 A 
HETATM   19  C   UNL     1     -40.311  52.432 -54.329  1.00  0.00     0.056 A 
HETATM   20  C   UNL     1     -39.858  51.306 -53.636  1.00  0.00     0.074 A 
HETATM   21 CL   UNL     1     -39.524  49.853 -54.501  1.00  0.00    -0.081 Cl
HETATM   22  C   UNL     1     -39.673  51.362 -52.257  1.00  0.00     0.138 A 
HETATM   23  F   UNL     1     -39.238  50.292 -51.576  1.00  0.00    -0.204 F 
HETATM   24  C   UNL     1     -39.935  52.535 -51.560  1.00  0.00     0.046 A 
HETATM   25  C   UNL     1     -40.385  53.663 -52.252  1.00  0.00     0.032 A 
ENDBRANCH  15  18
ENDBRANCH   1  14
TORSDOF 3
ENDMDL
MODEL 4
REMARK VINA RESULT:      -8.1     14.138     15.334
REMARK  3 active torsions:
REMARK  status: ('A' for Active; 'I' for Inactive)
REMARK    1  A    between atoms: C_9  and  C_10 
REMARK    2  A    between atoms: C_10  and  C_11 
REMARK       I    between atoms: C_11  and  N_12 
REMARK    3  A    between atoms: N_12  and  C_13 
ROOT
HETATM    1  C   UNL     1     -35.752  42.434 -53.183  1.00  0.00     0.165 C 
ENDROOT
BRANCH   1   2
HETATM    2  C   UNL     1     -36.197  41.379 -52.184  1.00  0.00     0.074 A 
HETATM    3  C   UNL     1     -35.188  40.739 -51.292  1.00  0.00     0.006 A 
HETATM    4  C   UNL     1     -33.815  41.019 -51.339  1.00  0.00     0.014 A 
HETATM    5  C   UNL     1     -35.653  39.795 -50.377  1.00  0.00     0.046 A 
HETATM    6  C   UNL     1     -32.936  40.381 -50.458  1.00  0.00     0.001 A 
HETATM    7  C   UNL     1     -33.414  39.454 -49.533  1.00  0.00     0.001 A 
HETATM    8  C   UNL     1     -34.774  39.156 -49.493  1.00  0.00     0.018 A 
HETATM    9  C   UNL     1     -37.082  39.451 -50.364  1.00  0.00     0.272 A 
HETATM   10  O   UNL     1     -37.540  38.633 -49.576  1.00  0.00    -0.266 OA
HETATM   11  N   UNL     1     -37.865  40.086 -51.296  1.00  0.00    -0.243 N 
HETATM   12  N   UNL     1     -37.451  41.026 -52.184  1.00  0.00    -0.175 NA
HETATM   13  H   UNL     1     -38.850  39.840 -51.302  1.00  0.00     0.192 HD
ENDBRANCH   1   2
BRANCH   1  14
HETATM   14  C   UNL     1     -35.745  42.087 -54.662  1.00  0.00     0.227 C 
HETATM   15  N   UNL     1     -36.983  41.880 -55.229  1.00  0.00    -0.327 N 
HETATM   16  H   UNL     1     -37.777  42.145 -54.646  1.00  0.00     0.169 HD
HETATM   17  O   UNL     1     -34.666  41.940 -55.234  1.00  0.00    -0.273 OA
BRANCH  15  18
HETATM   18  C   UNL     1     -37.279  41.451 -56.539  1.00  0.00     0.036 A 
HETATM   19  C   UNL     1     -37.163  42.260 -57.673  1.00  0.00     0.056 A 
HETATM   20  C   UNL     1     -37.466  41.744 -58.937  1.00  0.00     0.074 A 
HETATM   21 CL   UNL     1     -37.309  42.753 -60.325  1.00  0.00    -0.081 Cl
HETATM   22  C   UNL     1     -37.885  40.423 -59.070  1.00  0.00     0.138 A 
HETATM   23  F   UNL     1     -38.179  39.912 -60.275  1.00  0.00    -0.204 F 
HETATM   24  C   UNL     1     -38.005  39.608 -57.952  1.00  0.00     0.046 A 
HETATM   25  C   UNL     1     -37.700  40.120 -56.688  1.00  0.00     0.032 A 
ENDBRANCH  15  18
ENDBRANCH   1  14
TORSDOF 3
ENDMDL
MODEL 5
REMARK VINA RESULT:      -8.0      4.451      8.481
REMARK  3 active torsions:
REMARK  status: ('A' for Active; 'I' for Inactive)
REMARK    1  A    between atoms: C_9  and  C_10 
REMARK    2  A    between atoms: C_10  and  C_11 
REMARK       I    between atoms: C_11  and  N_12 
REMARK    3  A    between atoms: N_12  and  C_13 
ROOT
HETATM    1  C   UNL     1     -42.619  56.969 -55.126  1.00  0.00     0.165 C 
ENDROOT
BRANCH   1   2
HETATM    2  C   UNL     1     -42.578  56.939 -56.645  1.00  0.00     0.074 A 
HETATM    3  C   UNL     1     -42.319  58.199 -57.398  1.00  0.00     0.006 A 
HETATM    4  C   UNL     1     -42.148  59.451 -56.792  1.00  0.00     0.014 A 
HETATM    5  C   UNL     1     -42.267  58.112 -58.789  1.00  0.00     0.046 A 
HETATM    6  C   UNL     1     -41.898  60.584 -57.573  1.00  0.00     0.001 A 
HETATM    7  C   UNL     1     -41.827  60.481 -58.961  1.00  0.00     0.001 A 
HETATM    8  C   UNL     1     -42.016  59.245 -59.573  1.00  0.00     0.018 A 
HETATM    9  C   UNL     1     -42.508  56.813 -59.436  1.00  0.00     0.272 A 
HETATM   10  O   UNL     1     -42.467  56.683 -60.654  1.00  0.00    -0.266 OA
HETATM   11  N   UNL     1     -42.796  55.765 -58.598  1.00  0.00    -0.243 N 
HETATM   12  N   UNL     1     -42.831  55.809 -57.241  1.00  0.00    -0.175 NA
HETATM   13  H   UNL     1     -42.979  54.869 -59.041  1.00  0.00     0.192 HD
ENDBRANCH   1   2
BRANCH   1  14
HETATM   14  C   UNL     1     -41.601  56.155 -54.348  1.00  0.00     0.227 C 
HETATM   15  N   UNL     1     -41.851  54.802 -54.277  1.00  0.00    -0.327 N 
HETATM   16  H   UNL     1     -42.594  54.466 -54.890  1.00  0.00     0.169 HD
HETATM   17  O   UNL     1     -40.680  56.739 -53.778  1.00  0.00    -0.273 OA
BRANCH  15  18
HETATM   18  C   UNL     1     -41.145  53.824 -53.548  1.00  0.00     0.036 A 
HETATM   19  C   UNL     1     -41.095  53.771 -52.152  1.00  0.00     0.056 A 
HETATM   20  C   UNL     1     -40.381  52.754 -51.512  1.00  0.00     0.074 A 
HETATM   21 CL   UNL     1     -40.337  52.701 -49.791  1.00  0.00    -0.081 Cl
HETATM   22  C   UNL     1     -39.716  51.789 -52.264  1.00  0.00     0.138 A 
HETATM   23  F   UNL     1     -39.027  50.806 -51.667  1.00  0.00    -0.204 F 
HETATM   24  C   UNL     1     -39.757  51.828 -53.652  1.00  0.00     0.046 A 
HETATM   25  C   UNL     1     -40.473  52.842 -54.293  1.00  0.00     0.032 A 
ENDBRANCH  15  18
ENDBRANCH   1  14
TORSDOF 3
ENDMDL
MODEL 6
REMARK VINA RESULT:      -8.0      5.105      7.999
REMARK  3 active torsions:
REMARK  status: ('A' for Active; 'I' for Inactive)
REMARK    1  A    between atoms: C_9  and  C_10 
REMARK    2  A    between atoms: C_10  and  C_11 
REMARK       I    between atoms: C_11  and  N_12 
REMARK    3  A    between atoms: N_12  and  C_13 
ROOT
HETATM    1  C   UNL     1     -42.348  56.215 -50.943  1.00  0.00     0.165 C 
ENDROOT
BRANCH   1   2
HETATM    2  C   UNL     1     -42.174  57.252 -52.040  1.00  0.00     0.074 A 
HETATM    3  C   UNL     1     -43.246  58.261 -52.275  1.00  0.00     0.006 A 
HETATM    4  C   UNL     1     -44.453  58.298 -51.564  1.00  0.00     0.014 A 
HETATM    5  C   UNL     1     -43.025  59.204 -53.278  1.00  0.00     0.046 A 
HETATM    6  C   UNL     1     -45.403  59.287 -51.840  1.00  0.00     0.001 A 
HETATM    7  C   UNL     1     -45.163  60.238 -52.831  1.00  0.00     0.001 A 
HETATM    8  C   UNL     1     -43.975  60.196 -53.555  1.00  0.00     0.018 A 
HETATM    9  C   UNL     1     -41.789  59.134 -54.071  1.00  0.00     0.272 A 
HETATM   10  O   UNL     1     -41.546  59.943 -54.958  1.00  0.00    -0.266 OA
HETATM   11  N   UNL     1     -40.935  58.102 -53.768  1.00  0.00    -0.243 N 
HETATM   12  N   UNL     1     -41.106  57.182 -52.784  1.00  0.00    -0.175 NA
HETATM   13  H   UNL     1     -40.087  58.039 -54.323  1.00  0.00     0.192 HD
ENDBRANCH   1   2
BRANCH   1  14
HETATM   14  C   UNL     1     -42.156  54.747 -51.283  1.00  0.00     0.227 C 
HETATM   15  N   UNL     1     -40.893  54.397 -51.709  1.00  0.00    -0.327 N 
HETATM   16  H   UNL     1     -40.180  55.117 -51.591  1.00  0.00     0.169 HD
HETATM   17  O   UNL     1     -43.126  53.992 -51.234  1.00  0.00    -0.273 OA
BRANCH  15  18
HETATM   18  C   UNL     1     -40.451  53.145 -52.184  1.00  0.00     0.036 A 
HETATM   19  C   UNL     1     -40.010  52.106 -51.360  1.00  0.00     0.056 A 
HETATM   20  C   UNL     1     -39.603  50.891 -51.919  1.00  0.00     0.074 A 
HETATM   21 CL   UNL     1     -39.070  49.618 -50.888  1.00  0.00    -0.081 Cl
HETATM   22  C   UNL     1     -39.634  50.712 -53.300  1.00  0.00     0.138 A 
HETATM   23  F   UNL     1     -39.248  49.554 -53.853  1.00  0.00    -0.204 F 
HETATM   24  C   UNL     1     -40.070  51.737 -54.131  1.00  0.00     0.046 A 
HETATM   25  C   UNL     1     -40.481  52.950 -53.574  1.00  0.00     0.032 A 
ENDBRANCH  15  18
ENDBRANCH   1  14
TORSDOF 3
ENDMDL
MODEL 7
REMARK VINA RESULT:      -7.8      5.180      7.784
REMARK  3 active torsions:
REMARK  status: ('A' for Active; 'I' for Inactive)
REMARK    1  A    between atoms: C_9  and  C_10 
REMARK    2  A    between atoms: C_10  and  C_11 
REMARK       I    between atoms: C_11  and  N_12 
REMARK    3  A    between atoms: N_12  and  C_13 
ROOT
HETATM    1  C   UNL     1     -42.568  56.078 -50.428  1.00  0.00     0.165 C 
ENDROOT
BRANCH   1   2
HETATM    2  C   UNL     1     -43.394  57.103 -51.188  1.00  0.00     0.074 A 
HETATM    3  C   UNL     1     -42.728  57.991 -52.184  1.00  0.00     0.006 A 
HETATM    4  C   UNL     1     -41.352  57.975 -52.448  1.00  0.00     0.014 A 
HETATM    5  C   UNL     1     -43.536  58.898 -52.870  1.00  0.00     0.046 A 
HETATM    6  C   UNL     1     -40.809  58.835 -53.408  1.00  0.00     0.001 A 
HETATM    7  C   UNL     1     -41.629  59.723 -54.103  1.00  0.00     0.001 A 
HETATM    8  C   UNL     1     -42.994  59.759 -53.832  1.00  0.00     0.018 A 
HETATM    9  C   UNL     1     -44.970  58.964 -52.554  1.00  0.00     0.272 A 
HETATM   10  O   UNL     1     -45.722  59.739 -53.133  1.00  0.00    -0.266 OA
HETATM   11  N   UNL     1     -45.410  58.121 -51.564  1.00  0.00    -0.243 N 
HETATM   12  N   UNL     1     -44.658  57.210 -50.893  1.00  0.00    -0.175 NA
HETATM   13  H   UNL     1     -46.397  58.173 -51.330  1.00  0.00     0.192 HD
ENDBRANCH   1   2
BRANCH   1  14
HETATM   14  C   UNL     1     -42.350  54.708 -51.047  1.00  0.00     0.227 C 
HETATM   15  N   UNL     1     -41.036  54.349 -51.249  1.00  0.00    -0.327 N 
HETATM   16  H   UNL     1     -40.347  54.962 -50.811  1.00  0.00     0.169 HD
HETATM   17  O   UNL     1     -43.329  54.047 -51.392  1.00  0.00    -0.273 OA
BRANCH  15  18
HETATM   18  C   UNL     1     -40.536  53.198 -51.889  1.00  0.00     0.036 A 
HETATM   19  C   UNL     1     -40.064  52.068 -51.214  1.00  0.00     0.056 A 
HETATM   20  C   UNL     1     -39.600  50.963 -51.933  1.00  0.00     0.074 A 
HETATM   21 CL   UNL     1     -39.029  49.577 -51.084  1.00  0.00    -0.081 Cl
HETATM   22  C   UNL     1     -39.604  50.984 -53.325  1.00  0.00     0.138 A 
HETATM   23  F   UNL     1     -39.163  49.932 -54.031  1.00  0.00    -0.204 F 
HETATM   24  C   UNL     1     -40.071  52.099 -54.010  1.00  0.00     0.046 A 
HETATM   25  C   UNL     1     -40.539  53.203 -53.293  1.00  0.00     0.032 A 
ENDBRANCH  15  18
ENDBRANCH   1  14
TORSDOF 3
ENDMDL
MODEL 8
REMARK VINA RESULT:      -7.6      4.522      8.065
REMARK  3 active torsions:
REMARK  status: ('A' for Active; 'I' for Inactive)
REMARK    1  A    between atoms: C_9  and  C_10 
REMARK    2  A    between atoms: C_10  and  C_11 
REMARK       I    between atoms: C_11  and  N_12 
REMARK    3  A    between atoms: N_12  and  C_13 
ROOT
HETATM    1  C   UNL     1     -42.829  57.530 -54.813  1.00  0.00     0.165 C 
ENDROOT
BRANCH   1   2
HETATM    2  C   UNL     1     -42.452  58.340 -56.042  1.00  0.00     0.074 A 
HETATM    3  C   UNL     1     -42.547  57.715 -57.393  1.00  0.00     0.006 A 
HETATM    4  C   UNL     1     -42.932  56.386 -57.612  1.00  0.00     0.014 A 
HETATM    5  C   UNL     1     -42.213  58.510 -58.489  1.00  0.00     0.046 A 
HETATM    6  C   UNL     1     -43.006  55.880 -58.914  1.00  0.00     0.001 A 
HETATM    7  C   UNL     1     -42.690  56.690 -60.004  1.00  0.00     0.001 A 
HETATM    8  C   UNL     1     -42.288  58.006 -59.793  1.00  0.00     0.018 A 
HETATM    9  C   UNL     1     -41.748  59.887 -58.262  1.00  0.00     0.272 A 
HETATM   10  O   UNL     1     -41.448  60.627 -59.192  1.00  0.00    -0.266 OA
HETATM   11  N   UNL     1     -41.656  60.285 -56.952  1.00  0.00    -0.243 N 
HETATM   12  N   UNL     1     -41.996  59.548 -55.863  1.00  0.00    -0.175 NA
HETATM   13  H   UNL     1     -41.321  61.230 -56.789  1.00  0.00     0.192 HD
ENDBRANCH   1   2
BRANCH   1  14
HETATM   14  C   UNL     1     -41.783  56.630 -54.179  1.00  0.00     0.227 C 
HETATM   15  N   UNL     1     -42.054  55.280 -54.225  1.00  0.00    -0.327 N 
HETATM   16  H   UNL     1     -42.837  55.015 -54.823  1.00  0.00     0.169 HD
HETATM   17  O   UNL     1     -40.820  57.143 -53.611  1.00  0.00    -0.273 OA
BRANCH  15  18
HETATM   18  C   UNL     1     -41.326  54.226 -53.637  1.00  0.00     0.036 A 
HETATM   19  C   UNL     1     -41.192  54.040 -52.258  1.00  0.00     0.056 A 
HETATM   20  C   UNL     1     -40.462  52.956 -51.763  1.00  0.00     0.074 A 
HETATM   21 CL   UNL     1     -40.314  52.739 -50.060  1.00  0.00    -0.081 Cl
HETATM   22  C   UNL     1     -39.865  52.056 -52.642  1.00  0.00     0.138 A 
HETATM   23  F   UNL     1     -39.162  51.010 -52.185  1.00  0.00    -0.204 F 
HETATM   24  C   UNL     1     -39.991  52.228 -54.015  1.00  0.00     0.046 A 
HETATM   25  C   UNL     1     -40.722  53.309 -54.511  1.00  0.00     0.032 A 
ENDBRANCH  15  18
ENDBRANCH   1  14
TORSDOF 3
ENDMDL
MODEL 9
REMARK VINA RESULT:      -7.6     14.790     15.851
REMARK  3 active torsions:
REMARK  status: ('A' for Active; 'I' for Inactive)
REMARK    1  A    between atoms: C_9  and  C_10 
REMARK    2  A    between atoms: C_10  and  C_11 
REMARK       I    between atoms: C_11  and  N_12 
REMARK    3  A    between atoms: N_12  and  C_13 
ROOT
HETATM    1  C   UNL     1     -35.353  42.133 -57.339  1.00  0.00     0.165 C 
ENDROOT
BRANCH   1   2
HETATM    2  C   UNL     1     -35.585  41.884 -55.857  1.00  0.00     0.074 A 
HETATM    3  C   UNL     1     -34.526  41.213 -55.050  1.00  0.00     0.006 A 
HETATM    4  C   UNL     1     -33.317  40.746 -55.583  1.00  0.00     0.014 A 
HETATM    5  C   UNL     1     -34.780  41.030 -53.691  1.00  0.00     0.046 A 
HETATM    6  C   UNL     1     -32.371  40.135 -54.753  1.00  0.00     0.001 A 
HETATM    7  C   UNL     1     -32.626  39.977 -53.392  1.00  0.00     0.001 A 
HETATM    8  C   UNL     1     -33.833  40.420 -52.858  1.00  0.00     0.018 A 
HETATM    9  C   UNL     1     -36.072  41.461 -53.138  1.00  0.00     0.272 A 
HETATM   10  O   UNL     1     -36.340  41.328 -51.950  1.00  0.00    -0.266 OA
HETATM   11  N   UNL     1     -36.961  42.003 -54.032  1.00  0.00    -0.243 N 
HETATM   12  N   UNL     1     -36.739  42.218 -55.354  1.00  0.00    -0.175 NA
HETATM   13  H   UNL     1     -37.862  42.288 -53.657  1.00  0.00     0.192 HD
ENDBRANCH   1   2
BRANCH   1  14
HETATM   14  C   UNL     1     -36.417  41.696 -58.331  1.00  0.00     0.227 C 
HETATM   15  N   UNL     1     -36.463  40.344 -58.595  1.00  0.00    -0.327 N 
HETATM   16  H   UNL     1     -35.897  39.762 -57.976  1.00  0.00     0.169 HD
HETATM   17  O   UNL     1     -37.105  42.552 -58.884  1.00  0.00    -0.273 OA
BRANCH  15  18
HETATM   18  C   UNL     1     -37.265  39.668 -59.535  1.00  0.00     0.036 A 
HETATM   19  C   UNL     1     -36.957  39.560 -60.895  1.00  0.00     0.056 A 
HETATM   20  C   UNL     1     -37.806  38.856 -61.754  1.00  0.00     0.074 A 
HETATM   21 CL   UNL     1     -37.406  38.727 -63.425  1.00  0.00    -0.081 Cl
HETATM   22  C   UNL     1     -38.963  38.260 -61.259  1.00  0.00     0.138 A 
HETATM   23  F   UNL     1     -39.788  37.581 -62.068  1.00  0.00    -0.204 F 
HETATM   24  C   UNL     1     -39.282  38.359 -59.910  1.00  0.00     0.046 A 
HETATM   25  C   UNL     1     -38.433  39.059 -59.049  1.00  0.00     0.032 A 
ENDBRANCH  15  18
ENDBRANCH   1  14
TORSDOF 3
ENDMDL
MODEL 10
REMARK VINA RESULT:      -7.5     15.293     17.755
REMARK  3 active torsions:
REMARK  status: ('A' for Active; 'I' for Inactive)
REMARK    1  A    between atoms: C_9  and  C_10 
REMARK    2  A    between atoms: C_10  and  C_11 
REMARK       I    between atoms: C_11  and  N_12 
REMARK    3  A    between atoms: N_12  and  C_13 
ROOT
HETATM    1  C   UNL     1     -35.680  42.085 -55.285  1.00  0.00     0.165 C 
ENDROOT
BRANCH   1   2
HETATM    2  C   UNL     1     -36.216  40.877 -56.035  1.00  0.00     0.074 A 
HETATM    3  C   UNL     1     -36.683  41.034 -57.443  1.00  0.00     0.006 A 
HETATM    4  C   UNL     1     -36.700  42.256 -58.129  1.00  0.00     0.014 A 
HETATM    5  C   UNL     1     -37.143  39.889 -58.093  1.00  0.00     0.046 A 
HETATM    6  C   UNL     1     -37.144  42.314 -59.454  1.00  0.00     0.001 A 
HETATM    7  C   UNL     1     -37.582  41.159 -60.101  1.00  0.00     0.001 A 
HETATM    8  C   UNL     1     -37.587  39.945 -59.421  1.00  0.00     0.018 A 
HETATM    9  C   UNL     1     -37.186  38.615 -57.360  1.00  0.00     0.272 A 
HETATM   10  O   UNL     1     -37.576  37.581 -57.889  1.00  0.00    -0.266 OA
HETATM   11  N   UNL     1     -36.780  38.658 -56.049  1.00  0.00    -0.243 N 
HETATM   12  N   UNL     1     -36.304  39.748 -55.393  1.00  0.00    -0.175 NA
HETATM   13  H   UNL     1     -36.823  37.784 -55.534  1.00  0.00     0.192 HD
ENDBRANCH   1   2
BRANCH   1  14
HETATM   14  C   UNL     1     -35.309  41.933 -53.820  1.00  0.00     0.227 C 
HETATM   15  N   UNL     1     -34.372  40.962 -53.542  1.00  0.00    -0.327 N 
HETATM   16  H   UNL     1     -33.904  40.565 -54.357  1.00  0.00     0.169 HD
HETATM   17  O   UNL     1     -35.901  42.612 -52.982  1.00  0.00    -0.273 OA
BRANCH  15  18
HETATM   18  C   UNL     1     -33.914  40.531 -52.281  1.00  0.00     0.036 A 
HETATM   19  C   UNL     1     -34.728  39.933 -51.314  1.00  0.00     0.056 A 
HETATM   20  C   UNL     1     -34.183  39.523 -50.094  1.00  0.00     0.074 A 
HETATM   21 CL   UNL     1     -35.200  38.781 -48.917  1.00  0.00    -0.081 Cl
HETATM   22  C   UNL     1     -32.827  39.707 -49.837  1.00  0.00     0.138 A 
HETATM   23  F   UNL     1     -32.288  39.319 -48.673  1.00  0.00    -0.204 F 
HETATM   24  C   UNL     1     -32.006  40.299 -50.789  1.00  0.00     0.046 A 
HETATM   25  C   UNL     1     -32.548  40.708 -52.010  1.00  0.00     0.032 A 
ENDBRANCH  15  18
ENDBRANCH   1  14
TORSDOF 3
ENDMDL
