MODEL 1
REMARK VINA RESULT:      -8.9      0.000      0.000
REMARK  6 active torsions:
REMARK  status: ('A' for Active; 'I' for Inactive)
REMARK    1  A    between atoms: C_4  and  C_5 
REMARK    2  A    between atoms: C_5  and  N_6 
REMARK    3  A    between atoms: N_10  and  N_11 
REMARK       I    between atoms: N_11  and  C_12 
REMARK    4  A    between atoms: C_12  and  C_13 
REMARK       I    between atoms: C_13  and  N_14 
REMARK    5  A    between atoms: N_14  and  C_15 
REMARK    6  A    between atoms: C_18  and  O_19 
ROOT
HETATM    1  N   UNL     1     -42.370  55.900 -53.016  1.00  0.00    -0.307 N 
HETATM    2  C   UNL     1     -42.633  56.452 -54.257  1.00  0.00     0.280 A 
HETATM    3  O   UNL     1     -43.213  55.993 -55.220  1.00  0.00    -0.265 OA
HETATM    4  C   UNL     1     -42.035  57.857 -54.218  1.00  0.00     0.157 A 
HETATM    5  N   UNL     1     -42.021  58.761 -55.146  1.00  0.00    -0.165 NA
HETATM    6  C   UNL     1     -41.452  58.010 -52.893  1.00  0.00     0.027 A 
HETATM    7  C   UNL     1     -41.668  56.813 -52.208  1.00  0.00     0.050 A 
HETATM    8  C   UNL     1     -40.796  59.091 -52.335  1.00  0.00     0.016 A 
HETATM    9  C   UNL     1     -40.340  58.948 -51.025  1.00  0.00     0.001 A 
HETATM   10  C   UNL     1     -40.548  57.746 -50.320  1.00  0.00     0.002 A 
HETATM   11  C   UNL     1     -41.217  56.666 -50.911  1.00  0.00     0.031 A 
ENDROOT
BRANCH   5  12
HETATM   12  N   UNL     1     -42.605  58.435 -56.335  1.00  0.00    -0.238 N 
HETATM   13  C   UNL     1     -42.195  59.048 -57.503  1.00  0.00     0.329 C 
HETATM   14  O   UNL     1     -41.353  59.929 -57.640  1.00  0.00    -0.261 OA
HETATM   15  H   UNL     1     -43.322  57.702 -56.386  1.00  0.00     0.192 HD
BRANCH  13  16
HETATM   16  C   UNL     1     -42.902  58.498 -58.754  1.00  0.00     0.315 C 
HETATM   17  N   UNL     1     -44.175  58.053 -58.463  1.00  0.00    -0.319 N 
HETATM   18  H   UNL     1     -44.430  58.142 -57.481  1.00  0.00     0.169 HD
HETATM   19  O   UNL     1     -42.318  58.517 -59.828  1.00  0.00    -0.262 OA
BRANCH  17  20
HETATM   20  C   UNL     1     -45.135  57.531 -59.344  1.00  0.00     0.035 A 
HETATM   21  C   UNL     1     -45.125  56.215 -59.811  1.00  0.00     0.032 A 
HETATM   22  C   UNL     1     -46.112  55.771 -60.700  1.00  0.00     0.039 A 
HETATM   23  C   UNL     1     -47.106  56.648 -61.118  1.00  0.00     0.065 A 
HETATM   24  C   UNL     1     -47.132  57.958 -60.660  1.00  0.00     0.039 A 
HETATM   25  C   UNL     1     -46.148  58.399 -59.773  1.00  0.00     0.032 A 
BRANCH  23  26
HETATM   26  O   UNL     1     -48.081  56.258 -61.985  1.00  0.00    -0.361 OA
HETATM   27  H   UNL     1     -47.747  55.512 -62.511  1.00  0.00     0.217 HD
ENDBRANCH  23  26
ENDBRANCH  17  20
ENDBRANCH  13  16
ENDBRANCH   5  12
BRANCH   1  28
HETATM   28  C   UNL     1     -42.753  54.560 -52.639  1.00  0.00     0.171 C 
BRANCH  28  29
HETATM   29  C   UNL     1     -41.642  53.557 -52.835  1.00  0.00    -0.040 A 
HETATM   30  C   UNL     1     -40.816  53.175 -51.766  1.00  0.00     0.009 A 
HETATM   31  C   UNL     1     -39.796  52.242 -51.958  1.00  0.00     0.001 A 
HETATM   32  C   UNL     1     -39.585  51.683 -53.217  1.00  0.00     0.000 A 
HETATM   33  C   UNL     1     -40.395  52.056 -54.286  1.00  0.00     0.001 A 
HETATM   34  C   UNL     1     -41.415  52.989 -54.098  1.00  0.00     0.009 A 
ENDBRANCH  28  29
ENDBRANCH   1  28
TORSDOF 6
ENDMDL
MODEL 2
REMARK VINA RESULT:      -8.7      2.457      8.243
REMARK  6 active torsions:
REMARK  status: ('A' for Active; 'I' for Inactive)
REMARK    1  A    between atoms: C_4  and  C_5 
REMARK    2  A    between atoms: C_5  and  N_6 
REMARK    3  A    between atoms: N_10  and  N_11 
REMARK       I    between atoms: N_11  and  C_12 
REMARK    4  A    between atoms: C_12  and  C_13 
REMARK       I    between atoms: C_13  and  N_14 
REMARK    5  A    between atoms: N_14  and  C_15 
REMARK    6  A    between atoms: C_18  and  O_19 
ROOT
HETATM    1  N   UNL     1     -42.543  57.939 -57.458  1.00  0.00    -0.307 N 
HETATM    2  C   UNL     1     -42.496  57.145 -56.326  1.00  0.00     0.280 A 
HETATM    3  O   UNL     1     -42.280  55.956 -56.201  1.00  0.00    -0.265 OA
HETATM    4  C   UNL     1     -42.775  58.084 -55.153  1.00  0.00     0.157 A 
HETATM    5  N   UNL     1     -42.842  57.808 -53.890  1.00  0.00    -0.165 NA
HETATM    6  C   UNL     1     -42.964  59.406 -55.731  1.00  0.00     0.027 A 
HETATM    7  C   UNL     1     -42.825  59.273 -57.114  1.00  0.00     0.050 A 
HETATM    8  C   UNL     1     -43.232  60.612 -55.112  1.00  0.00     0.016 A 
HETATM    9  C   UNL     1     -43.363  61.731 -55.933  1.00  0.00     0.001 A 
HETATM   10  C   UNL     1     -43.226  61.615 -57.330  1.00  0.00     0.002 A 
HETATM   11  C   UNL     1     -42.954  60.379 -57.933  1.00  0.00     0.031 A 
ENDROOT
BRANCH   5  12
HETATM   12  N   UNL     1     -42.653  56.505 -53.529  1.00  0.00    -0.238 N 
HETATM   13  C   UNL     1     -41.776  56.184 -52.512  1.00  0.00     0.329 C 
HETATM   14  O   UNL     1     -41.064  56.940 -51.860  1.00  0.00    -0.261 OA
HETATM   15  H   UNL     1     -43.190  55.753 -53.977  1.00  0.00     0.192 HD
BRANCH  13  16
HETATM   16  C   UNL     1     -41.754  54.680 -52.187  1.00  0.00     0.315 C 
HETATM   17  N   UNL     1     -40.693  54.044 -52.798  1.00  0.00    -0.319 N 
HETATM   18  H   UNL     1     -40.117  54.659 -53.371  1.00  0.00     0.169 HD
HETATM   19  O   UNL     1     -42.612  54.215 -51.451  1.00  0.00    -0.262 OA
BRANCH  17  20
HETATM   20  C   UNL     1     -40.318  52.696 -52.703  1.00  0.00     0.035 A 
HETATM   21  C   UNL     1     -39.942  52.077 -51.508  1.00  0.00     0.032 A 
HETATM   22  C   UNL     1     -39.567  50.728 -51.496  1.00  0.00     0.039 A 
HETATM   23  C   UNL     1     -39.569  50.003 -52.682  1.00  0.00     0.065 A 
HETATM   24  C   UNL     1     -39.942  50.602 -53.877  1.00  0.00     0.039 A 
HETATM   25  C   UNL     1     -40.317  51.947 -53.888  1.00  0.00     0.032 A 
BRANCH  23  26
HETATM   26  O   UNL     1     -39.206  48.690 -52.714  1.00  0.00    -0.361 OA
HETATM   27  H   UNL     1     -39.900  48.189 -53.174  1.00  0.00     0.217 HD
ENDBRANCH  23  26
ENDBRANCH  17  20
ENDBRANCH  13  16
ENDBRANCH   5  12
BRANCH   1  28
HETATM   28  C   UNL     1     -42.350  57.435 -58.797  1.00  0.00     0.171 C 
BRANCH  28  29
HETATM   29  C   UNL     1     -43.574  56.737 -59.341  1.00  0.00    -0.040 A 
HETATM   30  C   UNL     1     -43.586  55.348 -59.537  1.00  0.00     0.009 A 
HETATM   31  C   UNL     1     -44.726  54.713 -60.035  1.00  0.00     0.001 A 
HETATM   32  C   UNL     1     -45.863  55.456 -60.345  1.00  0.00     0.000 A 
HETATM   33  C   UNL     1     -45.862  56.836 -60.158  1.00  0.00     0.001 A 
HETATM   34  C   UNL     1     -44.725  57.473 -59.661  1.00  0.00     0.009 A 
ENDBRANCH  28  29
ENDBRANCH   1  28
TORSDOF 6
ENDMDL
MODEL 3
REMARK VINA RESULT:      -8.6      2.702      8.113
REMARK  6 active torsions:
REMARK  status: ('A' for Active; 'I' for Inactive)
REMARK    1  A    between atoms: C_4  and  C_5 
REMARK    2  A    between atoms: C_5  and  N_6 
REMARK    3  A    between atoms: N_10  and  N_11 
REMARK       I    between atoms: N_11  and  C_12 
REMARK    4  A    between atoms: C_12  and  C_13 
REMARK       I    between atoms: C_13  and  N_14 
REMARK    5  A    between atoms: N_14  and  C_15 
REMARK    6  A    between atoms: C_18  and  O_19 
ROOT
HETATM    1  N   UNL     1     -43.708  58.166 -56.798  1.00  0.00    -0.307 N 
HETATM    2  C   UNL     1     -43.599  57.242 -55.775  1.00  0.00     0.280 A 
HETATM    3  O   UNL     1     -43.086  56.141 -55.755  1.00  0.00    -0.265 OA
HETATM    4  C   UNL     1     -44.276  57.883 -54.565  1.00  0.00     0.157 A 
HETATM    5  N   UNL     1     -44.432  57.404 -53.373  1.00  0.00    -0.165 NA
HETATM    6  C   UNL     1     -44.738  59.191 -55.009  1.00  0.00     0.027 A 
HETATM    7  C   UNL     1     -44.385  59.317 -56.354  1.00  0.00     0.050 A 
HETATM    8  C   UNL     1     -45.403  60.178 -54.307  1.00  0.00     0.016 A 
HETATM    9  C   UNL     1     -45.723  61.343 -55.002  1.00  0.00     0.001 A 
HETATM   10  C   UNL     1     -45.376  61.487 -56.360  1.00  0.00     0.002 A 
HETATM   11  C   UNL     1     -44.701  60.469 -57.047  1.00  0.00     0.031 A 
ENDROOT
BRANCH   5  12
HETATM   12  N   UNL     1     -43.946  56.151 -53.140  1.00  0.00    -0.238 N 
HETATM   13  C   UNL     1     -42.826  55.973 -52.352  1.00  0.00     0.329 C 
HETATM   14  O   UNL     1     -42.130  56.832 -51.821  1.00  0.00    -0.261 OA
HETATM   15  H   UNL     1     -44.429  55.323 -53.509  1.00  0.00     0.192 HD
BRANCH  13  16
HETATM   16  C   UNL     1     -42.472  54.491 -52.131  1.00  0.00     0.315 C 
HETATM   17  N   UNL     1     -41.448  54.085 -52.961  1.00  0.00    -0.319 N 
HETATM   18  H   UNL     1     -41.110  54.813 -53.589  1.00  0.00     0.169 HD
HETATM   19  O   UNL     1     -43.079  53.852 -51.284  1.00  0.00    -0.262 OA
BRANCH  17  20
HETATM   20  C   UNL     1     -40.825  52.829 -53.020  1.00  0.00     0.035 A 
HETATM   21  C   UNL     1     -40.078  52.283 -51.973  1.00  0.00     0.032 A 
HETATM   22  C   UNL     1     -39.474  51.028 -52.111  1.00  0.00     0.039 A 
HETATM   23  C   UNL     1     -39.620  50.322 -53.300  1.00  0.00     0.065 A 
HETATM   24  C   UNL     1     -40.361  50.848 -54.349  1.00  0.00     0.039 A 
HETATM   25  C   UNL     1     -40.964  52.101 -54.209  1.00  0.00     0.032 A 
BRANCH  23  26
HETATM   26  O   UNL     1     -39.045  49.100 -53.477  1.00  0.00    -0.361 OA
HETATM   27  H   UNL     1     -38.847  48.722 -52.604  1.00  0.00     0.217 HD
ENDBRANCH  23  26
ENDBRANCH  17  20
ENDBRANCH  13  16
ENDBRANCH   5  12
BRANCH   1  28
HETATM   28  C   UNL     1     -43.210  57.944 -58.134  1.00  0.00     0.171 C 
BRANCH  28  29
HETATM   29  C   UNL     1     -44.065  56.983 -58.925  1.00  0.00    -0.040 A 
HETATM   30  C   UNL     1     -45.365  57.330 -59.321  1.00  0.00     0.009 A 
HETATM   31  C   UNL     1     -46.144  56.435 -60.057  1.00  0.00     0.001 A 
HETATM   32  C   UNL     1     -45.636  55.185 -60.404  1.00  0.00     0.000 A 
HETATM   33  C   UNL     1     -44.348  54.827 -60.014  1.00  0.00     0.001 A 
HETATM   34  C   UNL     1     -43.568  55.719 -59.278  1.00  0.00     0.009 A 
ENDBRANCH  28  29
ENDBRANCH   1  28
TORSDOF 6
ENDMDL
MODEL 4
REMARK VINA RESULT:      -8.6      1.760      4.243
REMARK  6 active torsions:
REMARK  status: ('A' for Active; 'I' for Inactive)
REMARK    1  A    between atoms: C_4  and  C_5 
REMARK    2  A    between atoms: C_5  and  N_6 
REMARK    3  A    between atoms: N_10  and  N_11 
REMARK       I    between atoms: N_11  and  C_12 
REMARK    4  A    between atoms: C_12  and  C_13 
REMARK       I    between atoms: C_13  and  N_14 
REMARK    5  A    between atoms: N_14  and  C_15 
REMARK    6  A    between atoms: C_18  and  O_19 
ROOT
HETATM    1  N   UNL     1     -42.585  55.183 -52.408  1.00  0.00    -0.307 N 
HETATM    2  C   UNL     1     -43.141  55.506 -53.633  1.00  0.00     0.280 A 
HETATM    3  O   UNL     1     -43.971  56.343 -53.928  1.00  0.00    -0.265 OA
HETATM    4  C   UNL     1     -42.484  54.568 -54.644  1.00  0.00     0.157 A 
HETATM    5  N   UNL     1     -42.681  54.484 -55.921  1.00  0.00    -0.165 NA
HETATM    6  C   UNL     1     -41.554  53.745 -53.885  1.00  0.00     0.027 A 
HETATM    7  C   UNL     1     -41.651  54.140 -52.549  1.00  0.00     0.050 A 
HETATM    8  C   UNL     1     -40.703  52.746 -54.317  1.00  0.00     0.016 A 
HETATM    9  C   UNL     1     -39.916  52.122 -53.349  1.00  0.00     0.001 A 
HETATM   10  C   UNL     1     -40.002  52.507 -51.997  1.00  0.00     0.002 A 
HETATM   11  C   UNL     1     -40.875  53.524 -51.587  1.00  0.00     0.031 A 
ENDROOT
BRANCH   5  12
HETATM   12  N   UNL     1     -43.606  55.329 -56.462  1.00  0.00    -0.238 N 
HETATM   13  C   UNL     1     -43.204  56.476 -57.116  1.00  0.00     0.329 C 
HETATM   14  O   UNL     1     -42.063  56.902 -57.265  1.00  0.00    -0.261 OA
HETATM   15  H   UNL     1     -44.607  55.102 -56.429  1.00  0.00     0.192 HD
BRANCH  13  16
HETATM   16  C   UNL     1     -44.374  57.261 -57.733  1.00  0.00     0.315 C 
HETATM   17  N   UNL     1     -44.722  56.763 -58.972  1.00  0.00    -0.319 N 
HETATM   18  H   UNL     1     -44.147  55.981 -59.280  1.00  0.00     0.169 HD
HETATM   19  O   UNL     1     -44.870  58.186 -57.107  1.00  0.00    -0.262 OA
BRANCH  17  20
HETATM   20  C   UNL     1     -45.762  57.183 -59.816  1.00  0.00     0.035 A 
HETATM   21  C   UNL     1     -46.018  58.521 -60.126  1.00  0.00     0.032 A 
HETATM   22  C   UNL     1     -47.084  58.862 -60.967  1.00  0.00     0.039 A 
HETATM   23  C   UNL     1     -47.891  57.862 -61.495  1.00  0.00     0.065 A 
HETATM   24  C   UNL     1     -47.648  56.527 -61.200  1.00  0.00     0.039 A 
HETATM   25  C   UNL     1     -46.584  56.188 -60.361  1.00  0.00     0.032 A 
BRANCH  23  26
HETATM   26  O   UNL     1     -48.940  58.152 -62.314  1.00  0.00    -0.361 OA
HETATM   27  H   UNL     1     -48.732  57.833 -63.208  1.00  0.00     0.217 HD
ENDBRANCH  23  26
ENDBRANCH  17  20
ENDBRANCH  13  16
ENDBRANCH   5  12
BRANCH   1  28
HETATM   28  C   UNL     1     -42.949  55.826 -51.168  1.00  0.00     0.171 C 
BRANCH  28  29
HETATM   29  C   UNL     1     -42.335  57.197 -51.019  1.00  0.00    -0.040 A 
HETATM   30  C   UNL     1     -43.093  58.357 -51.242  1.00  0.00     0.009 A 
HETATM   31  C   UNL     1     -42.516  59.620 -51.095  1.00  0.00     0.001 A 
HETATM   32  C   UNL     1     -41.178  59.740 -50.726  1.00  0.00     0.000 A 
HETATM   33  C   UNL     1     -40.414  58.597 -50.504  1.00  0.00     0.001 A 
HETATM   34  C   UNL     1     -40.988  57.334 -50.652  1.00  0.00     0.009 A 
ENDBRANCH  28  29
ENDBRANCH   1  28
TORSDOF 6
ENDMDL
MODEL 5
REMARK VINA RESULT:      -8.3      2.736      5.229
REMARK  6 active torsions:
REMARK  status: ('A' for Active; 'I' for Inactive)
REMARK    1  A    between atoms: C_4  and  C_5 
REMARK    2  A    between atoms: C_5  and  N_6 
REMARK    3  A    between atoms: N_10  and  N_11 
REMARK       I    between atoms: N_11  and  C_12 
REMARK    4  A    between atoms: C_12  and  C_13 
REMARK       I    between atoms: C_13  and  N_14 
REMARK    5  A    between atoms: N_14  and  C_15 
REMARK    6  A    between atoms: C_18  and  O_19 
ROOT
HETATM    1  N   UNL     1     -40.998  55.319 -52.139  1.00  0.00    -0.307 N 
HETATM    2  C   UNL     1     -41.276  55.708 -53.437  1.00  0.00     0.280 A 
HETATM    3  O   UNL     1     -41.639  56.778 -53.882  1.00  0.00    -0.265 OA
HETATM    4  C   UNL     1     -41.022  54.473 -54.300  1.00  0.00     0.157 A 
HETATM    5  N   UNL     1     -41.150  54.337 -55.581  1.00  0.00    -0.165 NA
HETATM    6  C   UNL     1     -40.593  53.424 -53.386  1.00  0.00     0.027 A 
HETATM    7  C   UNL     1     -40.600  53.970 -52.101  1.00  0.00     0.050 A 
HETATM    8  C   UNL     1     -40.231  52.117 -53.648  1.00  0.00     0.016 A 
HETATM    9  C   UNL     1     -39.859  51.331 -52.558  1.00  0.00     0.001 A 
HETATM   10  C   UNL     1     -39.861  51.865 -51.255  1.00  0.00     0.002 A 
HETATM   11  C   UNL     1     -40.234  53.196 -51.018  1.00  0.00     0.031 A 
ENDROOT
BRANCH   5  12
HETATM   12  N   UNL     1     -41.579  55.427 -56.280  1.00  0.00    -0.238 N 
HETATM   13  C   UNL     1     -42.805  55.410 -56.915  1.00  0.00     0.329 C 
HETATM   14  O   UNL     1     -43.609  54.486 -56.983  1.00  0.00    -0.261 OA
HETATM   15  H   UNL     1     -41.020  56.288 -56.306  1.00  0.00     0.192 HD
BRANCH  13  16
HETATM   16  C   UNL     1     -43.161  56.751 -57.580  1.00  0.00     0.315 C 
HETATM   17  N   UNL     1     -42.048  57.357 -58.127  1.00  0.00    -0.319 N 
HETATM   18  H   UNL     1     -41.183  56.836 -57.988  1.00  0.00     0.169 HD
HETATM   19  O   UNL     1     -44.323  57.129 -57.580  1.00  0.00    -0.262 OA
BRANCH  17  20
HETATM   20  C   UNL     1     -41.980  58.558 -58.849  1.00  0.00     0.035 A 
HETATM   21  C   UNL     1     -42.133  58.639 -60.235  1.00  0.00     0.032 A 
HETATM   22  C   UNL     1     -42.038  59.875 -60.887  1.00  0.00     0.039 A 
HETATM   23  C   UNL     1     -41.791  61.025 -60.148  1.00  0.00     0.065 A 
HETATM   24  C   UNL     1     -41.641  60.962 -58.769  1.00  0.00     0.039 A 
HETATM   25  C   UNL     1     -41.735  59.729 -58.120  1.00  0.00     0.032 A 
BRANCH  23  26
HETATM   26  O   UNL     1     -41.688  62.246 -60.744  1.00  0.00    -0.361 OA
HETATM   27  H   UNL     1     -42.510  62.422 -61.232  1.00  0.00     0.217 HD
ENDBRANCH  23  26
ENDBRANCH  17  20
ENDBRANCH  13  16
ENDBRANCH   5  12
BRANCH   1  28
HETATM   28  C   UNL     1     -41.131  56.191 -50.996  1.00  0.00     0.171 C 
BRANCH  28  29
HETATM   29  C   UNL     1     -42.363  57.061 -51.065  1.00  0.00    -0.040 A 
HETATM   30  C   UNL     1     -42.259  58.450 -51.230  1.00  0.00     0.009 A 
HETATM   31  C   UNL     1     -43.406  59.243 -51.298  1.00  0.00     0.001 A 
HETATM   32  C   UNL     1     -44.668  58.660 -51.199  1.00  0.00     0.000 A 
HETATM   33  C   UNL     1     -44.785  57.283 -51.032  1.00  0.00     0.001 A 
HETATM   34  C   UNL     1     -43.640  56.488 -50.963  1.00  0.00     0.009 A 
ENDBRANCH  28  29
ENDBRANCH   1  28
TORSDOF 6
ENDMDL
MODEL 6
REMARK VINA RESULT:      -8.1      2.234      2.837
REMARK  6 active torsions:
REMARK  status: ('A' for Active; 'I' for Inactive)
REMARK    1  A    between atoms: C_4  and  C_5 
REMARK    2  A    between atoms: C_5  and  N_6 
REMARK    3  A    between atoms: N_10  and  N_11 
REMARK       I    between atoms: N_11  and  C_12 
REMARK    4  A    between atoms: C_12  and  C_13 
REMARK       I    between atoms: C_13  and  N_14 
REMARK    5  A    between atoms: N_14  and  C_15 
REMARK    6  A    between atoms: C_18  and  O_19 
ROOT
HETATM    1  N   UNL     1     -41.105  54.309 -53.656  1.00  0.00    -0.307 N 
HETATM    2  C   UNL     1     -42.033  54.886 -54.505  1.00  0.00     0.280 A 
HETATM    3  O   UNL     1     -42.074  54.930 -55.719  1.00  0.00    -0.265 OA
HETATM    4  C   UNL     1     -43.094  55.503 -53.597  1.00  0.00     0.157 A 
HETATM    5  N   UNL     1     -44.162  56.159 -53.925  1.00  0.00    -0.165 NA
HETATM    6  C   UNL     1     -42.676  55.214 -52.233  1.00  0.00     0.027 A 
HETATM    7  C   UNL     1     -41.476  54.505 -52.314  1.00  0.00     0.050 A 
HETATM    8  C   UNL     1     -43.282  55.538 -51.035  1.00  0.00     0.016 A 
HETATM    9  C   UNL     1     -42.642  55.123 -49.868  1.00  0.00     0.001 A 
HETATM   10  C   UNL     1     -41.431  54.407 -49.930  1.00  0.00     0.002 A 
HETATM   11  C   UNL     1     -40.837  54.091 -51.160  1.00  0.00     0.031 A 
ENDROOT
BRANCH   5  12
HETATM   12  N   UNL     1     -44.388  56.349 -55.257  1.00  0.00    -0.238 N 
HETATM   13  C   UNL     1     -44.362  57.621 -55.794  1.00  0.00     0.329 C 
HETATM   14  O   UNL     1     -44.191  58.686 -55.210  1.00  0.00    -0.261 OA
HETATM   15  H   UNL     1     -44.536  55.549 -55.884  1.00  0.00     0.192 HD
BRANCH  13  16
HETATM   16  C   UNL     1     -44.554  57.636 -57.321  1.00  0.00     0.315 C 
HETATM   17  N   UNL     1     -45.889  57.651 -57.664  1.00  0.00    -0.319 N 
HETATM   18  H   UNL     1     -46.522  57.632 -56.866  1.00  0.00     0.169 HD
HETATM   19  O   UNL     1     -43.570  57.648 -58.046  1.00  0.00    -0.262 OA
BRANCH  17  20
HETATM   20  C   UNL     1     -46.455  57.713 -58.947  1.00  0.00     0.035 A 
HETATM   21  C   UNL     1     -46.831  58.903 -59.573  1.00  0.00     0.032 A 
HETATM   22  C   UNL     1     -47.403  58.883 -60.851  1.00  0.00     0.039 A 
HETATM   23  C   UNL     1     -47.596  57.668 -61.498  1.00  0.00     0.065 A 
HETATM   24  C   UNL     1     -47.225  56.476 -60.892  1.00  0.00     0.039 A 
HETATM   25  C   UNL     1     -46.655  56.498 -59.617  1.00  0.00     0.032 A 
BRANCH  23  26
HETATM   26  O   UNL     1     -48.153  57.604 -62.740  1.00  0.00    -0.361 OA
HETATM   27  H   UNL     1     -49.086  57.866 -62.674  1.00  0.00     0.217 HD
ENDBRANCH  23  26
ENDBRANCH  17  20
ENDBRANCH  13  16
ENDBRANCH   5  12
BRANCH   1  28
HETATM   28  C   UNL     1     -39.917  53.628 -54.113  1.00  0.00     0.171 C 
BRANCH  28  29
HETATM   29  C   UNL     1     -39.871  52.181 -53.685  1.00  0.00    -0.040 A 
HETATM   30  C   UNL     1     -40.290  51.158 -54.549  1.00  0.00     0.009 A 
HETATM   31  C   UNL     1     -40.237  49.823 -54.145  1.00  0.00     0.001 A 
HETATM   32  C   UNL     1     -39.769  49.494 -52.874  1.00  0.00     0.000 A 
HETATM   33  C   UNL     1     -39.353  50.499 -52.006  1.00  0.00     0.001 A 
HETATM   34  C   UNL     1     -39.405  51.835 -52.407  1.00  0.00     0.009 A 
ENDBRANCH  28  29
ENDBRANCH   1  28
TORSDOF 6
ENDMDL
MODEL 7
REMARK VINA RESULT:      -8.0      3.170      7.930
REMARK  6 active torsions:
REMARK  status: ('A' for Active; 'I' for Inactive)
REMARK    1  A    between atoms: C_4  and  C_5 
REMARK    2  A    between atoms: C_5  and  N_6 
REMARK    3  A    between atoms: N_10  and  N_11 
REMARK       I    between atoms: N_11  and  C_12 
REMARK    4  A    between atoms: C_12  and  C_13 
REMARK       I    between atoms: C_13  and  N_14 
REMARK    5  A    between atoms: N_14  and  C_15 
REMARK    6  A    between atoms: C_18  and  O_19 
ROOT
HETATM    1  N   UNL     1     -44.993  58.619 -54.959  1.00  0.00    -0.307 N 
HETATM    2  C   UNL     1     -44.424  57.682 -54.115  1.00  0.00     0.280 A 
HETATM    3  O   UNL     1     -44.110  56.526 -54.314  1.00  0.00    -0.265 OA
HETATM    4  C   UNL     1     -44.226  58.397 -52.780  1.00  0.00     0.157 A 
HETATM    5  N   UNL     1     -43.732  57.935 -51.676  1.00  0.00    -0.165 NA
HETATM    6  C   UNL     1     -44.716  59.754 -52.973  1.00  0.00     0.027 A 
HETATM    7  C   UNL     1     -45.174  59.843 -54.289  1.00  0.00     0.050 A 
HETATM    8  C   UNL     1     -44.759  60.813 -52.086  1.00  0.00     0.016 A 
HETATM    9  C   UNL     1     -45.290  62.013 -52.557  1.00  0.00     0.001 A 
HETATM   10  C   UNL     1     -45.757  62.120 -53.882  1.00  0.00     0.002 A 
HETATM   11  C   UNL     1     -45.701  61.029 -54.760  1.00  0.00     0.031 A 
ENDROOT
BRANCH   5  12
HETATM   12  N   UNL     1     -43.336  56.629 -51.674  1.00  0.00    -0.238 N 
HETATM   13  C   UNL     1     -42.042  56.293 -51.327  1.00  0.00     0.329 C 
HETATM   14  O   UNL     1     -41.118  57.045 -51.035  1.00  0.00    -0.261 OA
HETATM   15  H   UNL     1     -44.003  55.878 -51.886  1.00  0.00     0.192 HD
BRANCH  13  16
HETATM   16  C   UNL     1     -41.799  54.774 -51.299  1.00  0.00     0.315 C 
HETATM   17  N   UNL     1     -41.035  54.363 -52.371  1.00  0.00    -0.319 N 
HETATM   18  H   UNL     1     -40.775  55.115 -53.007  1.00  0.00     0.169 HD
HETATM   19  O   UNL     1     -42.260  54.112 -50.381  1.00  0.00    -0.262 OA
BRANCH  17  20
HETATM   20  C   UNL     1     -40.570  53.070 -52.661  1.00  0.00     0.035 A 
HETATM   21  C   UNL     1     -39.868  52.276 -51.752  1.00  0.00     0.032 A 
HETATM   22  C   UNL     1     -39.425  51.000 -52.121  1.00  0.00     0.039 A 
HETATM   23  C   UNL     1     -39.687  50.524 -53.400  1.00  0.00     0.065 A 
HETATM   24  C   UNL     1     -40.387  51.299 -54.314  1.00  0.00     0.039 A 
HETATM   25  C   UNL     1     -40.829  52.572 -53.945  1.00  0.00     0.032 A 
BRANCH  23  26
HETATM   26  O   UNL     1     -39.270  49.290 -53.799  1.00  0.00    -0.361 OA
HETATM   27  H   UNL     1     -38.315  49.329 -53.977  1.00  0.00     0.217 HD
ENDBRANCH  23  26
ENDBRANCH  17  20
ENDBRANCH  13  16
ENDBRANCH   5  12
BRANCH   1  28
HETATM   28  C   UNL     1     -45.363  58.344 -56.327  1.00  0.00     0.171 C 
BRANCH  28  29
HETATM   29  C   UNL     1     -44.173  58.276 -57.253  1.00  0.00    -0.040 A 
HETATM   30  C   UNL     1     -43.339  59.389 -57.440  1.00  0.00     0.009 A 
HETATM   31  C   UNL     1     -42.237  59.313 -58.294  1.00  0.00     0.001 A 
HETATM   32  C   UNL     1     -41.958  58.128 -58.973  1.00  0.00     0.000 A 
HETATM   33  C   UNL     1     -42.780  57.018 -58.799  1.00  0.00     0.001 A 
HETATM   34  C   UNL     1     -43.882  57.091 -57.946  1.00  0.00     0.009 A 
ENDBRANCH  28  29
ENDBRANCH   1  28
TORSDOF 6
ENDMDL
MODEL 8
REMARK VINA RESULT:      -7.9     16.222     20.306
REMARK  6 active torsions:
REMARK  status: ('A' for Active; 'I' for Inactive)
REMARK    1  A    between atoms: C_4  and  C_5 
REMARK    2  A    between atoms: C_5  and  N_6 
REMARK    3  A    between atoms: N_10  and  N_11 
REMARK       I    between atoms: N_11  and  C_12 
REMARK    4  A    between atoms: C_12  and  C_13 
REMARK       I    between atoms: C_13  and  N_14 
REMARK    5  A    between atoms: N_14  and  C_15 
REMARK    6  A    between atoms: C_18  and  O_19 
ROOT
HETATM    1  N   UNL     1     -35.422  39.202 -57.247  1.00  0.00    -0.307 N 
HETATM    2  C   UNL     1     -35.106  39.942 -56.122  1.00  0.00     0.280 A 
HETATM    3  O   UNL     1     -34.521  39.626 -55.106  1.00  0.00    -0.265 OA
HETATM    4  C   UNL     1     -35.647  41.346 -56.388  1.00  0.00     0.157 A 
HETATM    5  N   UNL     1     -35.600  42.392 -55.626  1.00  0.00    -0.165 NA
HETATM    6  C   UNL     1     -36.256  41.300 -57.709  1.00  0.00     0.027 A 
HETATM    7  C   UNL     1     -36.107  39.996 -58.185  1.00  0.00     0.050 A 
HETATM    8  C   UNL     1     -36.882  42.299 -58.429  1.00  0.00     0.016 A 
HETATM    9  C   UNL     1     -37.376  41.959 -59.688  1.00  0.00     0.001 A 
HETATM   10  C   UNL     1     -37.235  40.648 -60.183  1.00  0.00     0.002 A 
HETATM   11  C   UNL     1     -36.596  39.653 -59.431  1.00  0.00     0.031 A 
ENDROOT
BRANCH   5  12
HETATM   12  N   UNL     1     -35.001  42.246 -54.409  1.00  0.00    -0.238 N 
HETATM   13  C   UNL     1     -35.763  42.190 -53.259  1.00  0.00     0.329 C 
HETATM   14  O   UNL     1     -36.980  42.295 -53.151  1.00  0.00    -0.261 OA
HETATM   15  H   UNL     1     -33.983  42.131 -54.335  1.00  0.00     0.192 HD
BRANCH  13  16
HETATM   16  C   UNL     1     -34.927  41.938 -51.992  1.00  0.00     0.315 C 
HETATM   17  N   UNL     1     -34.641  40.598 -51.830  1.00  0.00    -0.319 N 
HETATM   18  H   UNL     1     -35.037  40.001 -52.554  1.00  0.00     0.169 HD
HETATM   19  O   UNL     1     -34.598  42.887 -51.294  1.00  0.00    -0.262 OA
BRANCH  17  20
HETATM   20  C   UNL     1     -33.869  39.990 -50.829  1.00  0.00     0.035 A 
HETATM   21  C   UNL     1     -34.404  39.193 -49.814  1.00  0.00     0.032 A 
HETATM   22  C   UNL     1     -33.570  38.630 -48.840  1.00  0.00     0.039 A 
HETATM   23  C   UNL     1     -32.201  38.867 -48.887  1.00  0.00     0.065 A 
HETATM   24  C   UNL     1     -31.653  39.653 -49.891  1.00  0.00     0.039 A 
HETATM   25  C   UNL     1     -32.487  40.214 -50.862  1.00  0.00     0.032 A 
BRANCH  23  26
HETATM   26  O   UNL     1     -31.355  38.341 -47.957  1.00  0.00    -0.361 OA
HETATM   27  H   UNL     1     -30.549  38.883 -47.932  1.00  0.00     0.217 HD
ENDBRANCH  23  26
ENDBRANCH  17  20
ENDBRANCH  13  16
ENDBRANCH   5  12
BRANCH   1  28
HETATM   28  C   UNL     1     -35.104  37.802 -57.400  1.00  0.00     0.171 C 
BRANCH  28  29
HETATM   29  C   UNL     1     -33.816  37.574 -58.154  1.00  0.00    -0.040 A 
HETATM   30  C   UNL     1     -33.825  37.271 -59.524  1.00  0.00     0.009 A 
HETATM   31  C   UNL     1     -32.627  37.068 -60.212  1.00  0.00     0.001 A 
HETATM   32  C   UNL     1     -31.409  37.162 -59.542  1.00  0.00     0.000 A 
HETATM   33  C   UNL     1     -31.387  37.458 -58.182  1.00  0.00     0.001 A 
HETATM   34  C   UNL     1     -32.582  37.661 -57.491  1.00  0.00     0.009 A 
ENDBRANCH  28  29
ENDBRANCH   1  28
TORSDOF 6
ENDMDL
MODEL 9
REMARK VINA RESULT:      -7.9      2.317      4.655
REMARK  6 active torsions:
REMARK  status: ('A' for Active; 'I' for Inactive)
REMARK    1  A    between atoms: C_4  and  C_5 
REMARK    2  A    between atoms: C_5  and  N_6 
REMARK    3  A    between atoms: N_10  and  N_11 
REMARK       I    between atoms: N_11  and  C_12 
REMARK    4  A    between atoms: C_12  and  C_13 
REMARK       I    between atoms: C_13  and  N_14 
REMARK    5  A    between atoms: N_14  and  C_15 
REMARK    6  A    between atoms: C_18  and  O_19 
ROOT
HETATM    1  N   UNL     1     -43.015  55.597 -52.953  1.00  0.00    -0.307 N 
HETATM    2  C   UNL     1     -43.431  55.963 -54.220  1.00  0.00     0.280 A 
HETATM    3  O   UNL     1     -44.231  56.804 -54.578  1.00  0.00    -0.265 OA
HETATM    4  C   UNL     1     -42.651  55.070 -55.184  1.00  0.00     0.157 A 
HETATM    5  N   UNL     1     -42.699  55.034 -56.478  1.00  0.00    -0.165 NA
HETATM    6  C   UNL     1     -41.804  54.225 -54.355  1.00  0.00     0.027 A 
HETATM    7  C   UNL     1     -42.059  54.567 -53.025  1.00  0.00     0.050 A 
HETATM    8  C   UNL     1     -40.897  53.251 -54.723  1.00  0.00     0.016 A 
HETATM    9  C   UNL     1     -40.219  52.595 -53.696  1.00  0.00     0.001 A 
HETATM   10  C   UNL     1     -40.465  52.926 -52.349  1.00  0.00     0.002 A 
HETATM   11  C   UNL     1     -41.391  53.920 -52.004  1.00  0.00     0.031 A 
ENDROOT
BRANCH   5  12
HETATM   12  N   UNL     1     -43.566  55.892 -57.089  1.00  0.00    -0.238 N 
HETATM   13  C   UNL     1     -43.473  56.128 -58.447  1.00  0.00     0.329 C 
HETATM   14  O   UNL     1     -42.649  55.680 -59.237  1.00  0.00    -0.261 OA
HETATM   15  H   UNL     1     -44.324  56.339 -56.560  1.00  0.00     0.192 HD
BRANCH  13  16
HETATM   16  C   UNL     1     -44.581  57.054 -58.977  1.00  0.00     0.315 C 
HETATM   17  N   UNL     1     -44.916  58.024 -58.055  1.00  0.00    -0.319 N 
HETATM   18  H   UNL     1     -44.397  57.960 -57.180  1.00  0.00     0.169 HD
HETATM   19  O   UNL     1     -45.027  56.871 -60.100  1.00  0.00    -0.262 OA
BRANCH  17  20
HETATM   20  C   UNL     1     -45.843  59.069 -58.191  1.00  0.00     0.035 A 
HETATM   21  C   UNL     1     -45.505  60.355 -58.620  1.00  0.00     0.032 A 
HETATM   22  C   UNL     1     -46.486  61.349 -58.719  1.00  0.00     0.039 A 
HETATM   23  C   UNL     1     -47.802  61.052 -58.387  1.00  0.00     0.065 A 
HETATM   24  C   UNL     1     -48.155  59.779 -57.962  1.00  0.00     0.039 A 
HETATM   25  C   UNL     1     -47.176  58.788 -57.865  1.00  0.00     0.032 A 
BRANCH  23  26
HETATM   26  O   UNL     1     -48.785  61.993 -58.464  1.00  0.00    -0.361 OA
HETATM   27  H   UNL     1     -49.587  61.572 -58.818  1.00  0.00     0.217 HD
ENDBRANCH  23  26
ENDBRANCH  17  20
ENDBRANCH  13  16
ENDBRANCH   5  12
BRANCH   1  28
HETATM   28  C   UNL     1     -43.527  56.188 -51.740  1.00  0.00     0.171 C 
BRANCH  28  29
HETATM   29  C   UNL     1     -42.809  57.462 -51.362  1.00  0.00    -0.040 A 
HETATM   30  C   UNL     1     -43.405  58.716 -51.568  1.00  0.00     0.009 A 
HETATM   31  C   UNL     1     -42.733  59.886 -51.209  1.00  0.00     0.001 A 
HETATM   32  C   UNL     1     -41.461  59.819 -50.644  1.00  0.00     0.000 A 
HETATM   33  C   UNL     1     -40.858  58.581 -50.438  1.00  0.00     0.001 A 
HETATM   34  C   UNL     1     -41.526  57.410 -50.796  1.00  0.00     0.009 A 
ENDBRANCH  28  29
ENDBRANCH   1  28
TORSDOF 6
ENDMDL
MODEL 10
REMARK VINA RESULT:      -7.9      2.385      3.502
REMARK  6 active torsions:
REMARK  status: ('A' for Active; 'I' for Inactive)
REMARK    1  A    between atoms: C_4  and  C_5 
REMARK    2  A    between atoms: C_5  and  N_6 
REMARK    3  A    between atoms: N_10  and  N_11 
REMARK       I    between atoms: N_11  and  C_12 
REMARK    4  A    between atoms: C_12  and  C_13 
REMARK       I    between atoms: C_13  and  N_14 
REMARK    5  A    between atoms: N_14  and  C_15 
REMARK    6  A    between atoms: C_18  and  O_19 
ROOT
HETATM    1  N   UNL     1     -41.032  54.584 -53.180  1.00  0.00    -0.307 N 
HETATM    2  C   UNL     1     -42.094  55.409 -53.504  1.00  0.00     0.280 A 
HETATM    3  O   UNL     1     -42.497  55.792 -54.584  1.00  0.00    -0.265 OA
HETATM    4  C   UNL     1     -42.741  55.789 -52.174  1.00  0.00     0.157 A 
HETATM    5  N   UNL     1     -43.767  56.550 -51.957  1.00  0.00    -0.165 NA
HETATM    6  C   UNL     1     -41.967  55.116 -51.141  1.00  0.00     0.027 A 
HETATM    7  C   UNL     1     -40.948  54.412 -51.786  1.00  0.00     0.050 A 
HETATM    8  C   UNL     1     -42.134  55.116 -49.770  1.00  0.00     0.016 A 
HETATM    9  C   UNL     1     -41.226  54.368 -49.021  1.00  0.00     0.001 A 
HETATM   10  C   UNL     1     -40.192  53.652 -49.655  1.00  0.00     0.002 A 
HETATM   11  C   UNL     1     -40.046  53.670 -51.049  1.00  0.00     0.031 A 
ENDROOT
BRANCH   5  12
HETATM   12  N   UNL     1     -44.362  57.112 -53.049  1.00  0.00    -0.238 N 
HETATM   13  C   UNL     1     -44.267  58.472 -53.272  1.00  0.00     0.329 C 
HETATM   14  O   UNL     1     -43.721  59.318 -52.571  1.00  0.00    -0.261 OA
HETATM   15  H   UNL     1     -44.850  56.530 -53.739  1.00  0.00     0.192 HD
BRANCH  13  16
HETATM   16  C   UNL     1     -44.925  58.915 -54.591  1.00  0.00     0.315 C 
HETATM   17  N   UNL     1     -44.721  57.991 -55.595  1.00  0.00    -0.319 N 
HETATM   18  H   UNL     1     -44.162  57.188 -55.311  1.00  0.00     0.169 HD
HETATM   19  O   UNL     1     -45.543  59.969 -54.626  1.00  0.00    -0.262 OA
BRANCH  17  20
HETATM   20  C   UNL     1     -45.202  58.021 -56.913  1.00  0.00     0.035 A 
HETATM   21  C   UNL     1     -46.558  58.073 -57.244  1.00  0.00     0.032 A 
HETATM   22  C   UNL     1     -46.961  58.087 -58.585  1.00  0.00     0.039 A 
HETATM   23  C   UNL     1     -46.003  58.049 -59.591  1.00  0.00     0.065 A 
HETATM   24  C   UNL     1     -44.651  58.001 -59.280  1.00  0.00     0.039 A 
HETATM   25  C   UNL     1     -44.251  57.987 -57.941  1.00  0.00     0.032 A 
BRANCH  23  26
HETATM   26  O   UNL     1     -46.353  58.056 -60.907  1.00  0.00    -0.361 OA
HETATM   27  H   UNL     1     -46.820  58.887 -61.098  1.00  0.00     0.217 HD
ENDBRANCH  23  26
ENDBRANCH  17  20
ENDBRANCH  13  16
ENDBRANCH   5  12
BRANCH   1  28
HETATM   28  C   UNL     1     -40.135  54.013 -54.156  1.00  0.00     0.171 C 
BRANCH  28  29
HETATM   29  C   UNL     1     -40.172  52.504 -54.171  1.00  0.00    -0.040 A 
HETATM   30  C   UNL     1     -41.332  51.813 -54.551  1.00  0.00     0.009 A 
HETATM   31  C   UNL     1     -41.352  50.417 -54.567  1.00  0.00     0.001 A 
HETATM   32  C   UNL     1     -40.217  49.695 -54.203  1.00  0.00     0.000 A 
HETATM   33  C   UNL     1     -39.060  50.369 -53.821  1.00  0.00     0.001 A 
HETATM   34  C   UNL     1     -39.037  51.764 -53.803  1.00  0.00     0.009 A 
ENDBRANCH  28  29
ENDBRANCH   1  28
TORSDOF 6
ENDMDL
