MODEL 1
REMARK VINA RESULT:      -7.8      0.000      0.000
REMARK  9 active torsions:
REMARK  status: ('A' for Active; 'I' for Inactive)
REMARK    1  A    between atoms: O_2  and  C_3 
REMARK    2  A    between atoms: C_4  and  O_5 
REMARK    3  A    between atoms: O_5  and  C_6 
REMARK    4  A    between atoms: C_6  and  C_7 
REMARK    5  A    between atoms: C_7  and  C_8 
REMARK    6  A    between atoms: C_8  and  C_9 
REMARK    7  A    between atoms: C_9  and  N_10 
REMARK       I    between atoms: N_10  and  C_11 
REMARK    8  A    between atoms: C_11  and  C_12 
REMARK    9  A    between atoms: C_16  and  C_17 
ROOT
HETATM    1  N   UNL     1     -42.325  57.152 -52.658  1.00  0.00    -0.345 N 
HETATM    2  C   UNL     1     -41.615  57.842 -53.606  1.00  0.00     0.270 C 
HETATM    3  O   UNL     1     -40.569  58.428 -53.348  1.00  0.00    -0.266 OA
HETATM    4  H   UNL     1     -43.231  56.769 -52.882  1.00  0.00     0.163 HD
ENDROOT
BRANCH   2   5
HETATM    5  C   UNL     1     -42.186  57.840 -54.926  1.00  0.00     0.120 A 
HETATM    6  N   UNL     1     -42.042  58.904 -55.769  1.00  0.00    -0.272 N 
HETATM    7  H   UNL     1     -41.546  59.770 -55.575  1.00  0.00     0.189 HD
HETATM    8  N   UNL     1     -42.630  58.745 -56.963  1.00  0.00    -0.174 NA
HETATM    9  C   UNL     1     -43.180  57.521 -56.915  1.00  0.00     0.089 A 
HETATM   10  C   UNL     1     -42.925  56.923 -55.647  1.00  0.00     0.071 A 
BRANCH   9  11
HETATM   11  C   UNL     1     -43.918  56.963 -58.057  1.00  0.00    -0.003 A 
HETATM   12  C   UNL     1     -45.143  57.515 -58.467  1.00  0.00     0.053 A 
HETATM   13  C   UNL     1     -45.791  56.944 -59.545  1.00  0.00     0.106 A 
HETATM   14  C   UNL     1     -45.275  55.864 -60.219  1.00  0.00     0.105 A 
HETATM   15  O   UNL     1     -46.979  57.358 -60.062  1.00  0.00    -0.323 OA
HETATM   16  O   UNL     1     -46.071  55.461 -61.243  1.00  0.00    -0.323 OA
HETATM   17  C   UNL     1     -44.078  55.292 -59.853  1.00  0.00     0.040 A 
HETATM   18  C   UNL     1     -47.151  56.410 -61.138  1.00  0.00     0.352 A 
HETATM   19  C   UNL     1     -43.399  55.850 -58.763  1.00  0.00     0.017 A 
ENDBRANCH   9  11
ENDBRANCH   2   5
BRANCH   1  20
HETATM   20  C   UNL     1     -41.889  57.127 -51.288  1.00  0.00     0.217 C 
BRANCH  20  21
HETATM   21  C   UNL     1     -41.435  55.720 -50.935  1.00  0.00    -0.085 C 
BRANCH  21  22
HETATM   22  C   UNL     1     -41.046  54.513 -50.632  1.00  0.00    -0.078 C 
BRANCH  22  23
HETATM   23  C   UNL     1     -40.592  53.105 -50.279  1.00  0.00     0.269 C 
BRANCH  23  24
HETATM   24  O   UNL     1     -39.438  52.745 -51.038  1.00  0.00    -0.337 OA
BRANCH  24  25
HETATM   25  C   UNL     1     -39.587  51.801 -52.020  1.00  0.00     0.103 A 
HETATM   26  C   UNL     1     -39.984  52.230 -53.299  1.00  0.00     0.101 A 
HETATM   27  C   UNL     1     -40.247  51.284 -54.299  1.00  0.00     0.039 A 
HETATM   28  C   UNL     1     -40.094  49.921 -54.053  1.00  0.00     0.003 A 
HETATM   29  C   UNL     1     -39.693  49.492 -52.793  1.00  0.00     0.003 A 
HETATM   30  C   UNL     1     -39.450  50.425 -51.780  1.00  0.00     0.040 A 
BRANCH  26  31
HETATM   31  O   UNL     1     -40.197  53.522 -53.708  1.00  0.00    -0.353 OA
HETATM   32  C   UNL     1     -41.442  53.791 -54.339  1.00  0.00     0.210 C 
ENDBRANCH  26  31
ENDBRANCH  24  25
ENDBRANCH  23  24
ENDBRANCH  22  23
ENDBRANCH  21  22
ENDBRANCH  20  21
ENDBRANCH   1  20
TORSDOF 9
ENDMDL
MODEL 2
REMARK VINA RESULT:      -7.7      4.596      9.574
REMARK  9 active torsions:
REMARK  status: ('A' for Active; 'I' for Inactive)
REMARK    1  A    between atoms: O_2  and  C_3 
REMARK    2  A    between atoms: C_4  and  O_5 
REMARK    3  A    between atoms: O_5  and  C_6 
REMARK    4  A    between atoms: C_6  and  C_7 
REMARK    5  A    between atoms: C_7  and  C_8 
REMARK    6  A    between atoms: C_8  and  C_9 
REMARK    7  A    between atoms: C_9  and  N_10 
REMARK       I    between atoms: N_10  and  C_11 
REMARK    8  A    between atoms: C_11  and  C_12 
REMARK    9  A    between atoms: C_16  and  C_17 
ROOT
HETATM    1  N   UNL     1     -42.674  59.032 -53.642  1.00  0.00    -0.345 N 
HETATM    2  C   UNL     1     -41.393  58.546 -53.680  1.00  0.00     0.270 C 
HETATM    3  O   UNL     1     -40.409  59.272 -53.578  1.00  0.00    -0.266 OA
HETATM    4  H   UNL     1     -43.453  58.421 -53.829  1.00  0.00     0.163 HD
ENDROOT
BRANCH   2   5
HETATM    5  C   UNL     1     -41.279  57.123 -53.855  1.00  0.00     0.120 A 
HETATM    6  N   UNL     1     -41.733  56.502 -54.984  1.00  0.00    -0.272 N 
HETATM    7  H   UNL     1     -42.178  56.945 -55.783  1.00  0.00     0.189 HD
HETATM    8  N   UNL     1     -41.550  55.174 -54.994  1.00  0.00    -0.174 NA
HETATM    9  C   UNL     1     -40.942  54.902 -53.828  1.00  0.00     0.089 A 
HETATM   10  C   UNL     1     -40.757  56.103 -53.084  1.00  0.00     0.071 A 
BRANCH   9  11
HETATM   11  C   UNL     1     -40.556  53.532 -53.463  1.00  0.00    -0.003 A 
HETATM   12  C   UNL     1     -40.474  53.137 -52.117  1.00  0.00     0.053 A 
HETATM   13  C   UNL     1     -40.101  51.837 -51.837  1.00  0.00     0.106 A 
HETATM   14  C   UNL     1     -39.813  50.930 -52.828  1.00  0.00     0.105 A 
HETATM   15  O   UNL     1     -39.976  51.302 -50.593  1.00  0.00    -0.323 OA
HETATM   16  O   UNL     1     -39.468  49.712 -52.335  1.00  0.00    -0.323 OA
HETATM   17  C   UNL     1     -39.880  51.273 -54.159  1.00  0.00     0.040 A 
HETATM   18  C   UNL     1     -39.571  49.954 -50.917  1.00  0.00     0.352 A 
HETATM   19  C   UNL     1     -40.256  52.585 -54.473  1.00  0.00     0.017 A 
ENDBRANCH   9  11
ENDBRANCH   2   5
BRANCH   1  20
HETATM   20  C   UNL     1     -42.920  60.445 -53.528  1.00  0.00     0.217 C 
BRANCH  20  21
HETATM   21  C   UNL     1     -44.013  60.679 -52.499  1.00  0.00    -0.085 C 
BRANCH  21  22
HETATM   22  C   UNL     1     -44.951  60.880 -51.616  1.00  0.00    -0.078 C 
BRANCH  22  23
HETATM   23  C   UNL     1     -46.045  61.113 -50.585  1.00  0.00     0.269 C 
BRANCH  23  24
HETATM   24  O   UNL     1     -45.830  60.300 -49.432  1.00  0.00    -0.337 OA
BRANCH  24  25
HETATM   25  C   UNL     1     -45.596  60.930 -48.238  1.00  0.00     0.103 A 
HETATM   26  C   UNL     1     -46.016  60.293 -47.057  1.00  0.00     0.101 A 
HETATM   27  C   UNL     1     -45.889  60.954 -45.827  1.00  0.00     0.039 A 
HETATM   28  C   UNL     1     -45.325  62.225 -45.753  1.00  0.00     0.003 A 
HETATM   29  C   UNL     1     -44.900  62.856 -46.916  1.00  0.00     0.003 A 
HETATM   30  C   UNL     1     -45.043  62.217 -48.152  1.00  0.00     0.040 A 
BRANCH  26  31
HETATM   31  O   UNL     1     -46.602  59.058 -46.949  1.00  0.00    -0.353 OA
HETATM   32  C   UNL     1     -46.971  58.642 -45.640  1.00  0.00     0.210 C 
ENDBRANCH  26  31
ENDBRANCH  24  25
ENDBRANCH  23  24
ENDBRANCH  22  23
ENDBRANCH  21  22
ENDBRANCH  20  21
ENDBRANCH   1  20
TORSDOF 9
ENDMDL
MODEL 3
REMARK VINA RESULT:      -7.6      1.128      1.428
REMARK  9 active torsions:
REMARK  status: ('A' for Active; 'I' for Inactive)
REMARK    1  A    between atoms: O_2  and  C_3 
REMARK    2  A    between atoms: C_4  and  O_5 
REMARK    3  A    between atoms: O_5  and  C_6 
REMARK    4  A    between atoms: C_6  and  C_7 
REMARK    5  A    between atoms: C_7  and  C_8 
REMARK    6  A    between atoms: C_8  and  C_9 
REMARK    7  A    between atoms: C_9  and  N_10 
REMARK       I    between atoms: N_10  and  C_11 
REMARK    8  A    between atoms: C_11  and  C_12 
REMARK    9  A    between atoms: C_16  and  C_17 
ROOT
HETATM    1  N   UNL     1     -42.224  58.592 -52.569  1.00  0.00    -0.345 N 
HETATM    2  C   UNL     1     -41.409  58.864 -53.636  1.00  0.00     0.270 C 
HETATM    3  O   UNL     1     -40.241  59.214 -53.501  1.00  0.00    -0.266 OA
HETATM    4  H   UNL     1     -43.204  58.405 -52.715  1.00  0.00     0.163 HD
ENDROOT
BRANCH   2   5
HETATM    5  C   UNL     1     -42.018  58.719 -54.931  1.00  0.00     0.120 A 
HETATM    6  N   UNL     1     -42.106  59.768 -55.802  1.00  0.00    -0.272 N 
HETATM    7  H   UNL     1     -41.773  60.715 -55.647  1.00  0.00     0.189 HD
HETATM    8  N   UNL     1     -42.699  59.468 -56.966  1.00  0.00    -0.174 NA
HETATM    9  C   UNL     1     -43.011  58.166 -56.869  1.00  0.00     0.089 A 
HETATM   10  C   UNL     1     -42.601  57.661 -55.601  1.00  0.00     0.071 A 
BRANCH   9  11
HETATM   11  C   UNL     1     -43.674  57.449 -57.967  1.00  0.00    -0.003 A 
HETATM   12  C   UNL     1     -45.006  57.731 -58.315  1.00  0.00     0.053 A 
HETATM   13  C   UNL     1     -45.576  57.021 -59.353  1.00  0.00     0.106 A 
HETATM   14  C   UNL     1     -44.883  56.058 -60.047  1.00  0.00     0.105 A 
HETATM   15  O   UNL     1     -46.848  57.173 -59.809  1.00  0.00    -0.323 OA
HETATM   16  O   UNL     1     -45.630  55.483 -61.025  1.00  0.00    -0.323 OA
HETATM   17  C   UNL     1     -43.578  55.750 -59.741  1.00  0.00     0.040 A 
HETATM   18  C   UNL     1     -46.876  56.192 -60.869  1.00  0.00     0.352 A 
HETATM   19  C   UNL     1     -42.974  56.454 -58.693  1.00  0.00     0.017 A 
ENDBRANCH   9  11
ENDBRANCH   2   5
BRANCH   1  20
HETATM   20  C   UNL     1     -41.749  58.755 -51.221  1.00  0.00     0.217 C 
BRANCH  20  21
HETATM   21  C   UNL     1     -41.359  57.396 -50.663  1.00  0.00    -0.085 C 
BRANCH  21  22
HETATM   22  C   UNL     1     -41.024  56.231 -50.183  1.00  0.00    -0.078 C 
BRANCH  22  23
HETATM   23  C   UNL     1     -40.634  54.872 -49.623  1.00  0.00     0.269 C 
BRANCH  23  24
HETATM   24  O   UNL     1     -41.379  53.834 -50.260  1.00  0.00    -0.337 OA
BRANCH  24  25
HETATM   25  C   UNL     1     -40.838  53.248 -51.374  1.00  0.00     0.103 A 
HETATM   26  C   UNL     1     -41.260  53.703 -52.635  1.00  0.00     0.101 A 
HETATM   27  C   UNL     1     -40.808  53.057 -53.795  1.00  0.00     0.039 A 
HETATM   28  C   UNL     1     -39.922  51.985 -53.717  1.00  0.00     0.003 A 
HETATM   29  C   UNL     1     -39.494  51.537 -52.472  1.00  0.00     0.003 A 
HETATM   30  C   UNL     1     -39.957  52.158 -51.308  1.00  0.00     0.040 A 
BRANCH  26  31
HETATM   31  O   UNL     1     -42.135  54.727 -52.893  1.00  0.00    -0.353 OA
HETATM   32  C   UNL     1     -43.213  54.435 -53.773  1.00  0.00     0.210 C 
ENDBRANCH  26  31
ENDBRANCH  24  25
ENDBRANCH  23  24
ENDBRANCH  22  23
ENDBRANCH  21  22
ENDBRANCH  20  21
ENDBRANCH   1  20
TORSDOF 9
ENDMDL
MODEL 4
REMARK VINA RESULT:      -7.5      1.880      8.522
REMARK  9 active torsions:
REMARK  status: ('A' for Active; 'I' for Inactive)
REMARK    1  A    between atoms: O_2  and  C_3 
REMARK    2  A    between atoms: C_4  and  O_5 
REMARK    3  A    between atoms: O_5  and  C_6 
REMARK    4  A    between atoms: C_6  and  C_7 
REMARK    5  A    between atoms: C_7  and  C_8 
REMARK    6  A    between atoms: C_8  and  C_9 
REMARK    7  A    between atoms: C_9  and  N_10 
REMARK       I    between atoms: N_10  and  C_11 
REMARK    8  A    between atoms: C_11  and  C_12 
REMARK    9  A    between atoms: C_16  and  C_17 
ROOT
HETATM    1  N   UNL     1     -43.207  58.485 -53.651  1.00  0.00    -0.345 N 
HETATM    2  C   UNL     1     -41.863  58.215 -53.673  1.00  0.00     0.270 C 
HETATM    3  O   UNL     1     -41.035  59.029 -54.069  1.00  0.00    -0.266 OA
HETATM    4  H   UNL     1     -43.865  57.758 -53.414  1.00  0.00     0.163 HD
ENDROOT
BRANCH   2   5
HETATM    5  C   UNL     1     -41.489  56.908 -53.206  1.00  0.00     0.120 A 
HETATM    6  N   UNL     1     -41.355  56.634 -51.875  1.00  0.00    -0.272 N 
HETATM    7  H   UNL     1     -41.495  57.283 -51.105  1.00  0.00     0.189 HD
HETATM    8  N   UNL     1     -41.003  55.369 -51.604  1.00  0.00    -0.174 NA
HETATM    9  C   UNL     1     -40.907  54.776 -52.804  1.00  0.00     0.089 A 
HETATM   10  C   UNL     1     -41.202  55.712 -53.836  1.00  0.00     0.071 A 
BRANCH   9  11
HETATM   11  C   UNL     1     -40.547  53.357 -52.934  1.00  0.00    -0.003 A 
HETATM   12  C   UNL     1     -40.189  52.595 -51.809  1.00  0.00     0.053 A 
HETATM   13  C   UNL     1     -39.857  51.267 -51.995  1.00  0.00     0.106 A 
HETATM   14  C   UNL     1     -39.869  50.678 -53.237  1.00  0.00     0.105 A 
HETATM   15  O   UNL     1     -39.490  50.400 -51.014  1.00  0.00    -0.323 OA
HETATM   16  O   UNL     1     -39.510  49.369 -53.195  1.00  0.00    -0.323 OA
HETATM   17  C   UNL     1     -40.214  51.385 -54.365  1.00  0.00     0.040 A 
HETATM   18  C   UNL     1     -39.268  49.198 -51.783  1.00  0.00     0.352 A 
HETATM   19  C   UNL     1     -40.555  52.734 -54.207  1.00  0.00     0.017 A 
ENDBRANCH   9  11
ENDBRANCH   2   5
BRANCH   1  20
HETATM   20  C   UNL     1     -43.713  59.736 -54.145  1.00  0.00     0.217 C 
BRANCH  20  21
HETATM   21  C   UNL     1     -44.602  59.473 -55.350  1.00  0.00    -0.085 C 
BRANCH  21  22
HETATM   22  C   UNL     1     -45.364  59.247 -56.384  1.00  0.00    -0.078 C 
BRANCH  22  23
HETATM   23  C   UNL     1     -46.252  58.983 -57.589  1.00  0.00     0.269 C 
BRANCH  23  24
HETATM   24  O   UNL     1     -45.463  58.791 -58.762  1.00  0.00    -0.337 OA
BRANCH  24  25
HETATM   25  C   UNL     1     -45.246  57.507 -59.187  1.00  0.00     0.103 A 
HETATM   26  C   UNL     1     -43.980  56.938 -58.967  1.00  0.00     0.101 A 
HETATM   27  C   UNL     1     -43.689  55.666 -59.480  1.00  0.00     0.039 A 
HETATM   28  C   UNL     1     -44.649  54.943 -60.184  1.00  0.00     0.003 A 
HETATM   29  C   UNL     1     -45.907  55.496 -60.396  1.00  0.00     0.003 A 
HETATM   30  C   UNL     1     -46.200  56.774 -59.910  1.00  0.00     0.040 A 
BRANCH  26  31
HETATM   31  O   UNL     1     -42.919  57.512 -58.314  1.00  0.00    -0.353 OA
HETATM   32  C   UNL     1     -42.552  56.934 -57.068  1.00  0.00     0.210 C 
ENDBRANCH  26  31
ENDBRANCH  24  25
ENDBRANCH  23  24
ENDBRANCH  22  23
ENDBRANCH  21  22
ENDBRANCH  20  21
ENDBRANCH   1  20
TORSDOF 9
ENDMDL
MODEL 5
REMARK VINA RESULT:      -7.5      1.965      8.769
REMARK  9 active torsions:
REMARK  status: ('A' for Active; 'I' for Inactive)
REMARK    1  A    between atoms: O_2  and  C_3 
REMARK    2  A    between atoms: C_4  and  O_5 
REMARK    3  A    between atoms: O_5  and  C_6 
REMARK    4  A    between atoms: C_6  and  C_7 
REMARK    5  A    between atoms: C_7  and  C_8 
REMARK    6  A    between atoms: C_8  and  C_9 
REMARK    7  A    between atoms: C_9  and  N_10 
REMARK       I    between atoms: N_10  and  C_11 
REMARK    8  A    between atoms: C_11  and  C_12 
REMARK    9  A    between atoms: C_16  and  C_17 
ROOT
HETATM    1  N   UNL     1     -42.052  58.735 -55.026  1.00  0.00    -0.345 N 
HETATM    2  C   UNL     1     -41.189  58.482 -53.992  1.00  0.00     0.270 C 
HETATM    3  O   UNL     1     -40.482  59.353 -53.496  1.00  0.00    -0.266 OA
HETATM    4  H   UNL     1     -42.541  57.976 -55.474  1.00  0.00     0.163 HD
ENDROOT
BRANCH   2   5
HETATM    5  C   UNL     1     -41.162  57.121 -53.530  1.00  0.00     0.120 A 
HETATM    6  N   UNL     1     -41.790  56.743 -52.378  1.00  0.00    -0.272 N 
HETATM    7  H   UNL     1     -42.317  57.342 -51.749  1.00  0.00     0.189 HD
HETATM    8  N   UNL     1     -41.673  55.439 -52.088  1.00  0.00    -0.174 NA
HETATM    9  C   UNL     1     -40.944  54.928 -53.092  1.00  0.00     0.089 A 
HETATM   10  C   UNL     1     -40.601  55.956 -54.017  1.00  0.00     0.071 A 
BRANCH   9  11
HETATM   11  C   UNL     1     -40.603  53.500 -53.146  1.00  0.00    -0.003 A 
HETATM   12  C   UNL     1     -40.259  52.793 -51.981  1.00  0.00     0.053 A 
HETATM   13  C   UNL     1     -39.944  51.453 -52.097  1.00  0.00     0.106 A 
HETATM   14  C   UNL     1     -39.959  50.800 -53.306  1.00  0.00     0.105 A 
HETATM   15  O   UNL     1     -39.592  50.633 -51.070  1.00  0.00    -0.323 OA
HETATM   16  O   UNL     1     -39.618  49.490 -53.195  1.00  0.00    -0.323 OA
HETATM   17  C   UNL     1     -40.291  51.452 -54.471  1.00  0.00     0.040 A 
HETATM   18  C   UNL     1     -39.384  49.390 -51.775  1.00  0.00     0.352 A 
HETATM   19  C   UNL     1     -40.614  52.811 -54.385  1.00  0.00     0.017 A 
ENDBRANCH   9  11
ENDBRANCH   2   5
BRANCH   1  20
HETATM   20  C   UNL     1     -42.129  60.045 -55.615  1.00  0.00     0.217 C 
BRANCH  20  21
HETATM   21  C   UNL     1     -42.044  59.918 -57.127  1.00  0.00    -0.085 C 
BRANCH  21  22
HETATM   22  C   UNL     1     -41.969  59.809 -58.424  1.00  0.00    -0.078 C 
BRANCH  22  23
HETATM   23  C   UNL     1     -41.883  59.683 -59.937  1.00  0.00     0.269 C 
BRANCH  23  24
HETATM   24  O   UNL     1     -43.126  59.232 -60.475  1.00  0.00    -0.337 OA
BRANCH  24  25
HETATM   25  C   UNL     1     -43.489  57.930 -60.247  1.00  0.00     0.103 A 
HETATM   26  C   UNL     1     -44.859  57.618 -60.216  1.00  0.00     0.101 A 
HETATM   27  C   UNL     1     -45.269  56.320 -59.882  1.00  0.00     0.039 A 
HETATM   28  C   UNL     1     -44.336  55.323 -59.607  1.00  0.00     0.003 A 
HETATM   29  C   UNL     1     -42.979  55.624 -59.646  1.00  0.00     0.003 A 
HETATM   30  C   UNL     1     -42.559  56.922 -59.954  1.00  0.00     0.040 A 
BRANCH  26  31
HETATM   31  O   UNL     1     -45.907  58.474 -60.443  1.00  0.00    -0.353 OA
HETATM   32  C   UNL     1     -47.141  58.147 -59.818  1.00  0.00     0.210 C 
ENDBRANCH  26  31
ENDBRANCH  24  25
ENDBRANCH  23  24
ENDBRANCH  22  23
ENDBRANCH  21  22
ENDBRANCH  20  21
ENDBRANCH   1  20
TORSDOF 9
ENDMDL
MODEL 6
REMARK VINA RESULT:      -7.5      5.003      9.788
REMARK  9 active torsions:
REMARK  status: ('A' for Active; 'I' for Inactive)
REMARK    1  A    between atoms: O_2  and  C_3 
REMARK    2  A    between atoms: C_4  and  O_5 
REMARK    3  A    between atoms: O_5  and  C_6 
REMARK    4  A    between atoms: C_6  and  C_7 
REMARK    5  A    between atoms: C_7  and  C_8 
REMARK    6  A    between atoms: C_8  and  C_9 
REMARK    7  A    between atoms: C_9  and  N_10 
REMARK       I    between atoms: N_10  and  C_11 
REMARK    8  A    between atoms: C_11  and  C_12 
REMARK    9  A    between atoms: C_16  and  C_17 
ROOT
HETATM    1  N   UNL     1     -42.574  58.586 -52.683  1.00  0.00    -0.345 N 
HETATM    2  C   UNL     1     -41.748  58.352 -51.614  1.00  0.00     0.270 C 
HETATM    3  O   UNL     1     -41.307  59.256 -50.912  1.00  0.00    -0.266 OA
HETATM    4  H   UNL     1     -42.835  57.829 -53.296  1.00  0.00     0.163 HD
ENDROOT
BRANCH   2   5
HETATM    5  C   UNL     1     -41.427  56.971 -51.374  1.00  0.00     0.120 A 
HETATM    6  N   UNL     1     -41.440  56.442 -50.115  1.00  0.00    -0.272 N 
HETATM    7  H   UNL     1     -41.664  56.931 -49.253  1.00  0.00     0.189 HD
HETATM    8  N   UNL     1     -41.120  55.141 -50.061  1.00  0.00    -0.174 NA
HETATM    9  C   UNL     1     -40.892  54.790 -51.336  1.00  0.00     0.089 A 
HETATM   10  C   UNL     1     -41.072  55.915 -52.191  1.00  0.00     0.071 A 
BRANCH   9  11
HETATM   11  C   UNL     1     -40.519  53.416 -51.701  1.00  0.00    -0.003 A 
HETATM   12  C   UNL     1     -40.448  53.018 -53.047  1.00  0.00     0.053 A 
HETATM   13  C   UNL     1     -40.097  51.711 -53.326  1.00  0.00     0.106 A 
HETATM   14  C   UNL     1     -39.818  50.802 -52.335  1.00  0.00     0.105 A 
HETATM   15  O   UNL     1     -39.985  51.173 -54.570  1.00  0.00    -0.323 OA
HETATM   16  O   UNL     1     -39.497  49.577 -52.828  1.00  0.00    -0.323 OA
HETATM   17  C   UNL     1     -39.874  51.147 -51.005  1.00  0.00     0.040 A 
HETATM   18  C   UNL     1     -39.607  49.817 -54.246  1.00  0.00     0.352 A 
HETATM   19  C   UNL     1     -40.228  52.465 -50.691  1.00  0.00     0.017 A 
ENDBRANCH   9  11
ENDBRANCH   2   5
BRANCH   1  20
HETATM   20  C   UNL     1     -42.923  59.928 -53.061  1.00  0.00     0.217 C 
BRANCH  20  21
HETATM   21  C   UNL     1     -44.021  60.436 -52.141  1.00  0.00    -0.085 C 
BRANCH  21  22
HETATM   22  C   UNL     1     -44.963  60.870 -51.351  1.00  0.00    -0.078 C 
BRANCH  22  23
HETATM   23  C   UNL     1     -46.062  61.378 -50.430  1.00  0.00     0.269 C 
BRANCH  23  24
HETATM   24  O   UNL     1     -46.171  60.549 -49.273  1.00  0.00    -0.337 OA
BRANCH  24  25
HETATM   25  C   UNL     1     -45.778  61.072 -48.070  1.00  0.00     0.103 A 
HETATM   26  C   UNL     1     -46.015  60.318 -46.907  1.00  0.00     0.101 A 
HETATM   27  C   UNL     1     -45.723  60.866 -45.650  1.00  0.00     0.039 A 
HETATM   28  C   UNL     1     -45.174  62.141 -45.536  1.00  0.00     0.003 A 
HETATM   29  C   UNL     1     -44.929  62.888 -46.682  1.00  0.00     0.003 A 
HETATM   30  C   UNL     1     -45.239  62.362 -47.940  1.00  0.00     0.040 A 
BRANCH  26  31
HETATM   31  O   UNL     1     -46.560  59.061 -46.836  1.00  0.00    -0.353 OA
HETATM   32  C   UNL     1     -47.103  58.675 -45.579  1.00  0.00     0.210 C 
ENDBRANCH  26  31
ENDBRANCH  24  25
ENDBRANCH  23  24
ENDBRANCH  22  23
ENDBRANCH  21  22
ENDBRANCH  20  21
ENDBRANCH   1  20
TORSDOF 9
ENDMDL
MODEL 7
REMARK VINA RESULT:      -7.3      1.722      2.605
REMARK  9 active torsions:
REMARK  status: ('A' for Active; 'I' for Inactive)
REMARK    1  A    between atoms: O_2  and  C_3 
REMARK    2  A    between atoms: C_4  and  O_5 
REMARK    3  A    between atoms: O_5  and  C_6 
REMARK    4  A    between atoms: C_6  and  C_7 
REMARK    5  A    between atoms: C_7  and  C_8 
REMARK    6  A    between atoms: C_8  and  C_9 
REMARK    7  A    between atoms: C_9  and  N_10 
REMARK       I    between atoms: N_10  and  C_11 
REMARK    8  A    between atoms: C_11  and  C_12 
REMARK    9  A    between atoms: C_16  and  C_17 
ROOT
HETATM    1  N   UNL     1     -40.949  58.852 -52.893  1.00  0.00    -0.345 N 
HETATM    2  C   UNL     1     -41.690  59.827 -53.508  1.00  0.00     0.270 C 
HETATM    3  O   UNL     1     -42.024  60.860 -52.937  1.00  0.00    -0.266 OA
HETATM    4  H   UNL     1     -40.780  57.975 -53.360  1.00  0.00     0.163 HD
ENDROOT
BRANCH   2   5
HETATM    5  C   UNL     1     -42.057  59.555 -54.872  1.00  0.00     0.120 A 
HETATM    6  N   UNL     1     -42.101  60.544 -55.812  1.00  0.00    -0.272 N 
HETATM    7  H   UNL     1     -41.894  61.528 -55.668  1.00  0.00     0.189 HD
HETATM    8  N   UNL     1     -42.458  60.126 -57.035  1.00  0.00    -0.174 NA
HETATM    9  C   UNL     1     -42.651  58.804 -56.904  1.00  0.00     0.089 A 
HETATM   10  C   UNL     1     -42.411  58.408 -55.557  1.00  0.00     0.071 A 
BRANCH   9  11
HETATM   11  C   UNL     1     -43.047  57.967 -58.045  1.00  0.00    -0.003 A 
HETATM   12  C   UNL     1     -44.383  57.569 -58.222  1.00  0.00     0.053 A 
HETATM   13  C   UNL     1     -44.692  56.779 -59.312  1.00  0.00     0.106 A 
HETATM   14  C   UNL     1     -43.739  56.378 -60.218  1.00  0.00     0.105 A 
HETATM   15  O   UNL     1     -45.931  56.312 -59.623  1.00  0.00    -0.323 OA
HETATM   16  O   UNL     1     -44.256  55.608 -61.210  1.00  0.00    -0.323 OA
HETATM   17  C   UNL     1     -42.420  56.745 -60.085  1.00  0.00     0.040 A 
HETATM   18  C   UNL     1     -45.647  55.567 -60.827  1.00  0.00     0.352 A 
HETATM   19  C   UNL     1     -42.077  57.546 -58.989  1.00  0.00     0.017 A 
ENDBRANCH   9  11
ENDBRANCH   2   5
BRANCH   1  20
HETATM   20  C   UNL     1     -40.569  58.980 -51.512  1.00  0.00     0.217 C 
BRANCH  20  21
HETATM   21  C   UNL     1     -40.821  57.661 -50.801  1.00  0.00    -0.085 C 
BRANCH  21  22
HETATM   22  C   UNL     1     -41.036  56.529 -50.190  1.00  0.00    -0.078 C 
BRANCH  22  23
HETATM   23  C   UNL     1     -41.287  55.209 -49.478  1.00  0.00     0.269 C 
BRANCH  23  24
HETATM   24  O   UNL     1     -42.221  54.415 -50.209  1.00  0.00    -0.337 OA
BRANCH  24  25
HETATM   25  C   UNL     1     -41.859  53.989 -51.460  1.00  0.00     0.103 A 
HETATM   26  C   UNL     1     -40.796  53.076 -51.570  1.00  0.00     0.101 A 
HETATM   27  C   UNL     1     -40.330  52.699 -52.837  1.00  0.00     0.039 A 
HETATM   28  C   UNL     1     -40.925  53.196 -53.995  1.00  0.00     0.003 A 
HETATM   29  C   UNL     1     -41.983  54.092 -53.892  1.00  0.00     0.003 A 
HETATM   30  C   UNL     1     -42.441  54.494 -52.634  1.00  0.00     0.040 A 
BRANCH  26  31
HETATM   31  O   UNL     1     -40.090  52.503 -50.543  1.00  0.00    -0.353 OA
HETATM   32  C   UNL     1     -40.258  51.103 -50.359  1.00  0.00     0.210 C 
ENDBRANCH  26  31
ENDBRANCH  24  25
ENDBRANCH  23  24
ENDBRANCH  22  23
ENDBRANCH  21  22
ENDBRANCH  20  21
ENDBRANCH   1  20
TORSDOF 9
ENDMDL
MODEL 8
REMARK VINA RESULT:      -7.3      2.568      8.341
REMARK  9 active torsions:
REMARK  status: ('A' for Active; 'I' for Inactive)
REMARK    1  A    between atoms: O_2  and  C_3 
REMARK    2  A    between atoms: C_4  and  O_5 
REMARK    3  A    between atoms: O_5  and  C_6 
REMARK    4  A    between atoms: C_6  and  C_7 
REMARK    5  A    between atoms: C_7  and  C_8 
REMARK    6  A    between atoms: C_8  and  C_9 
REMARK    7  A    between atoms: C_9  and  N_10 
REMARK       I    between atoms: N_10  and  C_11 
REMARK    8  A    between atoms: C_11  and  C_12 
REMARK    9  A    between atoms: C_16  and  C_17 
ROOT
HETATM    1  N   UNL     1     -42.804  58.607 -52.465  1.00  0.00    -0.345 N 
HETATM    2  C   UNL     1     -42.030  58.361 -51.361  1.00  0.00     0.270 C 
HETATM    3  O   UNL     1     -41.685  59.248 -50.587  1.00  0.00    -0.266 OA
HETATM    4  H   UNL     1     -42.983  57.873 -53.132  1.00  0.00     0.163 HD
ENDROOT
BRANCH   2   5
HETATM    5  C   UNL     1     -41.643  56.989 -51.173  1.00  0.00     0.120 A 
HETATM    6  N   UNL     1     -41.603  56.420 -49.932  1.00  0.00    -0.272 N 
HETATM    7  H   UNL     1     -41.827  56.871 -49.050  1.00  0.00     0.189 HD
HETATM    8  N   UNL     1     -41.224  55.134 -49.928  1.00  0.00    -0.174 NA
HETATM    9  C   UNL     1     -41.012  54.834 -51.219  1.00  0.00     0.089 A 
HETATM   10  C   UNL     1     -41.262  55.976 -52.032  1.00  0.00     0.071 A 
BRANCH   9  11
HETATM   11  C   UNL     1     -40.589  53.490 -51.636  1.00  0.00    -0.003 A 
HETATM   12  C   UNL     1     -40.592  53.118 -52.991  1.00  0.00     0.053 A 
HETATM   13  C   UNL     1     -40.188  51.839 -53.321  1.00  0.00     0.106 A 
HETATM   14  C   UNL     1     -39.786  50.932 -52.371  1.00  0.00     0.105 A 
HETATM   15  O   UNL     1     -40.135  51.327 -54.580  1.00  0.00    -0.323 OA
HETATM   16  O   UNL     1     -39.431  49.736 -52.909  1.00  0.00    -0.323 OA
HETATM   17  C   UNL     1     -39.765  51.253 -51.033  1.00  0.00     0.040 A 
HETATM   18  C   UNL     1     -39.657  49.992 -54.311  1.00  0.00     0.352 A 
HETATM   19  C   UNL     1     -40.170  52.543 -50.669  1.00  0.00     0.017 A 
ENDBRANCH   9  11
ENDBRANCH   2   5
BRANCH   1  20
HETATM   20  C   UNL     1     -43.209  59.947 -52.794  1.00  0.00     0.217 C 
BRANCH  20  21
HETATM   21  C   UNL     1     -42.807  60.252 -54.228  1.00  0.00    -0.085 C 
BRANCH  21  22
HETATM   22  C   UNL     1     -42.462  60.513 -55.458  1.00  0.00    -0.078 C 
BRANCH  22  23
HETATM   23  C   UNL     1     -42.059  60.818 -56.892  1.00  0.00     0.269 C 
BRANCH  23  24
HETATM   24  O   UNL     1     -41.345  59.719 -57.458  1.00  0.00    -0.337 OA
BRANCH  24  25
HETATM   25  C   UNL     1     -42.027  58.871 -58.290  1.00  0.00     0.103 A 
HETATM   26  C   UNL     1     -42.404  57.611 -57.792  1.00  0.00     0.101 A 
HETATM   27  C   UNL     1     -43.009  56.678 -58.645  1.00  0.00     0.039 A 
HETATM   28  C   UNL     1     -43.269  56.991 -59.977  1.00  0.00     0.003 A 
HETATM   29  C   UNL     1     -42.908  58.239 -60.473  1.00  0.00     0.003 A 
HETATM   30  C   UNL     1     -42.282  59.169 -59.637  1.00  0.00     0.040 A 
BRANCH  26  31
HETATM   31  O   UNL     1     -42.210  57.134 -56.521  1.00  0.00    -0.353 OA
HETATM   32  C   UNL     1     -43.379  56.884 -55.751  1.00  0.00     0.210 C 
ENDBRANCH  26  31
ENDBRANCH  24  25
ENDBRANCH  23  24
ENDBRANCH  22  23
ENDBRANCH  21  22
ENDBRANCH  20  21
ENDBRANCH   1  20
TORSDOF 9
ENDMDL
MODEL 9
REMARK VINA RESULT:      -7.2      5.267     10.124
REMARK  9 active torsions:
REMARK  status: ('A' for Active; 'I' for Inactive)
REMARK    1  A    between atoms: O_2  and  C_3 
REMARK    2  A    between atoms: C_4  and  O_5 
REMARK    3  A    between atoms: O_5  and  C_6 
REMARK    4  A    between atoms: C_6  and  C_7 
REMARK    5  A    between atoms: C_7  and  C_8 
REMARK    6  A    between atoms: C_8  and  C_9 
REMARK    7  A    between atoms: C_9  and  N_10 
REMARK       I    between atoms: N_10  and  C_11 
REMARK    8  A    between atoms: C_11  and  C_12 
REMARK    9  A    between atoms: C_16  and  C_17 
ROOT
HETATM    1  N   UNL     1     -43.543  60.154 -51.566  1.00  0.00    -0.345 N 
HETATM    2  C   UNL     1     -42.326  59.627 -51.912  1.00  0.00     0.270 C 
HETATM    3  O   UNL     1     -41.413  60.314 -52.358  1.00  0.00    -0.266 OA
HETATM    4  H   UNL     1     -44.301  59.545 -51.298  1.00  0.00     0.163 HD
ENDROOT
BRANCH   2   5
HETATM    5  C   UNL     1     -42.192  58.208 -51.722  1.00  0.00     0.120 A 
HETATM    6  N   UNL     1     -42.993  57.523 -50.853  1.00  0.00    -0.272 N 
HETATM    7  H   UNL     1     -43.731  57.912 -50.273  1.00  0.00     0.189 HD
HETATM    8  N   UNL     1     -42.743  56.207 -50.794  1.00  0.00    -0.174 NA
HETATM    9  C   UNL     1     -41.742  56.008 -51.665  1.00  0.00     0.089 A 
HETATM   10  C   UNL     1     -41.366  57.243 -52.267  1.00  0.00     0.071 A 
BRANCH   9  11
HETATM   11  C   UNL     1     -41.183  54.669 -51.901  1.00  0.00    -0.003 A 
HETATM   12  C   UNL     1     -40.990  53.768 -50.841  1.00  0.00     0.053 A 
HETATM   13  C   UNL     1     -40.456  52.526 -51.125  1.00  0.00     0.106 A 
HETATM   14  C   UNL     1     -40.114  52.153 -52.403  1.00  0.00     0.105 A 
HETATM   15  O   UNL     1     -40.208  51.546 -50.216  1.00  0.00    -0.323 OA
HETATM   16  O   UNL     1     -39.607  50.894 -52.459  1.00  0.00    -0.323 OA
HETATM   17  C   UNL     1     -40.286  53.002 -53.471  1.00  0.00     0.040 A 
HETATM   18  C   UNL     1     -39.667  50.514 -51.069  1.00  0.00     0.352 A 
HETATM   19  C   UNL     1     -40.826  54.268 -53.213  1.00  0.00     0.017 A 
ENDBRANCH   9  11
ENDBRANCH   2   5
BRANCH   1  20
HETATM   20  C   UNL     1     -43.821  61.551 -51.761  1.00  0.00     0.217 C 
BRANCH  20  21
HETATM   21  C   UNL     1     -44.913  61.982 -50.796  1.00  0.00    -0.085 C 
BRANCH  21  22
HETATM   22  C   UNL     1     -45.850  62.352 -49.969  1.00  0.00    -0.078 C 
BRANCH  22  23
HETATM   23  C   UNL     1     -46.944  62.784 -49.005  1.00  0.00     0.269 C 
BRANCH  23  24
HETATM   24  O   UNL     1     -47.113  61.815 -47.970  1.00  0.00    -0.337 OA
BRANCH  24  25
HETATM   25  C   UNL     1     -46.224  61.829 -46.928  1.00  0.00     0.103 A 
HETATM   26  C   UNL     1     -45.892  60.605 -46.320  1.00  0.00     0.101 A 
HETATM   27  C   UNL     1     -45.070  60.592 -45.185  1.00  0.00     0.039 A 
HETATM   28  C   UNL     1     -44.550  61.775 -44.665  1.00  0.00     0.003 A 
HETATM   29  C   UNL     1     -44.867  62.987 -45.267  1.00  0.00     0.003 A 
HETATM   30  C   UNL     1     -45.706  63.015 -46.385  1.00  0.00     0.040 A 
BRANCH  26  31
HETATM   31  O   UNL     1     -46.325  59.357 -46.689  1.00  0.00    -0.353 OA
HETATM   32  C   UNL     1     -47.096  58.643 -45.731  1.00  0.00     0.210 C 
ENDBRANCH  26  31
ENDBRANCH  24  25
ENDBRANCH  23  24
ENDBRANCH  22  23
ENDBRANCH  21  22
ENDBRANCH  20  21
ENDBRANCH   1  20
TORSDOF 9
ENDMDL
MODEL 10
REMARK VINA RESULT:      -6.9     15.071     17.553
REMARK  9 active torsions:
REMARK  status: ('A' for Active; 'I' for Inactive)
REMARK    1  A    between atoms: O_2  and  C_3 
REMARK    2  A    between atoms: C_4  and  O_5 
REMARK    3  A    between atoms: O_5  and  C_6 
REMARK    4  A    between atoms: C_6  and  C_7 
REMARK    5  A    between atoms: C_7  and  C_8 
REMARK    6  A    between atoms: C_8  and  C_9 
REMARK    7  A    between atoms: C_9  and  N_10 
REMARK       I    between atoms: N_10  and  C_11 
REMARK    8  A    between atoms: C_11  and  C_12 
REMARK    9  A    between atoms: C_16  and  C_17 
ROOT
HETATM    1  N   UNL     1     -34.662  42.084 -52.496  1.00  0.00    -0.345 N 
HETATM    2  C   UNL     1     -35.870  42.061 -53.142  1.00  0.00     0.270 C 
HETATM    3  O   UNL     1     -36.938  42.148 -52.545  1.00  0.00    -0.266 OA
HETATM    4  H   UNL     1     -33.810  41.909 -53.007  1.00  0.00     0.163 HD
ENDROOT
BRANCH   2   5
HETATM    5  C   UNL     1     -35.802  41.919 -54.572  1.00  0.00     0.120 A 
HETATM    6  N   UNL     1     -34.797  42.489 -55.301  1.00  0.00    -0.272 N 
HETATM    7  H   UNL     1     -34.027  43.046 -54.941  1.00  0.00     0.189 HD
HETATM    8  N   UNL     1     -34.876  42.262 -56.619  1.00  0.00    -0.174 NA
HETATM    9  C   UNL     1     -35.973  41.504 -56.773  1.00  0.00     0.089 A 
HETATM   10  C   UNL     1     -36.584  41.270 -55.507  1.00  0.00     0.071 A 
BRANCH   9  11
HETATM   11  C   UNL     1     -36.400  41.027 -58.096  1.00  0.00    -0.003 A 
HETATM   12  C   UNL     1     -36.111  39.720 -58.523  1.00  0.00     0.053 A 
HETATM   13  C   UNL     1     -36.535  39.332 -59.779  1.00  0.00     0.106 A 
HETATM   14  C   UNL     1     -37.225  40.180 -60.611  1.00  0.00     0.105 A 
HETATM   15  O   UNL     1     -36.334  38.108 -60.336  1.00  0.00    -0.323 OA
HETATM   16  O   UNL     1     -37.544  39.599 -61.797  1.00  0.00    -0.323 OA
HETATM   17  C   UNL     1     -37.531  41.467 -60.235  1.00  0.00     0.040 A 
HETATM   18  C   UNL     1     -36.975  38.285 -61.618  1.00  0.00     0.352 A 
HETATM   19  C   UNL     1     -37.114  41.888 -58.966  1.00  0.00     0.017 A 
ENDBRANCH   9  11
ENDBRANCH   2   5
BRANCH   1  20
HETATM   20  C   UNL     1     -34.597  42.164 -51.062  1.00  0.00     0.217 C 
BRANCH  20  21
HETATM   21  C   UNL     1     -33.743  41.022 -50.536  1.00  0.00    -0.085 C 
BRANCH  21  22
HETATM   22  C   UNL     1     -33.010  40.043 -50.085  1.00  0.00    -0.078 C 
BRANCH  22  23
HETATM   23  C   UNL     1     -32.155  38.901 -49.559  1.00  0.00     0.269 C 
BRANCH  23  24
HETATM   24  O   UNL     1     -32.578  38.519 -48.250  1.00  0.00    -0.337 OA
BRANCH  24  25
HETATM   25  C   UNL     1     -31.794  38.891 -47.189  1.00  0.00     0.103 A 
HETATM   26  C   UNL     1     -32.063  38.322 -45.932  1.00  0.00     0.101 A 
HETATM   27  C   UNL     1     -31.352  38.757 -44.805  1.00  0.00     0.039 A 
HETATM   28  C   UNL     1     -30.360  39.728 -44.916  1.00  0.00     0.003 A 
HETATM   29  C   UNL     1     -30.083  40.288 -46.158  1.00  0.00     0.003 A 
HETATM   30  C   UNL     1     -30.803  39.879 -47.286  1.00  0.00     0.040 A 
BRANCH  26  31
HETATM   31  O   UNL     1     -33.010  37.373 -45.641  1.00  0.00    -0.353 OA
HETATM   32  C   UNL     1     -34.156  37.817 -44.927  1.00  0.00     0.210 C 
ENDBRANCH  26  31
ENDBRANCH  24  25
ENDBRANCH  23  24
ENDBRANCH  22  23
ENDBRANCH  21  22
ENDBRANCH  20  21
ENDBRANCH   1  20
TORSDOF 9
ENDMDL
