MODEL 1
REMARK VINA RESULT:      -9.1      0.000      0.000
REMARK  7 active torsions:
REMARK  status: ('A' for Active; 'I' for Inactive)
REMARK    1  A    between atoms: C_2  and  C_3 
REMARK    2  A    between atoms: C_3  and  C_4 
REMARK    3  A    between atoms: C_3  and  C_12 
REMARK    4  A    between atoms: C_7  and  O_8 
REMARK    5  A    between atoms: C_12  and  C_13 
REMARK       I    between atoms: C_13  and  N_14 
REMARK    6  A    between atoms: N_14  and  C_15 
REMARK    7  A    between atoms: C_22  and  C_23 
REMARK       I    between atoms: C_23  and  N_24 
ROOT
HETATM    1  C   UNL     1     -41.844  54.421 -55.437  1.00  0.00     0.222 C 
HETATM    2  N   UNL     1     -41.609  55.558 -56.200  1.00  0.00    -0.327 N 
HETATM    3  O   UNL     1     -42.932  53.882 -55.290  1.00  0.00    -0.273 OA
HETATM    4  H   UNL     1     -40.710  56.007 -56.083  1.00  0.00     0.169 HD
ENDROOT
BRANCH   2   5
HETATM    5  C   UNL     1     -42.544  56.234 -57.015  1.00  0.00     0.035 A 
HETATM    6  C   UNL     1     -43.208  55.627 -58.090  1.00  0.00     0.046 A 
HETATM    7  C   UNL     1     -44.124  56.377 -58.858  1.00  0.00     0.030 A 
HETATM    8  C   UNL     1     -44.356  57.703 -58.518  1.00  0.00     0.063 A 
HETATM    9  C   UNL     1     -44.949  56.136 -59.998  1.00  0.00     0.156 A 
HETATM   10  N   UNL     1     -45.289  58.148 -59.412  1.00  0.00    -0.277 N 
HETATM   11  C   UNL     1     -43.706  58.344 -57.460  1.00  0.00     0.034 A 
HETATM   12  H   UNL     1     -45.705  59.071 -59.457  1.00  0.00     0.189 HD
HETATM   13  N   UNL     1     -45.667  57.236 -60.323  1.00  0.00    -0.168 NA
HETATM   14  C   UNL     1     -42.786  57.584 -56.726  1.00  0.00     0.032 A 
BRANCH   9  15
HETATM   15  C   UNL     1     -45.056  54.897 -60.781  1.00  0.00     0.270 C 
HETATM   16  N   UNL     1     -45.298  53.780 -60.029  1.00  0.00    -0.365 N 
HETATM   17  H   UNL     1     -45.406  53.883 -59.027  1.00  0.00     0.159 HD
HETATM   18  H   UNL     1     -45.418  52.891 -60.486  1.00  0.00     0.159 HD
HETATM   19  O   UNL     1     -44.956  54.830 -62.001  1.00  0.00    -0.266 OA
ENDBRANCH   9  15
ENDBRANCH   2   5
BRANCH   1  20
HETATM   20  C   UNL     1     -40.572  53.947 -54.741  1.00  0.00     0.112 C 
BRANCH  20  21
HETATM   21  C   UNL     1     -40.686  52.798 -53.716  1.00  0.00     0.027 C 
BRANCH  21  22
HETATM   22  C   UNL     1     -39.629  51.689 -53.911  1.00  0.00     0.005 C 
HETATM   23  C   UNL     1     -40.244  50.350 -54.304  1.00  0.00     0.006 C 
ENDBRANCH  21  22
BRANCH  21  24
HETATM   24  C   UNL     1     -40.809  53.284 -52.278  1.00  0.00    -0.053 A 
HETATM   25  C   UNL     1     -39.766  53.160 -51.352  1.00  0.00     0.010 A 
HETATM   26  C   UNL     1     -39.927  53.590 -50.031  1.00  0.00     0.037 A 
HETATM   27  C   UNL     1     -41.135  54.135 -49.599  1.00  0.00     0.068 A 
HETATM   28  C   UNL     1     -42.177  54.275 -50.512  1.00  0.00     0.037 A 
HETATM   29  C   UNL     1     -42.014  53.856 -51.839  1.00  0.00     0.010 A 
BRANCH  27  30
HETATM   30  O   UNL     1     -41.166  54.494 -48.280  1.00  0.00    -0.356 OA
HETATM   31  C   UNL     1     -40.203  53.884 -47.432  1.00  0.00     0.210 C 
ENDBRANCH  27  30
ENDBRANCH  21  24
ENDBRANCH  20  21
ENDBRANCH   1  20
TORSDOF 7
ENDMDL
MODEL 2
REMARK VINA RESULT:      -8.4      3.132      4.649
REMARK  7 active torsions:
REMARK  status: ('A' for Active; 'I' for Inactive)
REMARK    1  A    between atoms: C_2  and  C_3 
REMARK    2  A    between atoms: C_3  and  C_4 
REMARK    3  A    between atoms: C_3  and  C_12 
REMARK    4  A    between atoms: C_7  and  O_8 
REMARK    5  A    between atoms: C_12  and  C_13 
REMARK       I    between atoms: C_13  and  N_14 
REMARK    6  A    between atoms: N_14  and  C_15 
REMARK    7  A    between atoms: C_22  and  C_23 
REMARK       I    between atoms: C_23  and  N_24 
ROOT
HETATM    1  C   UNL     1     -40.909  55.071 -54.810  1.00  0.00     0.222 C 
HETATM    2  N   UNL     1     -42.227  55.190 -55.233  1.00  0.00    -0.327 N 
HETATM    3  O   UNL     1     -40.239  55.971 -54.325  1.00  0.00    -0.273 OA
HETATM    4  H   UNL     1     -42.599  54.430 -55.786  1.00  0.00     0.169 HD
ENDROOT
BRANCH   2   5
HETATM    5  C   UNL     1     -43.058  56.324 -55.092  1.00  0.00     0.035 A 
HETATM    6  C   UNL     1     -43.466  56.829 -53.849  1.00  0.00     0.046 A 
HETATM    7  C   UNL     1     -44.301  57.965 -53.797  1.00  0.00     0.030 A 
HETATM    8  C   UNL     1     -44.691  58.566 -54.987  1.00  0.00     0.063 A 
HETATM    9  C   UNL     1     -44.926  58.736 -52.771  1.00  0.00     0.156 A 
HETATM   10  N   UNL     1     -45.461  59.632 -54.618  1.00  0.00    -0.277 N 
HETATM   11  C   UNL     1     -44.312  58.085 -56.243  1.00  0.00     0.034 A 
HETATM   12  H   UNL     1     -45.908  60.307 -55.229  1.00  0.00     0.189 HD
HETATM   13  N   UNL     1     -45.632  59.766 -53.293  1.00  0.00    -0.168 NA
HETATM   14  C   UNL     1     -43.499  56.944 -56.269  1.00  0.00     0.032 A 
BRANCH   9  15
HETATM   15  C   UNL     1     -44.873  58.506 -51.320  1.00  0.00     0.270 C 
HETATM   16  N   UNL     1     -43.746  58.994 -50.717  1.00  0.00    -0.365 N 
HETATM   17  H   UNL     1     -43.063  59.482 -51.286  1.00  0.00     0.159 HD
HETATM   18  H   UNL     1     -43.640  58.910 -49.720  1.00  0.00     0.159 HD
HETATM   19  O   UNL     1     -45.745  57.943 -50.669  1.00  0.00    -0.266 OA
ENDBRANCH   9  15
ENDBRANCH   2   5
BRANCH   1  20
HETATM   20  C   UNL     1     -40.364  53.672 -55.082  1.00  0.00     0.112 C 
BRANCH  20  21
HETATM   21  C   UNL     1     -40.655  52.562 -54.049  1.00  0.00     0.027 C 
BRANCH  21  22
HETATM   22  C   UNL     1     -39.686  51.363 -54.140  1.00  0.00     0.005 C 
HETATM   23  C   UNL     1     -40.405  50.040 -54.383  1.00  0.00     0.006 C 
ENDBRANCH  21  22
BRANCH  21  24
HETATM   24  C   UNL     1     -40.847  53.091 -52.634  1.00  0.00    -0.053 A 
HETATM   25  C   UNL     1     -39.829  53.054 -51.674  1.00  0.00     0.010 A 
HETATM   26  C   UNL     1     -40.052  53.521 -50.375  1.00  0.00     0.037 A 
HETATM   27  C   UNL     1     -41.298  54.019 -49.999  1.00  0.00     0.068 A 
HETATM   28  C   UNL     1     -42.317  54.073 -50.947  1.00  0.00     0.037 A 
HETATM   29  C   UNL     1     -42.092  53.615 -52.252  1.00  0.00     0.010 A 
BRANCH  27  30
HETATM   30  O   UNL     1     -41.388  54.421 -48.696  1.00  0.00    -0.356 OA
HETATM   31  C   UNL     1     -40.338  54.014 -47.830  1.00  0.00     0.210 C 
ENDBRANCH  27  30
ENDBRANCH  21  24
ENDBRANCH  20  21
ENDBRANCH   1  20
TORSDOF 7
ENDMDL
MODEL 3
REMARK VINA RESULT:      -8.4      1.814      2.556
REMARK  7 active torsions:
REMARK  status: ('A' for Active; 'I' for Inactive)
REMARK    1  A    between atoms: C_2  and  C_3 
REMARK    2  A    between atoms: C_3  and  C_4 
REMARK    3  A    between atoms: C_3  and  C_12 
REMARK    4  A    between atoms: C_7  and  O_8 
REMARK    5  A    between atoms: C_12  and  C_13 
REMARK       I    between atoms: C_13  and  N_14 
REMARK    6  A    between atoms: N_14  and  C_15 
REMARK    7  A    between atoms: C_22  and  C_23 
REMARK       I    between atoms: C_23  and  N_24 
ROOT
HETATM    1  C   UNL     1     -42.345  54.695 -55.877  1.00  0.00     0.222 C 
HETATM    2  N   UNL     1     -42.151  55.772 -56.733  1.00  0.00    -0.327 N 
HETATM    3  O   UNL     1     -43.368  54.029 -55.801  1.00  0.00    -0.273 OA
HETATM    4  H   UNL     1     -41.338  56.349 -56.562  1.00  0.00     0.169 HD
ENDROOT
BRANCH   2   5
HETATM    5  C   UNL     1     -43.044  56.229 -57.728  1.00  0.00     0.035 A 
HETATM    6  C   UNL     1     -44.017  57.211 -57.495  1.00  0.00     0.046 A 
HETATM    7  C   UNL     1     -44.874  57.607 -58.544  1.00  0.00     0.030 A 
HETATM    8  C   UNL     1     -44.721  57.019 -59.793  1.00  0.00     0.063 A 
HETATM    9  C   UNL     1     -45.961  58.520 -58.694  1.00  0.00     0.156 A 
HETATM   10  N   UNL     1     -45.660  57.613 -60.588  1.00  0.00    -0.277 N 
HETATM   11  C   UNL     1     -43.770  56.032 -60.058  1.00  0.00     0.034 A 
HETATM   12  H   UNL     1     -45.831  57.437 -61.572  1.00  0.00     0.189 HD
HETATM   13  N   UNL     1     -46.431  58.517 -59.963  1.00  0.00    -0.168 NA
HETATM   14  C   UNL     1     -42.945  55.641 -58.996  1.00  0.00     0.032 A 
BRANCH   9  15
HETATM   15  C   UNL     1     -46.562  59.376 -57.660  1.00  0.00     0.270 C 
HETATM   16  N   UNL     1     -47.876  59.099 -57.399  1.00  0.00    -0.365 N 
HETATM   17  H   UNL     1     -48.321  58.338 -57.899  1.00  0.00     0.159 HD
HETATM   18  H   UNL     1     -48.359  59.615 -56.683  1.00  0.00     0.159 HD
HETATM   19  O   UNL     1     -45.969  60.261 -57.054  1.00  0.00    -0.266 OA
ENDBRANCH   9  15
ENDBRANCH   2   5
BRANCH   1  20
HETATM   20  C   UNL     1     -41.129  54.470 -54.983  1.00  0.00     0.112 C 
BRANCH  20  21
HETATM   21  C   UNL     1     -41.108  53.217 -54.082  1.00  0.00     0.027 C 
BRANCH  21  22
HETATM   22  C   UNL     1     -39.990  52.215 -54.443  1.00  0.00     0.005 C 
HETATM   23  C   UNL     1     -40.449  50.763 -54.360  1.00  0.00     0.006 C 
ENDBRANCH  21  22
BRANCH  21  24
HETATM   24  C   UNL     1     -41.184  53.542 -52.596  1.00  0.00    -0.053 A 
HETATM   25  C   UNL     1     -40.138  53.259 -51.711  1.00  0.00     0.010 A 
HETATM   26  C   UNL     1     -40.258  53.543 -50.347  1.00  0.00     0.037 A 
HETATM   27  C   UNL     1     -41.427  54.100 -49.832  1.00  0.00     0.068 A 
HETATM   28  C   UNL     1     -42.473  54.398 -50.703  1.00  0.00     0.037 A 
HETATM   29  C   UNL     1     -42.350  54.123 -52.072  1.00  0.00     0.010 A 
BRANCH  27  30
HETATM   30  O   UNL     1     -41.421  54.307 -48.481  1.00  0.00    -0.356 OA
HETATM   31  C   UNL     1     -40.230  53.957 -47.789  1.00  0.00     0.210 C 
ENDBRANCH  27  30
ENDBRANCH  21  24
ENDBRANCH  20  21
ENDBRANCH   1  20
TORSDOF 7
ENDMDL
MODEL 4
REMARK VINA RESULT:      -8.1      1.930      2.492
REMARK  7 active torsions:
REMARK  status: ('A' for Active; 'I' for Inactive)
REMARK    1  A    between atoms: C_2  and  C_3 
REMARK    2  A    between atoms: C_3  and  C_4 
REMARK    3  A    between atoms: C_3  and  C_12 
REMARK    4  A    between atoms: C_7  and  O_8 
REMARK    5  A    between atoms: C_12  and  C_13 
REMARK       I    between atoms: C_13  and  N_14 
REMARK    6  A    between atoms: N_14  and  C_15 
REMARK    7  A    between atoms: C_22  and  C_23 
REMARK       I    between atoms: C_23  and  N_24 
ROOT
HETATM    1  C   UNL     1     -40.861  55.080 -55.001  1.00  0.00     0.222 C 
HETATM    2  N   UNL     1     -42.050  54.971 -55.710  1.00  0.00    -0.327 N 
HETATM    3  O   UNL     1     -40.455  56.096 -54.455  1.00  0.00    -0.273 OA
HETATM    4  H   UNL     1     -42.172  54.136 -56.269  1.00  0.00     0.169 HD
ENDROOT
BRANCH   2   5
HETATM    5  C   UNL     1     -43.044  55.965 -55.847  1.00  0.00     0.035 A 
HETATM    6  C   UNL     1     -43.291  56.647 -57.047  1.00  0.00     0.046 A 
HETATM    7  C   UNL     1     -44.301  57.631 -57.095  1.00  0.00     0.030 A 
HETATM    8  C   UNL     1     -45.038  57.893 -55.948  1.00  0.00     0.063 A 
HETATM    9  C   UNL     1     -44.819  58.525 -58.081  1.00  0.00     0.156 A 
HETATM   10  N   UNL     1     -45.936  58.858 -56.307  1.00  0.00    -0.277 N 
HETATM   11  C   UNL     1     -44.813  57.241 -54.733  1.00  0.00     0.034 A 
HETATM   12  H   UNL     1     -46.645  59.285 -55.722  1.00  0.00     0.189 HD
HETATM   13  N   UNL     1     -45.832  59.270 -57.581  1.00  0.00    -0.168 NA
HETATM   14  C   UNL     1     -43.792  56.282 -54.705  1.00  0.00     0.032 A 
BRANCH   9  15
HETATM   15  C   UNL     1     -44.365  58.688 -59.469  1.00  0.00     0.270 C 
HETATM   16  N   UNL     1     -45.310  58.375 -60.407  1.00  0.00    -0.365 N 
HETATM   17  H   UNL     1     -46.228  58.085 -60.093  1.00  0.00     0.159 HD
HETATM   18  H   UNL     1     -45.096  58.487 -61.385  1.00  0.00     0.159 HD
HETATM   19  O   UNL     1     -43.251  59.080 -59.799  1.00  0.00    -0.266 OA
ENDBRANCH   9  15
ENDBRANCH   2   5
BRANCH   1  20
HETATM   20  C   UNL     1     -40.073  53.773 -55.033  1.00  0.00     0.112 C 
BRANCH  20  21
HETATM   21  C   UNL     1     -40.549  52.613 -54.133  1.00  0.00     0.027 C 
BRANCH  21  22
HETATM   22  C   UNL     1     -39.708  51.327 -54.286  1.00  0.00     0.005 C 
HETATM   23  C   UNL     1     -40.562  50.066 -54.342  1.00  0.00     0.006 C 
ENDBRANCH  21  22
BRANCH  21  24
HETATM   24  C   UNL     1     -40.779  53.028 -52.686  1.00  0.00    -0.053 A 
HETATM   25  C   UNL     1     -41.959  53.649 -52.261  1.00  0.00     0.010 A 
HETATM   26  C   UNL     1     -42.121  54.044 -50.929  1.00  0.00     0.037 A 
HETATM   27  C   UNL     1     -41.105  53.844 -49.996  1.00  0.00     0.068 A 
HETATM   28  C   UNL     1     -39.930  53.217 -50.401  1.00  0.00     0.037 A 
HETATM   29  C   UNL     1     -39.770  52.811 -51.733  1.00  0.00     0.010 A 
BRANCH  27  30
HETATM   30  O   UNL     1     -41.384  54.296 -48.736  1.00  0.00    -0.356 OA
HETATM   31  C   UNL     1     -40.439  53.977 -47.723  1.00  0.00     0.210 C 
ENDBRANCH  27  30
ENDBRANCH  21  24
ENDBRANCH  20  21
ENDBRANCH   1  20
TORSDOF 7
ENDMDL
MODEL 5
REMARK VINA RESULT:      -7.9      2.166      3.641
REMARK  7 active torsions:
REMARK  status: ('A' for Active; 'I' for Inactive)
REMARK    1  A    between atoms: C_2  and  C_3 
REMARK    2  A    between atoms: C_3  and  C_4 
REMARK    3  A    between atoms: C_3  and  C_12 
REMARK    4  A    between atoms: C_7  and  O_8 
REMARK    5  A    between atoms: C_12  and  C_13 
REMARK       I    between atoms: C_13  and  N_14 
REMARK    6  A    between atoms: N_14  and  C_15 
REMARK    7  A    between atoms: C_22  and  C_23 
REMARK       I    between atoms: C_23  and  N_24 
ROOT
HETATM    1  C   UNL     1     -43.627  56.409 -53.916  1.00  0.00     0.222 C 
HETATM    2  N   UNL     1     -42.629  56.614 -54.861  1.00  0.00    -0.327 N 
HETATM    3  O   UNL     1     -44.757  56.871 -53.972  1.00  0.00    -0.273 OA
HETATM    4  H   UNL     1     -41.692  56.337 -54.600  1.00  0.00     0.169 HD
ENDROOT
BRANCH   2   5
HETATM    5  C   UNL     1     -42.760  57.299 -56.089  1.00  0.00     0.035 A 
HETATM    6  C   UNL     1     -43.422  56.761 -57.203  1.00  0.00     0.046 A 
HETATM    7  C   UNL     1     -43.503  57.510 -58.395  1.00  0.00     0.030 A 
HETATM    8  C   UNL     1     -42.931  58.775 -58.432  1.00  0.00     0.063 A 
HETATM    9  C   UNL     1     -44.048  57.310 -59.699  1.00  0.00     0.156 A 
HETATM   10  N   UNL     1     -43.188  59.251 -59.688  1.00  0.00    -0.277 N 
HETATM   11  C   UNL     1     -42.256  59.339 -57.347  1.00  0.00     0.034 A 
HETATM   12  H   UNL     1     -42.927  60.154 -60.068  1.00  0.00     0.189 HD
HETATM   13  N   UNL     1     -43.852  58.396 -60.483  1.00  0.00    -0.168 NA
HETATM   14  C   UNL     1     -42.172  58.567 -56.181  1.00  0.00     0.032 A 
BRANCH   9  15
HETATM   15  C   UNL     1     -44.734  56.115 -60.211  1.00  0.00     0.270 C 
HETATM   16  N   UNL     1     -45.928  55.851 -59.598  1.00  0.00    -0.365 N 
HETATM   17  H   UNL     1     -46.256  56.485 -58.879  1.00  0.00     0.159 HD
HETATM   18  H   UNL     1     -46.482  55.069 -59.906  1.00  0.00     0.159 HD
HETATM   19  O   UNL     1     -44.313  55.400 -61.112  1.00  0.00    -0.266 OA
ENDBRANCH   9  15
ENDBRANCH   2   5
BRANCH   1  20
HETATM   20  C   UNL     1     -43.120  55.571 -52.746  1.00  0.00     0.112 C 
BRANCH  20  21
HETATM   21  C   UNL     1     -41.601  55.544 -52.472  1.00  0.00     0.027 C 
BRANCH  21  22
HETATM   22  C   UNL     1     -41.204  56.185 -51.124  1.00  0.00     0.005 C 
HETATM   23  C   UNL     1     -41.162  57.708 -51.184  1.00  0.00     0.006 C 
ENDBRANCH  21  22
BRANCH  21  24
HETATM   24  C   UNL     1     -40.969  54.180 -52.713  1.00  0.00    -0.053 A 
HETATM   25  C   UNL     1     -41.008  53.544 -53.959  1.00  0.00     0.010 A 
HETATM   26  C   UNL     1     -40.443  52.277 -54.134  1.00  0.00     0.037 A 
HETATM   27  C   UNL     1     -39.843  51.608 -53.069  1.00  0.00     0.068 A 
HETATM   28  C   UNL     1     -39.786  52.233 -51.825  1.00  0.00     0.037 A 
HETATM   29  C   UNL     1     -40.342  53.508 -51.651  1.00  0.00     0.010 A 
BRANCH  27  30
HETATM   30  O   UNL     1     -39.350  50.369 -53.370  1.00  0.00    -0.356 OA
HETATM   31  C   UNL     1     -39.785  49.791 -54.593  1.00  0.00     0.210 C 
ENDBRANCH  27  30
ENDBRANCH  21  24
ENDBRANCH  20  21
ENDBRANCH   1  20
TORSDOF 7
ENDMDL
MODEL 6
REMARK VINA RESULT:      -7.9      1.795      2.716
REMARK  7 active torsions:
REMARK  status: ('A' for Active; 'I' for Inactive)
REMARK    1  A    between atoms: C_2  and  C_3 
REMARK    2  A    between atoms: C_3  and  C_4 
REMARK    3  A    between atoms: C_3  and  C_12 
REMARK    4  A    between atoms: C_7  and  O_8 
REMARK    5  A    between atoms: C_12  and  C_13 
REMARK       I    between atoms: C_13  and  N_14 
REMARK    6  A    between atoms: N_14  and  C_15 
REMARK    7  A    between atoms: C_22  and  C_23 
REMARK       I    between atoms: C_23  and  N_24 
ROOT
HETATM    1  C   UNL     1     -42.006  55.486 -55.748  1.00  0.00     0.222 C 
HETATM    2  N   UNL     1     -42.221  56.726 -56.340  1.00  0.00    -0.327 N 
HETATM    3  O   UNL     1     -42.740  54.515 -55.860  1.00  0.00    -0.273 OA
HETATM    4  H   UNL     1     -41.646  57.491 -56.014  1.00  0.00     0.169 HD
ENDROOT
BRANCH   2   5
HETATM    5  C   UNL     1     -43.254  57.060 -57.244  1.00  0.00     0.035 A 
HETATM    6  C   UNL     1     -43.653  56.226 -58.299  1.00  0.00     0.046 A 
HETATM    7  C   UNL     1     -44.691  56.639 -59.160  1.00  0.00     0.030 A 
HETATM    8  C   UNL     1     -45.303  57.865 -58.933  1.00  0.00     0.063 A 
HETATM    9  C   UNL     1     -45.341  56.108 -60.314  1.00  0.00     0.156 A 
HETATM   10  N   UNL     1     -46.264  57.973 -59.898  1.00  0.00    -0.277 N 
HETATM   11  C   UNL     1     -44.926  58.725 -57.899  1.00  0.00     0.034 A 
HETATM   12  H   UNL     1     -46.917  58.737 -60.032  1.00  0.00     0.189 HD
HETATM   13  N   UNL     1     -46.315  56.938 -60.754  1.00  0.00    -0.168 NA
HETATM   14  C   UNL     1     -43.879  58.301 -57.069  1.00  0.00     0.032 A 
BRANCH   9  15
HETATM   15  C   UNL     1     -45.049  54.843 -61.005  1.00  0.00     0.270 C 
HETATM   16  N   UNL     1     -44.915  53.768 -60.170  1.00  0.00    -0.365 N 
HETATM   17  H   UNL     1     -45.044  53.907 -59.175  1.00  0.00     0.159 HD
HETATM   18  H   UNL     1     -44.745  52.855 -60.559  1.00  0.00     0.159 HD
HETATM   19  O   UNL     1     -44.939  54.719 -62.219  1.00  0.00    -0.266 OA
ENDBRANCH   9  15
ENDBRANCH   2   5
BRANCH   1  20
HETATM   20  C   UNL     1     -40.753  55.497 -54.878  1.00  0.00     0.112 C 
BRANCH  20  21
HETATM   21  C   UNL     1     -40.908  55.191 -53.373  1.00  0.00     0.027 C 
BRANCH  21  22
HETATM   22  C   UNL     1     -42.286  55.587 -52.800  1.00  0.00     0.005 C 
HETATM   23  C   UNL     1     -43.151  54.380 -52.455  1.00  0.00     0.006 C 
ENDBRANCH  21  22
BRANCH  21  24
HETATM   24  C   UNL     1     -40.468  53.782 -52.996  1.00  0.00    -0.053 A 
HETATM   25  C   UNL     1     -40.329  52.760 -53.942  1.00  0.00     0.010 A 
HETATM   26  C   UNL     1     -39.952  51.471 -53.553  1.00  0.00     0.037 A 
HETATM   27  C   UNL     1     -39.723  51.167 -52.212  1.00  0.00     0.068 A 
HETATM   28  C   UNL     1     -39.846  52.177 -51.261  1.00  0.00     0.037 A 
HETATM   29  C   UNL     1     -40.213  53.472 -51.650  1.00  0.00     0.010 A 
BRANCH  27  30
HETATM   30  O   UNL     1     -39.384  49.866 -51.966  1.00  0.00    -0.356 OA
HETATM   31  C   UNL     1     -39.717  49.353 -50.683  1.00  0.00     0.210 C 
ENDBRANCH  27  30
ENDBRANCH  21  24
ENDBRANCH  20  21
ENDBRANCH   1  20
TORSDOF 7
ENDMDL
MODEL 7
REMARK VINA RESULT:      -7.9      2.421      3.719
REMARK  7 active torsions:
REMARK  status: ('A' for Active; 'I' for Inactive)
REMARK    1  A    between atoms: C_2  and  C_3 
REMARK    2  A    between atoms: C_3  and  C_4 
REMARK    3  A    between atoms: C_3  and  C_12 
REMARK    4  A    between atoms: C_7  and  O_8 
REMARK    5  A    between atoms: C_12  and  C_13 
REMARK       I    between atoms: C_13  and  N_14 
REMARK    6  A    between atoms: N_14  and  C_15 
REMARK    7  A    between atoms: C_22  and  C_23 
REMARK       I    between atoms: C_23  and  N_24 
ROOT
HETATM    1  C   UNL     1     -42.249  55.415 -55.997  1.00  0.00     0.222 C 
HETATM    2  N   UNL     1     -42.317  56.360 -57.013  1.00  0.00    -0.327 N 
HETATM    3  O   UNL     1     -43.090  54.556 -55.775  1.00  0.00    -0.273 OA
HETATM    4  H   UNL     1     -41.658  57.126 -56.967  1.00  0.00     0.169 HD
ENDROOT
BRANCH   2   5
HETATM    5  C   UNL     1     -43.301  56.443 -58.023  1.00  0.00     0.035 A 
HETATM    6  C   UNL     1     -44.370  57.350 -57.983  1.00  0.00     0.046 A 
HETATM    7  C   UNL     1     -45.314  57.362 -59.033  1.00  0.00     0.030 A 
HETATM    8  C   UNL     1     -45.151  56.478 -60.091  1.00  0.00     0.063 A 
HETATM    9  C   UNL     1     -46.505  58.088 -59.335  1.00  0.00     0.156 A 
HETATM   10  N   UNL     1     -46.187  56.739 -60.943  1.00  0.00    -0.277 N 
HETATM   11  C   UNL     1     -44.105  55.554 -60.159  1.00  0.00     0.034 A 
HETATM   12  H   UNL     1     -46.381  56.289 -61.830  1.00  0.00     0.189 HD
HETATM   13  N   UNL     1     -47.029  57.698 -60.520  1.00  0.00    -0.168 NA
HETATM   14  C   UNL     1     -43.193  55.548 -59.095  1.00  0.00     0.032 A 
BRANCH   9  15
HETATM   15  C   UNL     1     -47.153  59.126 -58.520  1.00  0.00     0.270 C 
HETATM   16  N   UNL     1     -47.725  58.658 -57.369  1.00  0.00    -0.365 N 
HETATM   17  H   UNL     1     -47.647  57.671 -57.154  1.00  0.00     0.159 HD
HETATM   18  H   UNL     1     -48.164  59.304 -56.735  1.00  0.00     0.159 HD
HETATM   19  O   UNL     1     -47.188  60.317 -58.805  1.00  0.00    -0.266 OA
ENDBRANCH   9  15
ENDBRANCH   2   5
BRANCH   1  20
HETATM   20  C   UNL     1     -41.006  55.614 -55.135  1.00  0.00     0.112 C 
BRANCH  20  21
HETATM   21  C   UNL     1     -41.123  55.363 -53.617  1.00  0.00     0.027 C 
BRANCH  21  22
HETATM   22  C   UNL     1     -42.503  55.735 -53.033  1.00  0.00     0.005 C 
HETATM   23  C   UNL     1     -42.478  57.035 -52.236  1.00  0.00     0.006 C 
ENDBRANCH  21  22
BRANCH  21  24
HETATM   24  C   UNL     1     -40.627  53.987 -53.193  1.00  0.00    -0.053 A 
HETATM   25  C   UNL     1     -40.324  52.981 -54.117  1.00  0.00     0.010 A 
HETATM   26  C   UNL     1     -39.900  51.719 -53.689  1.00  0.00     0.037 A 
HETATM   27  C   UNL     1     -39.787  51.426 -52.331  1.00  0.00     0.068 A 
HETATM   28  C   UNL     1     -40.074  52.421 -51.400  1.00  0.00     0.037 A 
HETATM   29  C   UNL     1     -40.487  53.690 -51.828  1.00  0.00     0.010 A 
BRANCH  27  30
HETATM   30  O   UNL     1     -39.385  50.151 -52.048  1.00  0.00    -0.356 OA
HETATM   31  C   UNL     1     -39.583  49.702 -50.714  1.00  0.00     0.210 C 
ENDBRANCH  27  30
ENDBRANCH  21  24
ENDBRANCH  20  21
ENDBRANCH   1  20
TORSDOF 7
ENDMDL
MODEL 8
REMARK VINA RESULT:      -7.9      3.009      9.446
REMARK  7 active torsions:
REMARK  status: ('A' for Active; 'I' for Inactive)
REMARK    1  A    between atoms: C_2  and  C_3 
REMARK    2  A    between atoms: C_3  and  C_4 
REMARK    3  A    between atoms: C_3  and  C_12 
REMARK    4  A    between atoms: C_7  and  O_8 
REMARK    5  A    between atoms: C_12  and  C_13 
REMARK       I    between atoms: C_13  and  N_14 
REMARK    6  A    between atoms: N_14  and  C_15 
REMARK    7  A    between atoms: C_22  and  C_23 
REMARK       I    between atoms: C_23  and  N_24 
ROOT
HETATM    1  C   UNL     1     -42.552  54.960 -56.240  1.00  0.00     0.222 C 
HETATM    2  N   UNL     1     -41.276  54.848 -55.702  1.00  0.00    -0.327 N 
HETATM    3  O   UNL     1     -43.567  54.481 -55.754  1.00  0.00    -0.273 OA
HETATM    4  H   UNL     1     -40.506  55.123 -56.297  1.00  0.00     0.169 HD
ENDROOT
BRANCH   2   5
HETATM    5  C   UNL     1     -40.932  54.260 -54.465  1.00  0.00     0.035 A 
HETATM    6  C   UNL     1     -40.556  52.915 -54.331  1.00  0.00     0.046 A 
HETATM    7  C   UNL     1     -40.233  52.405 -53.055  1.00  0.00     0.030 A 
HETATM    8  C   UNL     1     -40.283  53.257 -51.960  1.00  0.00     0.063 A 
HETATM    9  C   UNL     1     -39.843  51.139 -52.524  1.00  0.00     0.156 A 
HETATM   10  N   UNL     1     -39.903  52.494 -50.892  1.00  0.00    -0.277 N 
HETATM   11  C   UNL     1     -40.662  54.598 -52.054  1.00  0.00     0.034 A 
HETATM   12  H   UNL     1     -39.813  52.791 -49.926  1.00  0.00     0.189 HD
HETATM   13  N   UNL     1     -39.635  51.212 -51.188  1.00  0.00    -0.168 NA
HETATM   14  C   UNL     1     -40.998  55.076 -53.328  1.00  0.00     0.032 A 
BRANCH   9  15
HETATM   15  C   UNL     1     -39.676  49.874 -53.253  1.00  0.00     0.270 C 
HETATM   16  N   UNL     1     -39.249  48.832 -52.476  1.00  0.00    -0.365 N 
HETATM   17  H   UNL     1     -39.104  48.992 -51.486  1.00  0.00     0.159 HD
HETATM   18  H   UNL     1     -39.137  47.919 -52.886  1.00  0.00     0.159 HD
HETATM   19  O   UNL     1     -39.901  49.720 -54.448  1.00  0.00    -0.266 OA
ENDBRANCH   9  15
ENDBRANCH   2   5
BRANCH   1  20
HETATM   20  C   UNL     1     -42.532  55.714 -57.566  1.00  0.00     0.112 C 
BRANCH  20  21
HETATM   21  C   UNL     1     -43.532  56.873 -57.762  1.00  0.00     0.027 C 
BRANCH  21  22
HETATM   22  C   UNL     1     -42.867  58.267 -57.779  1.00  0.00     0.005 C 
HETATM   23  C   UNL     1     -42.727  58.872 -56.386  1.00  0.00     0.006 C 
ENDBRANCH  21  22
BRANCH  21  24
HETATM   24  C   UNL     1     -44.505  56.642 -58.910  1.00  0.00    -0.053 A 
HETATM   25  C   UNL     1     -45.597  57.484 -59.150  1.00  0.00     0.010 A 
HETATM   26  C   UNL     1     -46.487  57.223 -60.196  1.00  0.00     0.037 A 
HETATM   27  C   UNL     1     -46.319  56.108 -61.016  1.00  0.00     0.068 A 
HETATM   28  C   UNL     1     -45.230  55.267 -60.796  1.00  0.00     0.037 A 
HETATM   29  C   UNL     1     -44.331  55.534 -59.755  1.00  0.00     0.010 A 
BRANCH  27  30
HETATM   30  O   UNL     1     -47.270  55.957 -61.985  1.00  0.00    -0.356 OA
HETATM   31  C   UNL     1     -48.315  56.920 -62.007  1.00  0.00     0.210 C 
ENDBRANCH  27  30
ENDBRANCH  21  24
ENDBRANCH  20  21
ENDBRANCH   1  20
TORSDOF 7
ENDMDL
MODEL 9
REMARK VINA RESULT:      -7.8      2.876      4.657
REMARK  7 active torsions:
REMARK  status: ('A' for Active; 'I' for Inactive)
REMARK    1  A    between atoms: C_2  and  C_3 
REMARK    2  A    between atoms: C_3  and  C_4 
REMARK    3  A    between atoms: C_3  and  C_12 
REMARK    4  A    between atoms: C_7  and  O_8 
REMARK    5  A    between atoms: C_12  and  C_13 
REMARK       I    between atoms: C_13  and  N_14 
REMARK    6  A    between atoms: N_14  and  C_15 
REMARK    7  A    between atoms: C_22  and  C_23 
REMARK       I    between atoms: C_23  and  N_24 
ROOT
HETATM    1  C   UNL     1     -43.604  56.255 -54.388  1.00  0.00     0.222 C 
HETATM    2  N   UNL     1     -42.575  56.172 -55.319  1.00  0.00    -0.327 N 
HETATM    3  O   UNL     1     -44.670  56.825 -54.564  1.00  0.00    -0.273 OA
HETATM    4  H   UNL     1     -41.681  55.841 -54.981  1.00  0.00     0.169 HD
ENDROOT
BRANCH   2   5
HETATM    5  C   UNL     1     -42.607  56.636 -56.653  1.00  0.00     0.035 A 
HETATM    6  C   UNL     1     -42.259  57.944 -57.021  1.00  0.00     0.046 A 
HETATM    7  C   UNL     1     -42.324  58.327 -58.378  1.00  0.00     0.030 A 
HETATM    8  C   UNL     1     -42.722  57.389 -59.321  1.00  0.00     0.063 A 
HETATM    9  C   UNL     1     -42.084  59.522 -59.120  1.00  0.00     0.156 A 
HETATM   10  N   UNL     1     -42.665  58.038 -60.522  1.00  0.00    -0.277 N 
HETATM   11  C   UNL     1     -43.085  56.082 -58.990  1.00  0.00     0.034 A 
HETATM   12  H   UNL     1     -42.877  57.657 -61.437  1.00  0.00     0.189 HD
HETATM   13  N   UNL     1     -42.291  59.326 -60.443  1.00  0.00    -0.168 NA
HETATM   14  C   UNL     1     -43.032  55.731 -57.634  1.00  0.00     0.032 A 
BRANCH   9  15
HETATM   15  C   UNL     1     -41.676  60.835 -58.599  1.00  0.00     0.270 C 
HETATM   16  N   UNL     1     -42.363  61.888 -59.138  1.00  0.00    -0.365 N 
HETATM   17  H   UNL     1     -43.091  61.698 -59.816  1.00  0.00     0.159 HD
HETATM   18  H   UNL     1     -42.171  62.823 -58.816  1.00  0.00     0.159 HD
HETATM   19  O   UNL     1     -40.812  61.011 -57.748  1.00  0.00    -0.266 OA
ENDBRANCH   9  15
ENDBRANCH   2   5
BRANCH   1  20
HETATM   20  C   UNL     1     -43.216  55.587 -53.072  1.00  0.00     0.112 C 
BRANCH  20  21
HETATM   21  C   UNL     1     -41.727  55.584 -52.667  1.00  0.00     0.027 C 
BRANCH  21  22
HETATM   22  C   UNL     1     -41.454  56.263 -51.307  1.00  0.00     0.005 C 
HETATM   23  C   UNL     1     -41.076  57.734 -51.447  1.00  0.00     0.006 C 
ENDBRANCH  21  22
BRANCH  21  24
HETATM   24  C   UNL     1     -41.064  54.220 -52.815  1.00  0.00    -0.053 A 
HETATM   25  C   UNL     1     -41.054  53.519 -54.026  1.00  0.00     0.010 A 
HETATM   26  C   UNL     1     -40.462  52.255 -54.116  1.00  0.00     0.037 A 
HETATM   27  C   UNL     1     -39.884  51.655 -52.999  1.00  0.00     0.068 A 
HETATM   28  C   UNL     1     -39.877  52.346 -51.790  1.00  0.00     0.037 A 
HETATM   29  C   UNL     1     -40.459  53.617 -51.701  1.00  0.00     0.010 A 
BRANCH  27  30
HETATM   30  O   UNL     1     -39.362  50.411 -53.218  1.00  0.00    -0.356 OA
HETATM   31  C   UNL     1     -39.691  49.791 -54.454  1.00  0.00     0.210 C 
ENDBRANCH  27  30
ENDBRANCH  21  24
ENDBRANCH  20  21
ENDBRANCH   1  20
TORSDOF 7
ENDMDL
MODEL 10
REMARK VINA RESULT:      -7.6      2.798      3.492
REMARK  7 active torsions:
REMARK  status: ('A' for Active; 'I' for Inactive)
REMARK    1  A    between atoms: C_2  and  C_3 
REMARK    2  A    between atoms: C_3  and  C_4 
REMARK    3  A    between atoms: C_3  and  C_12 
REMARK    4  A    between atoms: C_7  and  O_8 
REMARK    5  A    between atoms: C_12  and  C_13 
REMARK       I    between atoms: C_13  and  N_14 
REMARK    6  A    between atoms: N_14  and  C_15 
REMARK    7  A    between atoms: C_22  and  C_23 
REMARK       I    between atoms: C_23  and  N_24 
ROOT
HETATM    1  C   UNL     1     -42.372  54.841 -56.013  1.00  0.00     0.222 C 
HETATM    2  N   UNL     1     -42.178  55.959 -56.816  1.00  0.00    -0.327 N 
HETATM    3  O   UNL     1     -43.375  54.142 -56.009  1.00  0.00    -0.273 OA
HETATM    4  H   UNL     1     -41.393  56.553 -56.586  1.00  0.00     0.169 HD
ENDROOT
BRANCH   2   5
HETATM    5  C   UNL     1     -43.042  56.429 -57.829  1.00  0.00     0.035 A 
HETATM    6  C   UNL     1     -44.061  57.365 -57.598  1.00  0.00     0.046 A 
HETATM    7  C   UNL     1     -44.884  57.777 -58.667  1.00  0.00     0.030 A 
HETATM    8  C   UNL     1     -44.655  57.252 -59.932  1.00  0.00     0.063 A 
HETATM    9  C   UNL     1     -45.998  58.657 -58.827  1.00  0.00     0.156 A 
HETATM   10  N   UNL     1     -45.579  57.848 -60.744  1.00  0.00    -0.277 N 
HETATM   11  C   UNL     1     -43.657  56.311 -60.197  1.00  0.00     0.034 A 
HETATM   12  H   UNL     1     -45.700  57.711 -61.741  1.00  0.00     0.189 HD
HETATM   13  N   UNL     1     -46.410  58.695 -60.115  1.00  0.00    -0.168 NA
HETATM   14  C   UNL     1     -42.866  55.902 -59.116  1.00  0.00     0.032 A 
BRANCH   9  15
HETATM   15  C   UNL     1     -46.674  59.443 -57.786  1.00  0.00     0.270 C 
HETATM   16  N   UNL     1     -47.823  58.871 -57.310  1.00  0.00    -0.365 N 
HETATM   17  H   UNL     1     -48.104  57.970 -57.677  1.00  0.00     0.159 HD
HETATM   18  H   UNL     1     -48.335  59.326 -56.572  1.00  0.00     0.159 HD
HETATM   19  O   UNL     1     -46.272  60.515 -57.346  1.00  0.00    -0.266 OA
ENDBRANCH   9  15
ENDBRANCH   2   5
BRANCH   1  20
HETATM   20  C   UNL     1     -41.189  54.618 -55.077  1.00  0.00     0.112 C 
BRANCH  20  21
HETATM   21  C   UNL     1     -41.480  54.357 -53.583  1.00  0.00     0.027 C 
BRANCH  21  22
HETATM   22  C   UNL     1     -40.777  53.101 -53.026  1.00  0.00     0.005 C 
HETATM   23  C   UNL     1     -40.186  52.220 -54.122  1.00  0.00     0.006 C 
ENDBRANCH  21  22
BRANCH  21  24
HETATM   24  C   UNL     1     -41.309  55.594 -52.711  1.00  0.00    -0.053 A 
HETATM   25  C   UNL     1     -41.144  56.875 -53.249  1.00  0.00     0.010 A 
HETATM   26  C   UNL     1     -40.959  57.983 -52.416  1.00  0.00     0.037 A 
HETATM   27  C   UNL     1     -40.916  57.837 -51.031  1.00  0.00     0.068 A 
HETATM   28  C   UNL     1     -41.090  56.569 -50.480  1.00  0.00     0.037 A 
HETATM   29  C   UNL     1     -41.287  55.460 -51.313  1.00  0.00     0.010 A 
BRANCH  27  30
HETATM   30  O   UNL     1     -40.707  58.995 -50.335  1.00  0.00    -0.356 OA
HETATM   31  C   UNL     1     -39.433  59.607 -50.486  1.00  0.00     0.210 C 
ENDBRANCH  27  30
ENDBRANCH  21  24
ENDBRANCH  20  21
ENDBRANCH   1  20
TORSDOF 7
ENDMDL
