MODEL 1
REMARK VINA RESULT:      -7.7      0.000      0.000
REMARK  6 active torsions:
REMARK  status: ('A' for Active; 'I' for Inactive)
REMARK    1  A    between atoms: C_2  and  O_3 
REMARK    2  A    between atoms: O_3  and  C_4 
REMARK    3  A    between atoms: C_7  and  C_8 
REMARK       I    between atoms: N_11  and  C_12 
REMARK       I    between atoms: C_12  and  N_13 
REMARK    4  A    between atoms: N_13  and  C_14 
REMARK    5  A    between atoms: C_14  and  C_15 
REMARK    6  A    between atoms: C_15  and  C_16 
ROOT
HETATM    1  C   UNL     1     -42.782  55.785 -52.488  1.00  0.00    -0.049 C 
HETATM    2  C   UNL     1     -43.291  56.474 -53.732  1.00  0.00     0.059 C 
HETATM    3  C   UNL     1     -44.497  57.367 -53.431  1.00  0.00     0.132 C 
HETATM    4  N   UNL     1     -44.267  58.194 -52.252  1.00  0.00    -0.331 N 
HETATM    5  C   UNL     1     -44.558  59.545 -52.324  1.00  0.00     0.318 C 
HETATM    6  N   UNL     1     -44.431  60.235 -51.145  1.00  0.00    -0.338 N 
HETATM    7  O   UNL     1     -44.875  60.105 -53.372  1.00  0.00    -0.247 OA
HETATM    8  C   UNL     1     -43.950  57.481 -51.018  1.00  0.00     0.155 C 
HETATM    9  C   UNL     1     -43.132  56.247 -51.271  1.00  0.00     0.001 C 
HETATM   10  H   UNL     1     -44.748  59.723 -50.328  1.00  0.00     0.164 HD
ENDROOT
BRANCH   6  11
HETATM   11  C   UNL     1     -44.787  61.650 -51.061  1.00  0.00     0.087 C 
HETATM   12  C   UNL     1     -43.545  62.482 -50.751  1.00  0.00     0.032 C 
BRANCH  11  13
HETATM   13  C   UNL     1     -45.927  61.876 -50.045  1.00  0.00     0.085 C 
BRANCH  13  14
HETATM   14  C   UNL     1     -45.668  61.301 -48.683  1.00  0.00     0.058 A 
HETATM   15  N   UNL     1     -46.001  60.036 -48.385  1.00  0.00    -0.179 NA
HETATM   16  N   UNL     1     -45.626  59.895 -47.101  1.00  0.00    -0.282 N 
HETATM   17  H   UNL     1     -45.787  59.002 -46.648  1.00  0.00     0.189 HD
HETATM   18  C   UNL     1     -45.055  61.017 -46.570  1.00  0.00     0.026 A 
HETATM   19  C   UNL     1     -44.566  61.084 -45.175  1.00  0.00     0.070 C 
HETATM   20  C   UNL     1     -45.075  61.954 -47.577  1.00  0.00     0.055 A 
ENDBRANCH  13  14
ENDBRANCH  11  13
ENDBRANCH   6  11
BRANCH   1  21
HETATM   21  C   UNL     1     -41.900  54.608 -52.631  1.00  0.00    -0.030 A 
HETATM   22  C   UNL     1     -41.612  54.052 -53.884  1.00  0.00     0.014 A 
HETATM   23  C   UNL     1     -40.746  52.955 -54.009  1.00  0.00     0.037 A 
HETATM   24  C   UNL     1     -40.154  52.396 -52.879  1.00  0.00     0.068 A 
HETATM   25  C   UNL     1     -40.440  52.936 -51.626  1.00  0.00     0.037 A 
HETATM   26  C   UNL     1     -41.297  54.033 -51.503  1.00  0.00     0.014 A 
BRANCH  24  27
HETATM   27  O   UNL     1     -39.295  51.332 -52.860  1.00  0.00    -0.352 OA
BRANCH  27  28
HETATM   28  C   UNL     1     -39.843  50.050 -53.161  1.00  0.00     0.171 C 
HETATM   29  C   UNL     1     -39.653  49.799 -54.646  1.00  0.00     0.034 C 
ENDBRANCH  27  28
ENDBRANCH  24  27
ENDBRANCH   1  21
TORSDOF 6
ENDMDL
MODEL 2
REMARK VINA RESULT:      -7.3      5.361      8.017
REMARK  6 active torsions:
REMARK  status: ('A' for Active; 'I' for Inactive)
REMARK    1  A    between atoms: C_2  and  O_3 
REMARK    2  A    between atoms: O_3  and  C_4 
REMARK    3  A    between atoms: C_7  and  C_8 
REMARK       I    between atoms: N_11  and  C_12 
REMARK       I    between atoms: C_12  and  N_13 
REMARK    4  A    between atoms: N_13  and  C_14 
REMARK    5  A    between atoms: C_14  and  C_15 
REMARK    6  A    between atoms: C_15  and  C_16 
ROOT
HETATM    1  C   UNL     1     -41.512  55.139 -54.599  1.00  0.00    -0.049 C 
HETATM    2  C   UNL     1     -41.655  56.492 -53.943  1.00  0.00     0.059 C 
HETATM    3  C   UNL     1     -41.924  57.594 -54.971  1.00  0.00     0.132 C 
HETATM    4  N   UNL     1     -42.956  57.195 -55.920  1.00  0.00    -0.331 N 
HETATM    5  C   UNL     1     -43.983  58.083 -56.194  1.00  0.00     0.318 C 
HETATM    6  N   UNL     1     -44.848  57.690 -57.183  1.00  0.00    -0.338 N 
HETATM    7  O   UNL     1     -44.137  59.136 -55.577  1.00  0.00    -0.247 OA
HETATM    8  C   UNL     1     -42.702  55.969 -56.671  1.00  0.00     0.155 C 
HETATM    9  C   UNL     1     -41.965  54.948 -55.853  1.00  0.00     0.001 C 
HETATM   10  H   UNL     1     -44.401  57.225 -57.966  1.00  0.00     0.164 HD
ENDROOT
BRANCH   6  11
HETATM   11  C   UNL     1     -45.927  58.571 -57.630  1.00  0.00     0.087 C 
HETATM   12  C   UNL     1     -47.280  57.919 -57.350  1.00  0.00     0.032 C 
BRANCH  11  13
HETATM   13  C   UNL     1     -45.746  58.962 -59.111  1.00  0.00     0.085 C 
BRANCH  13  14
HETATM   14  C   UNL     1     -46.382  58.013 -60.086  1.00  0.00     0.058 A 
HETATM   15  N   UNL     1     -45.893  56.778 -60.278  1.00  0.00    -0.179 NA
HETATM   16  N   UNL     1     -46.707  56.247 -61.206  1.00  0.00    -0.282 N 
HETATM   17  H   UNL     1     -46.525  55.300 -61.521  1.00  0.00     0.189 HD
HETATM   18  C   UNL     1     -47.705  57.090 -61.608  1.00  0.00     0.026 A 
HETATM   19  C   UNL     1     -48.717  56.710 -62.618  1.00  0.00     0.070 C 
HETATM   20  C   UNL     1     -47.515  58.253 -60.899  1.00  0.00     0.055 A 
ENDBRANCH  13  14
ENDBRANCH  11  13
ENDBRANCH   6  11
BRANCH   1  21
HETATM   21  C   UNL     1     -40.873  54.041 -53.843  1.00  0.00    -0.030 A 
HETATM   22  C   UNL     1     -40.786  54.062 -52.446  1.00  0.00     0.014 A 
HETATM   23  C   UNL     1     -40.208  52.997 -51.738  1.00  0.00     0.037 A 
HETATM   24  C   UNL     1     -39.705  51.892 -52.421  1.00  0.00     0.068 A 
HETATM   25  C   UNL     1     -39.778  51.864 -53.813  1.00  0.00     0.037 A 
HETATM   26  C   UNL     1     -40.362  52.922 -54.517  1.00  0.00     0.014 A 
BRANCH  24  27
HETATM   27  O   UNL     1     -39.121  50.792 -51.858  1.00  0.00    -0.352 OA
BRANCH  27  28
HETATM   28  C   UNL     1     -39.987  49.837 -51.248  1.00  0.00     0.171 C 
HETATM   29  C   UNL     1     -40.247  50.289 -49.822  1.00  0.00     0.034 C 
ENDBRANCH  27  28
ENDBRANCH  24  27
ENDBRANCH   1  21
TORSDOF 6
ENDMDL
MODEL 3
REMARK VINA RESULT:      -7.2      5.315      7.658
REMARK  6 active torsions:
REMARK  status: ('A' for Active; 'I' for Inactive)
REMARK    1  A    between atoms: C_2  and  O_3 
REMARK    2  A    between atoms: O_3  and  C_4 
REMARK    3  A    between atoms: C_7  and  C_8 
REMARK       I    between atoms: N_11  and  C_12 
REMARK       I    between atoms: C_12  and  N_13 
REMARK    4  A    between atoms: N_13  and  C_14 
REMARK    5  A    between atoms: C_14  and  C_15 
REMARK    6  A    between atoms: C_15  and  C_16 
ROOT
HETATM    1  C   UNL     1     -42.379  55.480 -54.916  1.00  0.00    -0.049 C 
HETATM    2  C   UNL     1     -43.339  56.465 -54.293  1.00  0.00     0.059 C 
HETATM    3  C   UNL     1     -43.649  57.629 -55.238  1.00  0.00     0.132 C 
HETATM    4  N   UNL     1     -43.951  57.156 -56.583  1.00  0.00    -0.331 N 
HETATM    5  C   UNL     1     -45.071  57.656 -57.225  1.00  0.00     0.318 C 
HETATM    6  N   UNL     1     -45.225  57.258 -58.529  1.00  0.00    -0.338 N 
HETATM    7  O   UNL     1     -45.894  58.380 -56.666  1.00  0.00    -0.247 OA
HETATM    8  C   UNL     1     -42.921  56.349 -57.229  1.00  0.00     0.155 C 
HETATM    9  C   UNL     1     -42.185  55.480 -56.249  1.00  0.00     0.001 C 
HETATM   10  H   UNL     1     -44.359  57.210 -59.054  1.00  0.00     0.164 HD
ENDROOT
BRANCH   6  11
HETATM   11  C   UNL     1     -46.318  57.780 -59.348  1.00  0.00     0.087 C 
HETATM   12  C   UNL     1     -47.073  56.625 -60.005  1.00  0.00     0.032 C 
BRANCH  11  13
HETATM   13  C   UNL     1     -45.801  58.814 -60.371  1.00  0.00     0.085 C 
BRANCH  13  14
HETATM   14  C   UNL     1     -44.367  59.214 -60.179  1.00  0.00     0.058 A 
HETATM   15  N   UNL     1     -43.363  58.382 -60.495  1.00  0.00    -0.179 NA
HETATM   16  N   UNL     1     -42.255  59.078 -60.185  1.00  0.00    -0.282 N 
HETATM   17  H   UNL     1     -41.353  58.640 -60.337  1.00  0.00     0.189 HD
HETATM   18  C   UNL     1     -42.511  60.327 -59.694  1.00  0.00     0.026 A 
HETATM   19  C   UNL     1     -41.440  61.265 -59.292  1.00  0.00     0.070 C 
HETATM   20  C   UNL     1     -43.882  60.442 -59.672  1.00  0.00     0.055 A 
ENDBRANCH  13  14
ENDBRANCH  11  13
ENDBRANCH   6  11
BRANCH   1  21
HETATM   21  C   UNL     1     -41.666  54.524 -54.042  1.00  0.00    -0.030 A 
HETATM   22  C   UNL     1     -40.980  53.421 -54.564  1.00  0.00     0.014 A 
HETATM   23  C   UNL     1     -40.278  52.540 -53.727  1.00  0.00     0.037 A 
HETATM   24  C   UNL     1     -40.255  52.749 -52.350  1.00  0.00     0.068 A 
HETATM   25  C   UNL     1     -40.943  53.839 -51.818  1.00  0.00     0.037 A 
HETATM   26  C   UNL     1     -41.635  54.721 -52.654  1.00  0.00     0.014 A 
BRANCH  24  27
HETATM   27  O   UNL     1     -39.613  51.973 -51.426  1.00  0.00    -0.352 OA
BRANCH  27  28
HETATM   28  C   UNL     1     -39.384  50.608 -51.772  1.00  0.00     0.171 C 
HETATM   29  C   UNL     1     -39.846  49.749 -50.610  1.00  0.00     0.034 C 
ENDBRANCH  27  28
ENDBRANCH  24  27
ENDBRANCH   1  21
TORSDOF 6
ENDMDL
MODEL 4
REMARK VINA RESULT:      -7.1      1.864      3.358
REMARK  6 active torsions:
REMARK  status: ('A' for Active; 'I' for Inactive)
REMARK    1  A    between atoms: C_2  and  O_3 
REMARK    2  A    between atoms: O_3  and  C_4 
REMARK    3  A    between atoms: C_7  and  C_8 
REMARK       I    between atoms: N_11  and  C_12 
REMARK       I    between atoms: C_12  and  N_13 
REMARK    4  A    between atoms: N_13  and  C_14 
REMARK    5  A    between atoms: C_14  and  C_15 
REMARK    6  A    between atoms: C_15  and  C_16 
ROOT
HETATM    1  C   UNL     1     -41.889  56.616 -51.959  1.00  0.00    -0.049 C 
HETATM    2  C   UNL     1     -40.936  57.787 -51.942  1.00  0.00     0.059 C 
HETATM    3  C   UNL     1     -41.667  59.117 -52.141  1.00  0.00     0.132 C 
HETATM    4  N   UNL     1     -42.852  59.203 -51.295  1.00  0.00    -0.331 N 
HETATM    5  C   UNL     1     -43.055  60.357 -50.557  1.00  0.00     0.318 C 
HETATM    6  N   UNL     1     -44.247  60.416 -49.881  1.00  0.00    -0.338 N 
HETATM    7  O   UNL     1     -42.220  61.256 -50.479  1.00  0.00    -0.247 OA
HETATM    8  C   UNL     1     -43.843  58.146 -51.464  1.00  0.00     0.155 C 
HETATM    9  C   UNL     1     -43.209  56.820 -51.775  1.00  0.00     0.001 C 
HETATM   10  H   UNL     1     -45.036  60.035 -50.393  1.00  0.00     0.164 HD
ENDROOT
BRANCH   6  11
HETATM   11  C   UNL     1     -44.626  61.613 -49.131  1.00  0.00     0.087 C 
HETATM   12  C   UNL     1     -45.171  61.218 -47.760  1.00  0.00     0.032 C 
BRANCH  11  13
HETATM   13  C   UNL     1     -45.611  62.485 -49.937  1.00  0.00     0.085 C 
BRANCH  13  14
HETATM   14  C   UNL     1     -45.898  61.980 -51.321  1.00  0.00     0.058 A 
HETATM   15  N   UNL     1     -46.635  60.876 -51.523  1.00  0.00    -0.179 NA
HETATM   16  N   UNL     1     -46.666  60.746 -52.860  1.00  0.00    -0.282 N 
HETATM   17  H   UNL     1     -47.171  59.960 -53.256  1.00  0.00     0.189 HD
HETATM   18  C   UNL     1     -45.987  61.729 -53.523  1.00  0.00     0.026 A 
HETATM   19  C   UNL     1     -45.894  61.783 -54.999  1.00  0.00     0.070 C 
HETATM   20  C   UNL     1     -45.470  62.546 -52.545  1.00  0.00     0.055 A 
ENDBRANCH  13  14
ENDBRANCH  11  13
ENDBRANCH   6  11
BRANCH   1  21
HETATM   21  C   UNL     1     -41.351  55.256 -52.175  1.00  0.00    -0.030 A 
HETATM   22  C   UNL     1     -41.138  54.746 -53.461  1.00  0.00     0.014 A 
HETATM   23  C   UNL     1     -40.595  53.466 -53.653  1.00  0.00     0.037 A 
HETATM   24  C   UNL     1     -40.257  52.675 -52.557  1.00  0.00     0.068 A 
HETATM   25  C   UNL     1     -40.474  53.170 -51.272  1.00  0.00     0.037 A 
HETATM   26  C   UNL     1     -41.008  54.448 -51.082  1.00  0.00     0.014 A 
BRANCH  24  27
HETATM   27  O   UNL     1     -39.722  51.418 -52.602  1.00  0.00    -0.352 OA
BRANCH  27  28
HETATM   28  C   UNL     1     -39.264  50.953 -53.870  1.00  0.00     0.171 C 
HETATM   29  C   UNL     1     -40.251  49.913 -54.370  1.00  0.00     0.034 C 
ENDBRANCH  27  28
ENDBRANCH  24  27
ENDBRANCH   1  21
TORSDOF 6
ENDMDL
MODEL 5
REMARK VINA RESULT:      -7.0      5.028      6.749
REMARK  6 active torsions:
REMARK  status: ('A' for Active; 'I' for Inactive)
REMARK    1  A    between atoms: C_2  and  O_3 
REMARK    2  A    between atoms: O_3  and  C_4 
REMARK    3  A    between atoms: C_7  and  C_8 
REMARK       I    between atoms: N_11  and  C_12 
REMARK       I    between atoms: C_12  and  N_13 
REMARK    4  A    between atoms: N_13  and  C_14 
REMARK    5  A    between atoms: C_14  and  C_15 
REMARK    6  A    between atoms: C_15  and  C_16 
ROOT
HETATM    1  C   UNL     1     -42.295  55.538 -54.306  1.00  0.00    -0.049 C 
HETATM    2  C   UNL     1     -43.797  55.414 -54.222  1.00  0.00     0.059 C 
HETATM    3  C   UNL     1     -44.488  56.769 -54.394  1.00  0.00     0.132 C 
HETATM    4  N   UNL     1     -43.937  57.508 -55.524  1.00  0.00    -0.331 N 
HETATM    5  C   UNL     1     -44.812  58.080 -56.431  1.00  0.00     0.318 C 
HETATM    6  N   UNL     1     -44.227  58.858 -57.398  1.00  0.00    -0.338 N 
HETATM    7  O   UNL     1     -46.026  57.884 -56.403  1.00  0.00    -0.247 OA
HETATM    8  C   UNL     1     -42.501  57.766 -55.486  1.00  0.00     0.155 C 
HETATM    9  C   UNL     1     -41.739  56.638 -54.852  1.00  0.00     0.001 C 
HETATM   10  H   UNL     1     -43.452  59.422 -57.066  1.00  0.00     0.164 HD
ENDROOT
BRANCH   6  11
HETATM   11  C   UNL     1     -45.042  59.588 -58.368  1.00  0.00     0.087 C 
HETATM   12  C   UNL     1     -44.844  58.999 -59.763  1.00  0.00     0.032 C 
BRANCH  11  13
HETATM   13  C   UNL     1     -44.747  61.102 -58.312  1.00  0.00     0.085 C 
BRANCH  13  14
HETATM   14  C   UNL     1     -43.291  61.449 -58.202  1.00  0.00     0.058 A 
HETATM   15  N   UNL     1     -42.634  61.344 -57.036  1.00  0.00    -0.179 NA
HETATM   16  N   UNL     1     -41.383  61.737 -57.332  1.00  0.00    -0.282 N 
HETATM   17  H   UNL     1     -40.693  61.747 -56.588  1.00  0.00     0.189 HD
HETATM   18  C   UNL     1     -41.211  62.079 -58.644  1.00  0.00     0.026 A 
HETATM   19  C   UNL     1     -39.914  62.538 -59.189  1.00  0.00     0.070 C 
HETATM   20  C   UNL     1     -42.440  61.907 -59.236  1.00  0.00     0.055 A 
ENDBRANCH  13  14
ENDBRANCH  11  13
ENDBRANCH   6  11
BRANCH   1  21
HETATM   21  C   UNL     1     -41.454  54.439 -53.783  1.00  0.00    -0.030 A 
HETATM   22  C   UNL     1     -41.251  54.258 -52.410  1.00  0.00     0.014 A 
HETATM   23  C   UNL     1     -40.479  53.191 -51.925  1.00  0.00     0.037 A 
HETATM   24  C   UNL     1     -39.897  52.287 -52.811  1.00  0.00     0.068 A 
HETATM   25  C   UNL     1     -40.085  52.464 -54.181  1.00  0.00     0.037 A 
HETATM   26  C   UNL     1     -40.861  53.523 -54.663  1.00  0.00     0.014 A 
BRANCH  24  27
HETATM   27  O   UNL     1     -39.126  51.209 -52.475  1.00  0.00    -0.352 OA
BRANCH  27  28
HETATM   28  C   UNL     1     -39.795  49.961 -52.307  1.00  0.00     0.171 C 
HETATM   29  C   UNL     1     -39.750  49.603 -50.832  1.00  0.00     0.034 C 
ENDBRANCH  27  28
ENDBRANCH  24  27
ENDBRANCH   1  21
TORSDOF 6
ENDMDL
MODEL 6
REMARK VINA RESULT:      -6.9      4.965      7.313
REMARK  6 active torsions:
REMARK  status: ('A' for Active; 'I' for Inactive)
REMARK    1  A    between atoms: C_2  and  O_3 
REMARK    2  A    between atoms: O_3  and  C_4 
REMARK    3  A    between atoms: C_7  and  C_8 
REMARK       I    between atoms: N_11  and  C_12 
REMARK       I    between atoms: C_12  and  N_13 
REMARK    4  A    between atoms: N_13  and  C_14 
REMARK    5  A    between atoms: C_14  and  C_15 
REMARK    6  A    between atoms: C_15  and  C_16 
ROOT
HETATM    1  C   UNL     1     -41.683  56.369 -54.368  1.00  0.00    -0.049 C 
HETATM    2  C   UNL     1     -41.728  57.732 -53.721  1.00  0.00     0.059 C 
HETATM    3  C   UNL     1     -41.759  58.853 -54.764  1.00  0.00     0.132 C 
HETATM    4  N   UNL     1     -42.732  58.574 -55.815  1.00  0.00    -0.331 N 
HETATM    5  C   UNL     1     -43.612  59.577 -56.184  1.00  0.00     0.318 C 
HETATM    6  N   UNL     1     -44.414  59.285 -57.258  1.00  0.00    -0.338 N 
HETATM    7  O   UNL     1     -43.700  60.644 -55.580  1.00  0.00    -0.247 OA
HETATM    8  C   UNL     1     -42.552  57.323 -56.544  1.00  0.00     0.155 C 
HETATM    9  C   UNL     1     -42.028  56.225 -55.662  1.00  0.00     0.001 C 
HETATM   10  H   UNL     1     -43.950  58.764 -57.995  1.00  0.00     0.164 HD
ENDROOT
BRANCH   6  11
HETATM   11  C   UNL     1     -45.330  60.285 -57.805  1.00  0.00     0.087 C 
HETATM   12  C   UNL     1     -46.502  60.496 -56.849  1.00  0.00     0.032 C 
BRANCH  11  13
HETATM   13  C   UNL     1     -45.782  59.903 -59.230  1.00  0.00     0.085 C 
BRANCH  13  14
HETATM   14  C   UNL     1     -45.838  58.425 -59.489  1.00  0.00     0.058 A 
HETATM   15  N   UNL     1     -46.713  57.637 -58.846  1.00  0.00    -0.179 NA
HETATM   16  N   UNL     1     -46.460  56.409 -59.332  1.00  0.00    -0.282 N 
HETATM   17  H   UNL     1     -47.007  55.630 -58.980  1.00  0.00     0.189 HD
HETATM   18  C   UNL     1     -45.465  56.382 -60.268  1.00  0.00     0.026 A 
HETATM   19  C   UNL     1     -45.026  55.137 -60.936  1.00  0.00     0.070 C 
HETATM   20  C   UNL     1     -45.035  57.683 -60.387  1.00  0.00     0.055 A 
ENDBRANCH  13  14
ENDBRANCH  11  13
ENDBRANCH   6  11
BRANCH   1  21
HETATM   21  C   UNL     1     -41.259  55.206 -53.559  1.00  0.00    -0.030 A 
HETATM   22  C   UNL     1     -40.834  54.012 -54.153  1.00  0.00     0.014 A 
HETATM   23  C   UNL     1     -40.402  52.927 -53.375  1.00  0.00     0.037 A 
HETATM   24  C   UNL     1     -40.390  53.021 -51.985  1.00  0.00     0.068 A 
HETATM   25  C   UNL     1     -40.820  54.203 -51.382  1.00  0.00     0.037 A 
HETATM   26  C   UNL     1     -41.243  55.286 -52.159  1.00  0.00     0.014 A 
BRANCH  24  27
HETATM   27  O   UNL     1     -39.994  52.046 -51.113  1.00  0.00    -0.352 OA
BRANCH  27  28
HETATM   28  C   UNL     1     -39.407  50.874 -51.674  1.00  0.00     0.171 C 
HETATM   29  C   UNL     1     -39.740  49.705 -50.764  1.00  0.00     0.034 C 
ENDBRANCH  27  28
ENDBRANCH  24  27
ENDBRANCH   1  21
TORSDOF 6
ENDMDL
MODEL 7
REMARK VINA RESULT:      -6.9      5.298      9.396
REMARK  6 active torsions:
REMARK  status: ('A' for Active; 'I' for Inactive)
REMARK    1  A    between atoms: C_2  and  O_3 
REMARK    2  A    between atoms: O_3  and  C_4 
REMARK    3  A    between atoms: C_7  and  C_8 
REMARK       I    between atoms: N_11  and  C_12 
REMARK       I    between atoms: C_12  and  N_13 
REMARK    4  A    between atoms: N_13  and  C_14 
REMARK    5  A    between atoms: C_14  and  C_15 
REMARK    6  A    between atoms: C_15  and  C_16 
ROOT
HETATM    1  C   UNL     1     -42.587  56.540 -55.724  1.00  0.00    -0.049 C 
HETATM    2  C   UNL     1     -43.854  56.124 -55.016  1.00  0.00     0.059 C 
HETATM    3  C   UNL     1     -43.709  54.751 -54.355  1.00  0.00     0.132 C 
HETATM    4  N   UNL     1     -42.459  54.647 -53.612  1.00  0.00    -0.331 N 
HETATM    5  C   UNL     1     -42.497  54.144 -52.322  1.00  0.00     0.318 C 
HETATM    6  N   UNL     1     -41.272  53.963 -51.730  1.00  0.00    -0.338 N 
HETATM    7  O   UNL     1     -43.546  53.906 -51.728  1.00  0.00    -0.247 OA
HETATM    8  C   UNL     1     -41.236  54.882 -54.372  1.00  0.00     0.155 C 
HETATM    9  C   UNL     1     -41.421  55.928 -55.433  1.00  0.00     0.001 C 
HETATM   10  H   UNL     1     -40.555  53.613 -52.356  1.00  0.00     0.164 HD
ENDROOT
BRANCH   6  11
HETATM   11  C   UNL     1     -41.163  53.361 -50.402  1.00  0.00     0.087 C 
HETATM   12  C   UNL     1     -41.248  54.446 -49.330  1.00  0.00     0.032 C 
BRANCH  11  13
HETATM   13  C   UNL     1     -39.886  52.503 -50.285  1.00  0.00     0.085 C 
BRANCH  13  14
HETATM   14  C   UNL     1     -39.788  51.393 -51.290  1.00  0.00     0.058 A 
HETATM   15  N   UNL     1     -39.746  50.107 -50.908  1.00  0.00    -0.179 NA
HETATM   16  N   UNL     1     -39.656  49.428 -52.064  1.00  0.00    -0.282 N 
HETATM   17  H   UNL     1     -39.604  48.415 -52.025  1.00  0.00     0.189 HD
HETATM   18  C   UNL     1     -39.650  50.227 -53.172  1.00  0.00     0.026 A 
HETATM   19  C   UNL     1     -39.561  49.690 -54.548  1.00  0.00     0.070 C 
HETATM   20  C   UNL     1     -39.728  51.516 -52.698  1.00  0.00     0.055 A 
ENDBRANCH  13  14
ENDBRANCH  11  13
ENDBRANCH   6  11
BRANCH   1  21
HETATM   21  C   UNL     1     -42.649  57.623 -56.729  1.00  0.00    -0.030 A 
HETATM   22  C   UNL     1     -43.032  57.375 -58.053  1.00  0.00     0.014 A 
HETATM   23  C   UNL     1     -43.120  58.417 -58.989  1.00  0.00     0.037 A 
HETATM   24  C   UNL     1     -42.825  59.725 -58.613  1.00  0.00     0.068 A 
HETATM   25  C   UNL     1     -42.435  59.981 -57.300  1.00  0.00     0.037 A 
HETATM   26  C   UNL     1     -42.355  58.944 -56.365  1.00  0.00     0.014 A 
BRANCH  24  27
HETATM   27  O   UNL     1     -42.872  60.828 -59.421  1.00  0.00    -0.352 OA
BRANCH  27  28
HETATM   28  C   UNL     1     -41.633  61.300 -59.946  1.00  0.00     0.171 C 
HETATM   29  C   UNL     1     -41.658  61.100 -61.451  1.00  0.00     0.034 C 
ENDBRANCH  27  28
ENDBRANCH  24  27
ENDBRANCH   1  21
TORSDOF 6
ENDMDL
MODEL 8
REMARK VINA RESULT:      -6.7     18.079     20.808
REMARK  6 active torsions:
REMARK  status: ('A' for Active; 'I' for Inactive)
REMARK    1  A    between atoms: C_2  and  O_3 
REMARK    2  A    between atoms: O_3  and  C_4 
REMARK    3  A    between atoms: C_7  and  C_8 
REMARK       I    between atoms: N_11  and  C_12 
REMARK       I    between atoms: C_12  and  N_13 
REMARK    4  A    between atoms: N_13  and  C_14 
REMARK    5  A    between atoms: C_14  and  C_15 
REMARK    6  A    between atoms: C_15  and  C_16 
ROOT
HETATM    1  C   UNL     1     -33.638  40.206 -50.727  1.00  0.00    -0.049 C 
HETATM    2  C   UNL     1     -34.632  41.337 -50.618  1.00  0.00     0.059 C 
HETATM    3  C   UNL     1     -34.683  42.172 -51.900  1.00  0.00     0.132 C 
HETATM    4  N   UNL     1     -34.756  41.325 -53.084  1.00  0.00    -0.331 N 
HETATM    5  C   UNL     1     -35.701  41.621 -54.052  1.00  0.00     0.318 C 
HETATM    6  N   UNL     1     -35.632  40.858 -55.190  1.00  0.00    -0.338 N 
HETATM    7  O   UNL     1     -36.565  42.482 -53.901  1.00  0.00    -0.247 OA
HETATM    8  C   UNL     1     -33.676  40.357 -53.252  1.00  0.00     0.155 C 
HETATM    9  C   UNL     1     -33.196  39.812 -51.938  1.00  0.00     0.001 C 
HETATM   10  H   UNL     1     -34.687  40.651 -55.496  1.00  0.00     0.164 HD
ENDROOT
BRANCH   6  11
HETATM   11  C   UNL     1     -36.515  41.121 -56.325  1.00  0.00     0.087 C 
HETATM   12  C   UNL     1     -37.514  39.977 -56.483  1.00  0.00     0.032 C 
BRANCH  11  13
HETATM   13  C   UNL     1     -35.703  41.387 -57.610  1.00  0.00     0.085 C 
BRANCH  13  14
HETATM   14  C   UNL     1     -36.413  41.021 -58.881  1.00  0.00     0.058 A 
HETATM   15  N   UNL     1     -37.136  41.924 -59.561  1.00  0.00    -0.179 NA
HETATM   16  N   UNL     1     -37.609  41.234 -60.614  1.00  0.00    -0.282 N 
HETATM   17  H   UNL     1     -38.202  41.718 -61.280  1.00  0.00     0.189 HD
HETATM   18  C   UNL     1     -37.207  39.928 -60.640  1.00  0.00     0.026 A 
HETATM   19  C   UNL     1     -37.608  38.988 -61.710  1.00  0.00     0.070 C 
HETATM   20  C   UNL     1     -36.431  39.758 -59.518  1.00  0.00     0.055 A 
ENDBRANCH  13  14
ENDBRANCH  11  13
ENDBRANCH   6  11
BRANCH   1  21
HETATM   21  C   UNL     1     -33.165  39.545 -49.492  1.00  0.00    -0.030 A 
HETATM   22  C   UNL     1     -33.871  38.487 -48.907  1.00  0.00     0.014 A 
HETATM   23  C   UNL     1     -33.395  37.845 -47.754  1.00  0.00     0.037 A 
HETATM   24  C   UNL     1     -32.201  38.256 -47.165  1.00  0.00     0.068 A 
HETATM   25  C   UNL     1     -31.494  39.316 -47.733  1.00  0.00     0.037 A 
HETATM   26  C   UNL     1     -31.966  39.949 -48.887  1.00  0.00     0.014 A 
BRANCH  24  27
HETATM   27  O   UNL     1     -31.626  37.721 -46.047  1.00  0.00    -0.352 OA
BRANCH  27  28
HETATM   28  C   UNL     1     -30.816  38.588 -45.255  1.00  0.00     0.171 C 
HETATM   29  C   UNL     1     -31.619  38.984 -44.028  1.00  0.00     0.034 C 
ENDBRANCH  27  28
ENDBRANCH  24  27
ENDBRANCH   1  21
TORSDOF 6
ENDMDL
MODEL 9
REMARK VINA RESULT:      -6.7      6.800     10.746
REMARK  6 active torsions:
REMARK  status: ('A' for Active; 'I' for Inactive)
REMARK    1  A    between atoms: C_2  and  O_3 
REMARK    2  A    between atoms: O_3  and  C_4 
REMARK    3  A    between atoms: C_7  and  C_8 
REMARK       I    between atoms: N_11  and  C_12 
REMARK       I    between atoms: C_12  and  N_13 
REMARK    4  A    between atoms: N_13  and  C_14 
REMARK    5  A    between atoms: C_14  and  C_15 
REMARK    6  A    between atoms: C_15  and  C_16 
ROOT
HETATM    1  C   UNL     1     -41.769  59.999 -58.487  1.00  0.00    -0.049 C 
HETATM    2  C   UNL     1     -41.995  60.246 -57.015  1.00  0.00     0.059 C 
HETATM    3  C   UNL     1     -42.883  59.167 -56.390  1.00  0.00     0.132 C 
HETATM    4  N   UNL     1     -42.457  57.830 -56.789  1.00  0.00    -0.331 N 
HETATM    5  C   UNL     1     -42.319  56.860 -55.810  1.00  0.00     0.318 C 
HETATM    6  N   UNL     1     -42.033  55.601 -56.273  1.00  0.00    -0.338 N 
HETATM    7  O   UNL     1     -42.410  57.105 -54.609  1.00  0.00    -0.247 OA
HETATM    8  C   UNL     1     -42.420  57.568 -58.224  1.00  0.00     0.155 C 
HETATM    9  C   UNL     1     -42.008  58.780 -59.010  1.00  0.00     0.001 C 
HETATM   10  H   UNL     1     -42.522  55.349 -57.125  1.00  0.00     0.164 HD
ENDROOT
BRANCH   6  11
HETATM   11  C   UNL     1     -41.944  54.467 -55.354  1.00  0.00     0.087 C 
HETATM   12  C   UNL     1     -43.183  54.421 -54.462  1.00  0.00     0.032 C 
BRANCH  11  13
HETATM   13  C   UNL     1     -40.629  54.507 -54.548  1.00  0.00     0.085 C 
BRANCH  13  14
HETATM   14  C   UNL     1     -40.314  53.240 -53.808  1.00  0.00     0.058 A 
HETATM   15  N   UNL     1     -40.127  53.236 -52.479  1.00  0.00    -0.179 NA
HETATM   16  N   UNL     1     -39.868  51.948 -52.191  1.00  0.00    -0.282 N 
HETATM   17  H   UNL     1     -39.683  51.698 -51.226  1.00  0.00     0.189 HD
HETATM   18  C   UNL     1     -39.893  51.126 -53.283  1.00  0.00     0.026 A 
HETATM   19  C   UNL     1     -39.639  49.671 -53.196  1.00  0.00     0.070 C 
HETATM   20  C   UNL     1     -40.175  51.942 -54.353  1.00  0.00     0.055 A 
ENDBRANCH  13  14
ENDBRANCH  11  13
ENDBRANCH   6  11
BRANCH   1  21
HETATM   21  C   UNL     1     -41.283  61.109 -59.334  1.00  0.00    -0.030 A 
HETATM   22  C   UNL     1     -40.464  62.122 -58.820  1.00  0.00     0.014 A 
HETATM   23  C   UNL     1     -39.981  63.152 -59.642  1.00  0.00     0.037 A 
HETATM   24  C   UNL     1     -40.312  63.184 -60.995  1.00  0.00     0.068 A 
HETATM   25  C   UNL     1     -41.134  62.184 -61.515  1.00  0.00     0.037 A 
HETATM   26  C   UNL     1     -41.608  61.155 -60.697  1.00  0.00     0.014 A 
BRANCH  24  27
HETATM   27  O   UNL     1     -39.911  64.124 -61.903  1.00  0.00    -0.352 OA
BRANCH  27  28
HETATM   28  C   UNL     1     -39.916  63.742 -63.277  1.00  0.00     0.171 C 
HETATM   29  C   UNL     1     -38.475  63.526 -63.705  1.00  0.00     0.034 C 
ENDBRANCH  27  28
ENDBRANCH  24  27
ENDBRANCH   1  21
TORSDOF 6
ENDMDL
MODEL 10
REMARK VINA RESULT:      -6.6      2.744      9.808
REMARK  6 active torsions:
REMARK  status: ('A' for Active; 'I' for Inactive)
REMARK    1  A    between atoms: C_2  and  O_3 
REMARK    2  A    between atoms: O_3  and  C_4 
REMARK    3  A    between atoms: C_7  and  C_8 
REMARK       I    between atoms: N_11  and  C_12 
REMARK       I    between atoms: C_12  and  N_13 
REMARK    4  A    between atoms: N_13  and  C_14 
REMARK    5  A    between atoms: C_14  and  C_15 
REMARK    6  A    between atoms: C_15  and  C_16 
ROOT
HETATM    1  C   UNL     1     -44.200  59.980 -50.711  1.00  0.00    -0.049 C 
HETATM    2  C   UNL     1     -42.725  60.117 -51.001  1.00  0.00     0.059 C 
HETATM    3  C   UNL     1     -42.082  58.764 -51.318  1.00  0.00     0.132 C 
HETATM    4  N   UNL     1     -42.886  58.002 -52.266  1.00  0.00    -0.331 N 
HETATM    5  C   UNL     1     -42.254  57.421 -53.352  1.00  0.00     0.318 C 
HETATM    6  N   UNL     1     -43.050  56.622 -54.134  1.00  0.00    -0.338 N 
HETATM    7  O   UNL     1     -41.073  57.626 -53.626  1.00  0.00    -0.247 OA
HETATM    8  C   UNL     1     -44.265  57.734 -51.872  1.00  0.00     0.155 C 
HETATM    9  C   UNL     1     -44.861  58.868 -51.088  1.00  0.00     0.001 C 
HETATM   10  H   UNL     1     -43.713  56.059 -53.613  1.00  0.00     0.164 HD
ENDROOT
BRANCH   6  11
HETATM   11  C   UNL     1     -42.490  55.881 -55.263  1.00  0.00     0.087 C 
HETATM   12  C   UNL     1     -43.039  56.439 -56.575  1.00  0.00     0.032 C 
BRANCH  11  13
HETATM   13  C   UNL     1     -42.736  54.366 -55.109  1.00  0.00     0.085 C 
BRANCH  13  14
HETATM   14  C   UNL     1     -41.894  53.703 -54.058  1.00  0.00     0.058 A 
HETATM   15  N   UNL     1     -42.072  53.965 -52.754  1.00  0.00    -0.179 NA
HETATM   16  N   UNL     1     -41.150  53.203 -52.141  1.00  0.00    -0.282 N 
HETATM   17  H   UNL     1     -41.090  53.240 -51.129  1.00  0.00     0.189 HD
HETATM   18  C   UNL     1     -40.396  52.455 -53.000  1.00  0.00     0.026 A 
HETATM   19  C   UNL     1     -39.325  51.543 -52.542  1.00  0.00     0.070 C 
HETATM   20  C   UNL     1     -40.854  52.765 -54.259  1.00  0.00     0.055 A 
ENDBRANCH  13  14
ENDBRANCH  11  13
ENDBRANCH   6  11
BRANCH   1  21
HETATM   21  C   UNL     1     -44.898  61.082 -50.014  1.00  0.00    -0.030 A 
HETATM   22  C   UNL     1     -46.109  61.601 -50.488  1.00  0.00     0.014 A 
HETATM   23  C   UNL     1     -46.779  62.624 -49.799  1.00  0.00     0.037 A 
HETATM   24  C   UNL     1     -46.246  63.144 -48.623  1.00  0.00     0.068 A 
HETATM   25  C   UNL     1     -45.036  62.640 -48.146  1.00  0.00     0.037 A 
HETATM   26  C   UNL     1     -44.372  61.616 -48.829  1.00  0.00     0.014 A 
BRANCH  24  27
HETATM   27  O   UNL     1     -46.793  64.135 -47.856  1.00  0.00    -0.352 OA
BRANCH  27  28
HETATM   28  C   UNL     1     -46.393  64.193 -46.489  1.00  0.00     0.171 C 
HETATM   29  C   UNL     1     -47.553  63.701 -45.643  1.00  0.00     0.034 C 
ENDBRANCH  27  28
ENDBRANCH  24  27
ENDBRANCH   1  21
TORSDOF 6
ENDMDL
