MODEL 1
REMARK VINA RESULT:     -10.0      0.000      0.000
REMARK  5 active torsions:
REMARK  status: ('A' for Active; 'I' for Inactive)
REMARK    1  A    between atoms: C_6  and  N_7 
REMARK       I    between atoms: N_7  and  C_8 
REMARK    2  A    between atoms: C_8  and  C_9 
REMARK    3  A    between atoms: C_10  and  N_11 
REMARK    4  A    between atoms: N_12  and  N_13 
REMARK    5  A    between atoms: C_14  and  C_15 
ROOT
HETATM    1  C   UNL     1     -43.065  58.990 -51.578  1.00  0.00     0.099 C 
HETATM    2  C   UNL     1     -43.950  57.922 -51.236  1.00  0.00     0.101 C 
HETATM    3  N   UNL     1     -43.383  56.930 -51.958  1.00  0.00    -0.107 NA
HETATM    4  C   UNL     1     -43.385  57.721 -53.088  1.00  0.00     0.162 C 
HETATM    5  C   UNL     1     -42.334  58.655 -52.882  1.00  0.00     0.118 C 
HETATM    6  N   UNL     1     -41.682  58.324 -54.083  1.00  0.00    -0.242 NA
HETATM    7  C   UNL     1     -42.530  58.103 -55.240  1.00  0.00     0.086 C 
HETATM    8  C   UNL     1     -43.805  58.551 -55.059  1.00  0.00     0.087 C 
HETATM    9  N   UNL     1     -44.382  58.126 -53.936  1.00  0.00    -0.230 NA
HETATM   10  C   UNL     1     -42.521  57.299 -56.436  1.00  0.00     0.034 C 
HETATM   11  C   UNL     1     -43.552  57.382 -57.415  1.00  0.00     0.002 C 
HETATM   12  C   UNL     1     -44.492  58.395 -57.308  1.00  0.00     0.002 C 
HETATM   13  C   UNL     1     -44.569  59.047 -56.098  1.00  0.00     0.034 C 
ENDROOT
BRANCH   1  14
HETATM   14  C   UNL     1     -43.316  60.207 -50.750  1.00  0.00     0.261 C 
HETATM   15  N   UNL     1     -44.570  60.741 -50.436  1.00  0.00    -0.323 N 
HETATM   16  H   UNL     1     -45.316  60.660 -51.112  1.00  0.00     0.169 HD
HETATM   17  O   UNL     1     -42.309  60.773 -50.302  1.00  0.00    -0.267 OA
BRANCH  15  18
HETATM   18  C   UNL     1     -44.708  61.676 -49.333  1.00  0.00     0.035 C 
HETATM   19  C   UNL     1     -45.151  61.234 -48.076  1.00  0.00     0.037 C 
HETATM   20  C   UNL     1     -45.143  62.032 -46.925  1.00  0.00    -0.054 C 
HETATM   21  C   UNL     1     -45.082  63.412 -47.083  1.00  0.00    -0.056 C 
HETATM   22  C   UNL     1     -44.935  61.333 -45.606  1.00  0.00     0.049 C 
HETATM   23  C   UNL     1     -45.593  64.329 -46.002  1.00  0.00     0.049 C 
HETATM   24  C   UNL     1     -44.681  63.906 -48.340  1.00  0.00     0.009 C 
HETATM   25  C   UNL     1     -44.420  63.038 -49.436  1.00  0.00     0.030 C 
ENDBRANCH  15  18
ENDBRANCH   1  14
BRANCH   2  26
HETATM   26  N   UNL     1     -45.088  57.721 -50.521  1.00  0.00    -0.291 NA
HETATM   27  H   UNL     1     -45.902  57.497 -51.103  1.00  0.00     0.125 HD
HETATM   28  H   UNL     1     -44.994  56.992 -49.806  1.00  0.00     0.125 HD
ENDBRANCH   2  26
BRANCH   3  29
HETATM   29  N   UNL     1     -42.353  56.113 -51.448  1.00  0.00    -0.198 NA
HETATM   30  C   UNL     1     -42.147  55.057 -52.184  1.00  0.00     0.147 C 
BRANCH  30  31
HETATM   31  C   UNL     1     -41.301  53.945 -51.775  1.00  0.00     0.010 A 
HETATM   32  C   UNL     1     -40.816  52.876 -52.618  1.00  0.00     0.004 A 
HETATM   33  C   UNL     1     -40.027  52.039 -51.826  1.00  0.00     0.043 A 
HETATM   34  C   UNL     1     -40.966  52.536 -53.984  1.00  0.00     0.014 A 
HETATM   35  C   UNL     1     -39.352  50.917 -52.332  1.00  0.00     0.030 A 
HETATM   36  N   UNL     1     -40.076  52.538 -50.545  1.00  0.00    -0.364 N 
HETATM   37  C   UNL     1     -39.502  50.621 -53.690  1.00  0.00     0.002 A 
HETATM   38  C   UNL     1     -40.308  51.411 -54.505  1.00  0.00     0.001 A 
HETATM   39  H   UNL     1     -39.612  52.116 -49.752  1.00  0.00     0.165 HD
HETATM   40  C   UNL     1     -40.849  53.669 -50.499  1.00  0.00     0.102 A 
ENDBRANCH  30  31
ENDBRANCH   3  29
TORSDOF 5
ENDMDL
MODEL 2
REMARK VINA RESULT:      -9.7      1.917      7.299
REMARK  5 active torsions:
REMARK  status: ('A' for Active; 'I' for Inactive)
REMARK    1  A    between atoms: C_6  and  N_7 
REMARK       I    between atoms: N_7  and  C_8 
REMARK    2  A    between atoms: C_8  and  C_9 
REMARK    3  A    between atoms: C_10  and  N_11 
REMARK    4  A    between atoms: N_12  and  N_13 
REMARK    5  A    between atoms: C_14  and  C_15 
ROOT
HETATM    1  C   UNL     1     -43.963  57.770 -53.149  1.00  0.00     0.099 C 
HETATM    2  C   UNL     1     -42.603  58.153 -52.944  1.00  0.00     0.101 C 
HETATM    3  N   UNL     1     -42.562  58.101 -51.595  1.00  0.00    -0.107 NA
HETATM    4  C   UNL     1     -43.697  58.879 -51.508  1.00  0.00     0.162 C 
HETATM    5  C   UNL     1     -44.764  58.011 -51.865  1.00  0.00     0.118 C 
HETATM    6  N   UNL     1     -45.474  58.247 -50.674  1.00  0.00    -0.242 NA
HETATM    7  C   UNL     1     -45.497  59.618 -50.196  1.00  0.00     0.086 C 
HETATM    8  C   UNL     1     -45.087  60.516 -51.136  1.00  0.00     0.087 C 
HETATM    9  N   UNL     1     -43.925  60.215 -51.712  1.00  0.00    -0.230 NA
HETATM   10  C   UNL     1     -45.556  60.310 -48.933  1.00  0.00     0.034 C 
HETATM   11  C   UNL     1     -45.609  61.730 -48.847  1.00  0.00     0.002 C 
HETATM   12  C   UNL     1     -45.798  62.461 -50.010  1.00  0.00     0.002 C 
HETATM   13  C   UNL     1     -45.592  61.801 -51.200  1.00  0.00     0.034 C 
ENDROOT
BRANCH   1  14
HETATM   14  C   UNL     1     -44.263  57.529 -54.591  1.00  0.00     0.261 C 
HETATM   15  N   UNL     1     -43.434  57.860 -55.668  1.00  0.00    -0.323 N 
HETATM   16  H   UNL     1     -42.854  58.684 -55.600  1.00  0.00     0.169 HD
HETATM   17  O   UNL     1     -45.346  56.975 -54.833  1.00  0.00    -0.267 OA
BRANCH  15  18
HETATM   18  C   UNL     1     -43.646  57.245 -56.967  1.00  0.00     0.035 C 
HETATM   19  C   UNL     1     -44.470  57.863 -57.921  1.00  0.00     0.037 C 
HETATM   20  C   UNL     1     -44.584  57.426 -59.247  1.00  0.00    -0.054 C 
HETATM   21  C   UNL     1     -44.204  56.123 -59.545  1.00  0.00    -0.056 C 
HETATM   22  C   UNL     1     -44.861  58.475 -60.294  1.00  0.00     0.049 C 
HETATM   23  C   UNL     1     -44.768  55.417 -60.751  1.00  0.00     0.049 C 
HETATM   24  C   UNL     1     -43.409  55.446 -58.599  1.00  0.00     0.009 C 
HETATM   25  C   UNL     1     -43.067  56.033 -57.350  1.00  0.00     0.030 C 
ENDBRANCH  15  18
ENDBRANCH   1  14
BRANCH   2  26
HETATM   26  N   UNL     1     -41.530  58.559 -53.674  1.00  0.00    -0.291 NA
HETATM   27  H   UNL     1     -40.631  58.288 -53.264  1.00  0.00     0.125 HD
HETATM   28  H   UNL     1     -41.553  58.230 -54.645  1.00  0.00     0.125 HD
ENDBRANCH   2  26
BRANCH   3  29
HETATM   29  N   UNL     1     -42.236  56.924 -50.890  1.00  0.00    -0.198 NA
HETATM   30  C   UNL     1     -41.240  56.281 -51.432  1.00  0.00     0.147 C 
BRANCH  30  31
HETATM   31  C   UNL     1     -40.844  54.936 -51.040  1.00  0.00     0.010 A 
HETATM   32  C   UNL     1     -40.534  53.837 -51.926  1.00  0.00     0.004 A 
HETATM   33  C   UNL     1     -40.185  52.741 -51.133  1.00  0.00     0.043 A 
HETATM   34  C   UNL     1     -40.509  53.663 -53.331  1.00  0.00     0.014 A 
HETATM   35  C   UNL     1     -39.777  51.509 -51.665  1.00  0.00     0.030 A 
HETATM   36  N   UNL     1     -40.335  53.133 -49.823  1.00  0.00    -0.364 N 
HETATM   37  C   UNL     1     -39.741  51.376 -53.056  1.00  0.00     0.002 A 
HETATM   38  C   UNL     1     -40.113  52.434 -53.881  1.00  0.00     0.001 A 
HETATM   39  H   UNL     1     -40.174  52.530 -49.027  1.00  0.00     0.165 HD
HETATM   40  C   UNL     1     -40.744  54.439 -49.755  1.00  0.00     0.102 A 
ENDBRANCH  30  31
ENDBRANCH   3  29
TORSDOF 5
ENDMDL
MODEL 3
REMARK VINA RESULT:      -9.6      2.805      9.288
REMARK  5 active torsions:
REMARK  status: ('A' for Active; 'I' for Inactive)
REMARK    1  A    between atoms: C_6  and  N_7 
REMARK       I    between atoms: N_7  and  C_8 
REMARK    2  A    between atoms: C_8  and  C_9 
REMARK    3  A    between atoms: C_10  and  N_11 
REMARK    4  A    between atoms: N_12  and  N_13 
REMARK    5  A    between atoms: C_14  and  C_15 
ROOT
HETATM    1  C   UNL     1     -42.446  56.610 -54.162  1.00  0.00     0.099 C 
HETATM    2  C   UNL     1     -43.780  56.665 -54.669  1.00  0.00     0.101 C 
HETATM    3  N   UNL     1     -43.765  57.911 -55.189  1.00  0.00    -0.107 NA
HETATM    4  C   UNL     1     -43.272  58.422 -54.007  1.00  0.00     0.162 C 
HETATM    5  C   UNL     1     -41.906  58.032 -53.981  1.00  0.00     0.118 C 
HETATM    6  N   UNL     1     -41.438  59.348 -53.820  1.00  0.00    -0.242 NA
HETATM    7  C   UNL     1     -42.191  60.196 -52.913  1.00  0.00     0.086 C 
HETATM    8  C   UNL     1     -43.053  59.495 -52.122  1.00  0.00     0.087 C 
HETATM    9  N   UNL     1     -43.846  58.655 -52.785  1.00  0.00    -0.230 NA
HETATM   10  C   UNL     1     -42.517  61.593 -52.776  1.00  0.00     0.034 C 
HETATM   11  C   UNL     1     -43.279  62.091 -51.682  1.00  0.00     0.002 C 
HETATM   12  C   UNL     1     -43.557  61.242 -50.622  1.00  0.00     0.002 C 
HETATM   13  C   UNL     1     -43.368  59.895 -50.837  1.00  0.00     0.034 C 
ENDROOT
BRANCH   1  14
HETATM   14  C   UNL     1     -42.083  55.238 -53.696  1.00  0.00     0.261 C 
HETATM   15  N   UNL     1     -40.942  54.520 -54.070  1.00  0.00    -0.323 N 
HETATM   16  H   UNL     1     -40.572  54.645 -55.001  1.00  0.00     0.169 HD
HETATM   17  O   UNL     1     -42.873  54.711 -52.900  1.00  0.00    -0.267 OA
BRANCH  15  18
HETATM   18  C   UNL     1     -40.505  53.384 -53.278  1.00  0.00     0.035 C 
HETATM   19  C   UNL     1     -40.462  52.098 -53.840  1.00  0.00     0.037 C 
HETATM   20  C   UNL     1     -39.890  50.991 -53.201  1.00  0.00    -0.054 C 
HETATM   21  C   UNL     1     -39.720  51.042 -51.822  1.00  0.00    -0.056 C 
HETATM   22  C   UNL     1     -39.265  49.937 -54.079  1.00  0.00     0.049 C 
HETATM   23  C   UNL     1     -39.633  49.775 -51.012  1.00  0.00     0.049 C 
HETATM   24  C   UNL     1     -39.795  52.307 -51.205  1.00  0.00     0.009 C 
HETATM   25  C   UNL     1     -40.108  53.482 -51.942  1.00  0.00     0.030 C 
ENDBRANCH  15  18
ENDBRANCH   1  14
BRANCH   2  26
HETATM   26  N   UNL     1     -44.904  55.900 -54.686  1.00  0.00    -0.291 NA
HETATM   27  H   UNL     1     -45.596  56.206 -55.378  1.00  0.00     0.125 HD
HETATM   28  H   UNL     1     -44.714  54.904 -54.839  1.00  0.00     0.125 HD
ENDBRANCH   2  26
BRANCH   3  29
HETATM   29  N   UNL     1     -43.352  58.177 -56.511  1.00  0.00    -0.198 NA
HETATM   30  C   UNL     1     -44.273  58.786 -57.205  1.00  0.00     0.147 C 
BRANCH  30  31
HETATM   31  C   UNL     1     -44.196  58.982 -58.645  1.00  0.00     0.010 A 
HETATM   32  C   UNL     1     -43.275  59.845 -59.349  1.00  0.00     0.004 A 
HETATM   33  C   UNL     1     -43.536  59.716 -60.715  1.00  0.00     0.043 A 
HETATM   34  C   UNL     1     -42.236  60.725 -58.959  1.00  0.00     0.014 A 
HETATM   35  C   UNL     1     -42.792  60.380 -61.703  1.00  0.00     0.030 A 
HETATM   36  N   UNL     1     -44.607  58.862 -60.838  1.00  0.00    -0.364 N 
HETATM   37  C   UNL     1     -41.758  61.224 -61.288  1.00  0.00     0.002 A 
HETATM   38  C   UNL     1     -41.489  61.405 -59.934  1.00  0.00     0.001 A 
HETATM   39  H   UNL     1     -45.029  58.604 -61.719  1.00  0.00     0.165 HD
HETATM   40  C   UNL     1     -45.021  58.429 -59.605  1.00  0.00     0.102 A 
ENDBRANCH  30  31
ENDBRANCH   3  29
TORSDOF 5
ENDMDL
MODEL 4
REMARK VINA RESULT:      -9.6      2.053      8.950
REMARK  5 active torsions:
REMARK  status: ('A' for Active; 'I' for Inactive)
REMARK    1  A    between atoms: C_6  and  N_7 
REMARK       I    between atoms: N_7  and  C_8 
REMARK    2  A    between atoms: C_8  and  C_9 
REMARK    3  A    between atoms: C_10  and  N_11 
REMARK    4  A    between atoms: N_12  and  N_13 
REMARK    5  A    between atoms: C_14  and  C_15 
ROOT
HETATM    1  C   UNL     1     -42.890  56.496 -54.189  1.00  0.00     0.099 C 
HETATM    2  C   UNL     1     -42.026  57.525 -53.705  1.00  0.00     0.101 C 
HETATM    3  N   UNL     1     -42.783  58.603 -54.002  1.00  0.00    -0.107 NA
HETATM    4  C   UNL     1     -42.948  58.158 -55.296  1.00  0.00     0.162 C 
HETATM    5  C   UNL     1     -43.878  57.088 -55.199  1.00  0.00     0.118 C 
HETATM    6  N   UNL     1     -44.770  57.657 -56.126  1.00  0.00    -0.242 NA
HETATM    7  C   UNL     1     -44.176  58.284 -57.294  1.00  0.00     0.086 C 
HETATM    8  C   UNL     1     -42.864  57.954 -57.465  1.00  0.00     0.087 C 
HETATM    9  N   UNL     1     -42.110  58.119 -56.380  1.00  0.00    -0.230 NA
HETATM   10  C   UNL     1     -44.466  59.378 -58.185  1.00  0.00     0.034 C 
HETATM   11  C   UNL     1     -43.640  59.687 -59.303  1.00  0.00     0.002 C 
HETATM   12  C   UNL     1     -42.634  58.799 -59.653  1.00  0.00     0.002 C 
HETATM   13  C   UNL     1     -42.284  57.854 -58.716  1.00  0.00     0.034 C 
ENDROOT
BRANCH   1  14
HETATM   14  C   UNL     1     -42.407  55.136 -53.805  1.00  0.00     0.261 C 
HETATM   15  N   UNL     1     -41.154  54.594 -54.109  1.00  0.00    -0.323 N 
HETATM   16  H   UNL     1     -40.711  54.851 -54.979  1.00  0.00     0.169 HD
HETATM   17  O   UNL     1     -43.200  54.446 -53.148  1.00  0.00    -0.267 OA
BRANCH  15  18
HETATM   18  C   UNL     1     -40.659  53.444 -53.373  1.00  0.00     0.035 C 
HETATM   19  C   UNL     1     -40.591  52.182 -53.984  1.00  0.00     0.037 C 
HETATM   20  C   UNL     1     -39.968  51.071 -53.403  1.00  0.00    -0.054 C 
HETATM   21  C   UNL     1     -39.761  51.077 -52.028  1.00  0.00    -0.056 C 
HETATM   22  C   UNL     1     -39.334  50.072 -54.337  1.00  0.00     0.049 C 
HETATM   23  C   UNL     1     -39.612  49.783 -51.270  1.00  0.00     0.049 C 
HETATM   24  C   UNL     1     -39.860  52.314 -51.362  1.00  0.00     0.009 C 
HETATM   25  C   UNL     1     -40.230  53.505 -52.045  1.00  0.00     0.030 C 
ENDBRANCH  15  18
ENDBRANCH   1  14
BRANCH   2  26
HETATM   26  N   UNL     1     -40.786  57.653 -53.162  1.00  0.00    -0.291 NA
HETATM   27  H   UNL     1     -40.260  56.773 -53.134  1.00  0.00     0.125 HD
HETATM   28  H   UNL     1     -40.209  58.358 -53.631  1.00  0.00     0.125 HD
ENDBRANCH   2  26
BRANCH   3  29
HETATM   29  N   UNL     1     -43.746  59.124 -53.112  1.00  0.00    -0.198 NA
HETATM   30  C   UNL     1     -43.215  59.888 -52.200  1.00  0.00     0.147 C 
BRANCH  30  31
HETATM   31  C   UNL     1     -43.943  60.375 -51.037  1.00  0.00     0.010 A 
HETATM   32  C   UNL     1     -43.766  61.652 -50.383  1.00  0.00     0.004 A 
HETATM   33  C   UNL     1     -44.677  61.714 -49.326  1.00  0.00     0.043 A 
HETATM   34  C   UNL     1     -42.923  62.771 -50.587  1.00  0.00     0.014 A 
HETATM   35  C   UNL     1     -44.817  62.839 -48.499  1.00  0.00     0.030 A 
HETATM   36  N   UNL     1     -45.337  60.507 -49.296  1.00  0.00    -0.364 N 
HETATM   37  C   UNL     1     -43.985  63.936 -48.740  1.00  0.00     0.002 A 
HETATM   38  C   UNL     1     -43.041  63.900 -49.763  1.00  0.00     0.001 A 
HETATM   39  H   UNL     1     -46.041  60.261 -48.614  1.00  0.00     0.165 HD
HETATM   40  C   UNL     1     -44.894  59.692 -50.305  1.00  0.00     0.102 A 
ENDBRANCH  30  31
ENDBRANCH   3  29
TORSDOF 5
ENDMDL
MODEL 5
REMARK VINA RESULT:      -9.5      2.113      5.746
REMARK  5 active torsions:
REMARK  status: ('A' for Active; 'I' for Inactive)
REMARK    1  A    between atoms: C_6  and  N_7 
REMARK       I    between atoms: N_7  and  C_8 
REMARK    2  A    between atoms: C_8  and  C_9 
REMARK    3  A    between atoms: C_10  and  N_11 
REMARK    4  A    between atoms: N_12  and  N_13 
REMARK    5  A    between atoms: C_14  and  C_15 
ROOT
HETATM    1  C   UNL     1     -43.942  58.085 -51.579  1.00  0.00     0.099 C 
HETATM    2  C   UNL     1     -42.900  58.791 -52.253  1.00  0.00     0.101 C 
HETATM    3  N   UNL     1     -42.463  57.808 -53.070  1.00  0.00    -0.107 NA
HETATM    4  C   UNL     1     -42.363  56.938 -52.006  1.00  0.00     0.162 C 
HETATM    5  C   UNL     1     -43.704  56.576 -51.701  1.00  0.00     0.118 C 
HETATM    6  N   UNL     1     -43.456  55.197 -51.825  1.00  0.00    -0.242 NA
HETATM    7  C   UNL     1     -42.204  54.713 -51.274  1.00  0.00     0.086 C 
HETATM    8  C   UNL     1     -41.601  55.616 -50.449  1.00  0.00     0.087 C 
HETATM    9  N   UNL     1     -41.471  56.834 -50.971  1.00  0.00    -0.230 NA
HETATM   10  C   UNL     1     -41.248  53.670 -51.546  1.00  0.00     0.034 C 
HETATM   11  C   UNL     1     -40.103  53.457 -50.726  1.00  0.00     0.002 C 
HETATM   12  C   UNL     1     -40.003  54.148 -49.529  1.00  0.00     0.002 C 
HETATM   13  C   UNL     1     -40.837  55.230 -49.363  1.00  0.00     0.034 C 
ENDROOT
BRANCH   1  14
HETATM   14  C   UNL     1     -44.773  58.992 -50.733  1.00  0.00     0.261 C 
HETATM   15  N   UNL     1     -44.318  60.130 -50.059  1.00  0.00    -0.323 N 
HETATM   16  H   UNL     1     -43.376  60.137 -49.696  1.00  0.00     0.169 HD
HETATM   17  O   UNL     1     -45.974  58.697 -50.642  1.00  0.00    -0.267 OA
BRANCH  15  18
HETATM   18  C   UNL     1     -45.265  61.129 -49.595  1.00  0.00     0.035 C 
HETATM   19  C   UNL     1     -45.616  61.202 -48.237  1.00  0.00     0.037 C 
HETATM   20  C   UNL     1     -46.380  62.239 -47.687  1.00  0.00    -0.054 C 
HETATM   21  C   UNL     1     -47.160  63.006 -48.545  1.00  0.00    -0.056 C 
HETATM   22  C   UNL     1     -46.101  62.612 -46.254  1.00  0.00     0.049 C 
HETATM   23  C   UNL     1     -48.369  63.742 -48.028  1.00  0.00     0.049 C 
HETATM   24  C   UNL     1     -46.873  62.936 -49.922  1.00  0.00     0.009 C 
HETATM   25  C   UNL     1     -45.878  62.060 -50.436  1.00  0.00     0.030 C 
ENDBRANCH  15  18
ENDBRANCH   1  14
BRANCH   2  26
HETATM   26  N   UNL     1     -42.298  60.010 -52.219  1.00  0.00    -0.291 NA
HETATM   27  H   UNL     1     -41.316  59.988 -52.513  1.00  0.00     0.125 HD
HETATM   28  H   UNL     1     -42.785  60.718 -52.778  1.00  0.00     0.125 HD
ENDBRANCH   2  26
BRANCH   3  29
HETATM   29  N   UNL     1     -43.011  57.586 -54.351  1.00  0.00    -0.198 NA
HETATM   30  C   UNL     1     -42.199  56.928 -55.130  1.00  0.00     0.147 C 
BRANCH  30  31
HETATM   31  C   UNL     1     -42.420  56.755 -56.558  1.00  0.00     0.010 A 
HETATM   32  C   UNL     1     -42.327  57.778 -57.575  1.00  0.00     0.004 A 
HETATM   33  C   UNL     1     -42.597  57.175 -58.805  1.00  0.00     0.043 A 
HETATM   34  C   UNL     1     -42.034  59.163 -57.573  1.00  0.00     0.014 A 
HETATM   35  C   UNL     1     -42.548  57.868 -60.025  1.00  0.00     0.030 A 
HETATM   36  N   UNL     1     -42.902  55.859 -58.548  1.00  0.00    -0.364 N 
HETATM   37  C   UNL     1     -42.233  59.230 -59.992  1.00  0.00     0.002 A 
HETATM   38  C   UNL     1     -41.991  59.874 -58.782  1.00  0.00     0.001 A 
HETATM   39  H   UNL     1     -43.163  55.187 -59.256  1.00  0.00     0.165 HD
HETATM   40  C   UNL     1     -42.815  55.600 -57.205  1.00  0.00     0.102 A 
ENDBRANCH  30  31
ENDBRANCH   3  29
TORSDOF 5
ENDMDL
MODEL 6
REMARK VINA RESULT:      -9.3      1.949      5.881
REMARK  5 active torsions:
REMARK  status: ('A' for Active; 'I' for Inactive)
REMARK    1  A    between atoms: C_6  and  N_7 
REMARK       I    between atoms: N_7  and  C_8 
REMARK    2  A    between atoms: C_8  and  C_9 
REMARK    3  A    between atoms: C_10  and  N_11 
REMARK    4  A    between atoms: N_12  and  N_13 
REMARK    5  A    between atoms: C_14  and  C_15 
ROOT
HETATM    1  C   UNL     1     -43.925  57.657 -51.824  1.00  0.00     0.099 C 
HETATM    2  C   UNL     1     -43.009  58.330 -52.688  1.00  0.00     0.101 C 
HETATM    3  N   UNL     1     -42.639  57.290 -53.466  1.00  0.00    -0.107 NA
HETATM    4  C   UNL     1     -42.367  56.525 -52.352  1.00  0.00     0.162 C 
HETATM    5  C   UNL     1     -43.640  56.152 -51.844  1.00  0.00     0.118 C 
HETATM    6  N   UNL     1     -43.353  54.776 -51.878  1.00  0.00    -0.242 NA
HETATM    7  C   UNL     1     -42.020  54.383 -51.456  1.00  0.00     0.086 C 
HETATM    8  C   UNL     1     -41.356  55.376 -50.799  1.00  0.00     0.087 C 
HETATM    9  N   UNL     1     -41.346  56.545 -51.438  1.00  0.00    -0.230 NA
HETATM   10  C   UNL     1     -41.064  53.349 -51.758  1.00  0.00     0.034 C 
HETATM   11  C   UNL     1     -39.815  53.247 -51.080  1.00  0.00     0.002 C 
HETATM   12  C   UNL     1     -39.592  54.049 -49.971  1.00  0.00     0.002 C 
HETATM   13  C   UNL     1     -40.444  55.116 -49.794  1.00  0.00     0.034 C 
ENDROOT
BRANCH   1  14
HETATM   14  C   UNL     1     -44.679  58.613 -50.958  1.00  0.00     0.261 C 
HETATM   15  N   UNL     1     -44.168  59.789 -50.397  1.00  0.00    -0.323 N 
HETATM   16  H   UNL     1     -43.197  59.815 -50.124  1.00  0.00     0.169 HD
HETATM   17  O   UNL     1     -45.864  58.325 -50.739  1.00  0.00    -0.267 OA
BRANCH  15  18
HETATM   18  C   UNL     1     -45.073  60.813 -49.906  1.00  0.00     0.035 C 
HETATM   19  C   UNL     1     -45.296  60.966 -48.528  1.00  0.00     0.037 C 
HETATM   20  C   UNL     1     -46.011  62.034 -47.972  1.00  0.00    -0.054 C 
HETATM   21  C   UNL     1     -46.872  62.750 -48.796  1.00  0.00    -0.056 C 
HETATM   22  C   UNL     1     -45.601  62.493 -46.595  1.00  0.00     0.049 C 
HETATM   23  C   UNL     1     -48.031  63.516 -48.212  1.00  0.00     0.049 C 
HETATM   24  C   UNL     1     -46.715  62.598 -50.188  1.00  0.00     0.009 C 
HETATM   25  C   UNL     1     -45.767  61.693 -50.740  1.00  0.00     0.030 C 
ENDBRANCH  15  18
ENDBRANCH   1  14
BRANCH   2  26
HETATM   26  N   UNL     1     -42.459  59.565 -52.840  1.00  0.00    -0.291 NA
HETATM   27  H   UNL     1     -42.516  60.144 -51.997  1.00  0.00     0.125 HD
HETATM   28  H   UNL     1     -41.481  59.537 -53.146  1.00  0.00     0.125 HD
ENDBRANCH   2  26
BRANCH   3  29
HETATM   29  N   UNL     1     -43.336  56.934 -54.639  1.00  0.00    -0.198 NA
HETATM   30  C   UNL     1     -43.438  57.928 -55.476  1.00  0.00     0.147 C 
BRANCH  30  31
HETATM   31  C   UNL     1     -44.289  57.900 -56.657  1.00  0.00     0.010 A 
HETATM   32  C   UNL     1     -44.040  57.170 -57.880  1.00  0.00     0.004 A 
HETATM   33  C   UNL     1     -45.115  57.409 -58.739  1.00  0.00     0.043 A 
HETATM   34  C   UNL     1     -43.006  56.323 -58.344  1.00  0.00     0.014 A 
HETATM   35  C   UNL     1     -45.230  56.817 -60.007  1.00  0.00     0.030 A 
HETATM   36  N   UNL     1     -45.952  58.291 -58.097  1.00  0.00    -0.364 N 
HETATM   37  C   UNL     1     -44.203  55.967 -60.427  1.00  0.00     0.002 A 
HETATM   38  C   UNL     1     -43.098  55.731 -59.614  1.00  0.00     0.001 A 
HETATM   39  H   UNL     1     -46.804  58.660 -58.496  1.00  0.00     0.165 HD
HETATM   40  C   UNL     1     -45.460  58.605 -56.856  1.00  0.00     0.102 A 
ENDBRANCH  30  31
ENDBRANCH   3  29
TORSDOF 5
ENDMDL
MODEL 7
REMARK VINA RESULT:      -9.3      2.843      9.542
REMARK  5 active torsions:
REMARK  status: ('A' for Active; 'I' for Inactive)
REMARK    1  A    between atoms: C_6  and  N_7 
REMARK       I    between atoms: N_7  and  C_8 
REMARK    2  A    between atoms: C_8  and  C_9 
REMARK    3  A    between atoms: C_10  and  N_11 
REMARK    4  A    between atoms: N_12  and  N_13 
REMARK    5  A    between atoms: C_14  and  C_15 
ROOT
HETATM    1  C   UNL     1     -42.041  56.692 -54.516  1.00  0.00     0.099 C 
HETATM    2  C   UNL     1     -43.446  56.449 -54.608  1.00  0.00     0.101 C 
HETATM    3  N   UNL     1     -43.841  57.643 -55.102  1.00  0.00    -0.107 NA
HETATM    4  C   UNL     1     -43.147  58.306 -54.113  1.00  0.00     0.162 C 
HETATM    5  C   UNL     1     -41.781  58.201 -54.492  1.00  0.00     0.118 C 
HETATM    6  N   UNL     1     -41.572  59.592 -54.466  1.00  0.00    -0.242 NA
HETATM    7  C   UNL     1     -42.191  60.319 -53.372  1.00  0.00     0.086 C 
HETATM    8  C   UNL     1     -42.622  59.503 -52.368  1.00  0.00     0.087 C 
HETATM    9  N   UNL     1     -43.379  58.485 -52.774  1.00  0.00    -0.230 NA
HETATM   10  C   UNL     1     -42.748  61.626 -53.136  1.00  0.00     0.034 C 
HETATM   11  C   UNL     1     -43.249  62.020 -51.863  1.00  0.00     0.002 C 
HETATM   12  C   UNL     1     -43.025  61.192 -50.774  1.00  0.00     0.002 C 
HETATM   13  C   UNL     1     -42.630  59.901 -51.044  1.00  0.00     0.034 C 
ENDROOT
BRANCH   1  14
HETATM   14  C   UNL     1     -41.282  55.449 -54.187  1.00  0.00     0.261 C 
HETATM   15  N   UNL     1     -41.673  54.467 -53.270  1.00  0.00    -0.323 N 
HETATM   16  H   UNL     1     -42.190  54.746 -52.449  1.00  0.00     0.169 HD
HETATM   17  O   UNL     1     -40.217  55.287 -54.801  1.00  0.00    -0.267 OA
BRANCH  15  18
HETATM   18  C   UNL     1     -41.067  53.148 -53.313  1.00  0.00     0.035 C 
HETATM   19  C   UNL     1     -40.328  52.667 -52.220  1.00  0.00     0.037 C 
HETATM   20  C   UNL     1     -39.865  51.349 -52.116  1.00  0.00    -0.054 C 
HETATM   21  C   UNL     1     -39.768  50.592 -53.278  1.00  0.00    -0.056 C 
HETATM   22  C   UNL     1     -39.756  50.767 -50.730  1.00  0.00     0.049 C 
HETATM   23  C   UNL     1     -38.821  49.423 -53.354  1.00  0.00     0.049 C 
HETATM   24  C   UNL     1     -40.460  51.055 -54.415  1.00  0.00     0.009 C 
HETATM   25  C   UNL     1     -41.170  52.287 -54.409  1.00  0.00     0.030 C 
ENDBRANCH  15  18
ENDBRANCH   1  14
BRANCH   2  26
HETATM   26  N   UNL     1     -44.342  55.473 -54.300  1.00  0.00    -0.291 NA
HETATM   27  H   UNL     1     -44.300  55.176 -53.320  1.00  0.00     0.125 HD
HETATM   28  H   UNL     1     -45.310  55.729 -54.518  1.00  0.00     0.125 HD
ENDBRANCH   2  26
BRANCH   3  29
HETATM   29  N   UNL     1     -43.893  57.913 -56.485  1.00  0.00    -0.198 NA
HETATM   30  C   UNL     1     -45.108  58.135 -56.901  1.00  0.00     0.147 C 
BRANCH  30  31
HETATM   31  C   UNL     1     -45.472  58.224 -58.308  1.00  0.00     0.010 A 
HETATM   32  C   UNL     1     -46.603  58.932 -58.863  1.00  0.00     0.004 A 
HETATM   33  C   UNL     1     -46.563  58.771 -60.249  1.00  0.00     0.043 A 
HETATM   34  C   UNL     1     -47.660  59.704 -58.322  1.00  0.00     0.014 A 
HETATM   35  C   UNL     1     -47.490  59.368 -61.118  1.00  0.00     0.030 A 
HETATM   36  N   UNL     1     -45.494  57.950 -60.526  1.00  0.00    -0.364 N 
HETATM   37  C   UNL     1     -48.508  60.143 -60.555  1.00  0.00     0.002 A 
HETATM   38  C   UNL     1     -48.602  60.300 -59.175  1.00  0.00     0.001 A 
HETATM   39  H   UNL     1     -45.238  57.643 -61.454  1.00  0.00     0.165 HD
HETATM   40  C   UNL     1     -44.843  57.603 -59.370  1.00  0.00     0.102 A 
ENDBRANCH  30  31
ENDBRANCH   3  29
TORSDOF 5
ENDMDL
MODEL 8
REMARK VINA RESULT:      -9.2      1.509      2.162
REMARK  5 active torsions:
REMARK  status: ('A' for Active; 'I' for Inactive)
REMARK    1  A    between atoms: C_6  and  N_7 
REMARK       I    between atoms: N_7  and  C_8 
REMARK    2  A    between atoms: C_8  and  C_9 
REMARK    3  A    between atoms: C_10  and  N_11 
REMARK    4  A    between atoms: N_12  and  N_13 
REMARK    5  A    between atoms: C_14  and  C_15 
ROOT
HETATM    1  C   UNL     1     -43.123  58.600 -53.978  1.00  0.00     0.099 C 
HETATM    2  C   UNL     1     -43.949  57.613 -53.357  1.00  0.00     0.101 C 
HETATM    3  N   UNL     1     -43.681  56.564 -54.166  1.00  0.00    -0.107 NA
HETATM    4  C   UNL     1     -43.945  57.329 -55.282  1.00  0.00     0.162 C 
HETATM    5  C   UNL     1     -42.816  58.180 -55.419  1.00  0.00     0.118 C 
HETATM    6  N   UNL     1     -42.554  57.773 -56.739  1.00  0.00    -0.242 NA
HETATM    7  C   UNL     1     -43.708  57.596 -57.602  1.00  0.00     0.086 C 
HETATM    8  C   UNL     1     -44.845  58.149 -57.090  1.00  0.00     0.087 C 
HETATM    9  N   UNL     1     -45.110  57.795 -55.834  1.00  0.00    -0.230 NA
HETATM   10  C   UNL     1     -44.094  56.770 -58.717  1.00  0.00     0.034 C 
HETATM   11  C   UNL     1     -45.351  56.914 -59.371  1.00  0.00     0.002 C 
HETATM   12  C   UNL     1     -46.148  58.001 -59.049  1.00  0.00     0.002 C 
HETATM   13  C   UNL     1     -45.834  58.683 -57.895  1.00  0.00     0.034 C 
ENDROOT
BRANCH   1  14
HETATM   14  C   UNL     1     -43.043  59.850 -53.165  1.00  0.00     0.261 C 
HETATM   15  N   UNL     1     -44.109  60.709 -52.875  1.00  0.00    -0.323 N 
HETATM   16  H   UNL     1     -44.841  60.825 -53.561  1.00  0.00     0.169 HD
HETATM   17  O   UNL     1     -41.925  60.127 -52.708  1.00  0.00    -0.267 OA
BRANCH  15  18
HETATM   18  C   UNL     1     -44.000  61.661 -51.783  1.00  0.00     0.035 C 
HETATM   19  C   UNL     1     -44.693  61.448 -50.581  1.00  0.00     0.037 C 
HETATM   20  C   UNL     1     -44.504  62.220 -49.428  1.00  0.00    -0.054 C 
HETATM   21  C   UNL     1     -43.926  63.478 -49.567  1.00  0.00    -0.056 C 
HETATM   22  C   UNL     1     -44.695  61.532 -48.101  1.00  0.00     0.049 C 
HETATM   23  C   UNL     1     -44.167  64.549 -48.535  1.00  0.00     0.049 C 
HETATM   24  C   UNL     1     -43.253  63.754 -50.773  1.00  0.00     0.009 C 
HETATM   25  C   UNL     1     -43.224  62.820 -51.845  1.00  0.00     0.030 C 
ENDBRANCH  15  18
ENDBRANCH   1  14
BRANCH   2  26
HETATM   26  N   UNL     1     -44.851  57.519 -52.344  1.00  0.00    -0.291 NA
HETATM   27  H   UNL     1     -45.366  56.633 -52.337  1.00  0.00     0.125 HD
HETATM   28  H   UNL     1     -44.434  57.657 -51.417  1.00  0.00     0.125 HD
ENDBRANCH   2  26
BRANCH   3  29
HETATM   29  N   UNL     1     -42.609  55.679 -53.930  1.00  0.00    -0.198 NA
HETATM   30  C   UNL     1     -42.782  54.967 -52.851  1.00  0.00     0.147 C 
BRANCH  30  31
HETATM   31  C   UNL     1     -41.742  54.139 -52.259  1.00  0.00     0.010 A 
HETATM   32  C   UNL     1     -41.067  53.025 -52.886  1.00  0.00     0.004 A 
HETATM   33  C   UNL     1     -40.133  52.531 -51.973  1.00  0.00     0.043 A 
HETATM   34  C   UNL     1     -41.152  52.388 -54.147  1.00  0.00     0.014 A 
HETATM   35  C   UNL     1     -39.261  51.471 -52.267  1.00  0.00     0.030 A 
HETATM   36  N   UNL     1     -40.273  53.267 -50.819  1.00  0.00    -0.364 N 
HETATM   37  C   UNL     1     -39.355  50.877 -53.529  1.00  0.00     0.002 A 
HETATM   38  C   UNL     1     -40.295  51.319 -54.454  1.00  0.00     0.001 A 
HETATM   39  H   UNL     1     -39.736  53.110 -49.977  1.00  0.00     0.165 HD
HETATM   40  C   UNL     1     -41.244  54.222 -50.973  1.00  0.00     0.102 A 
ENDBRANCH  30  31
ENDBRANCH   3  29
TORSDOF 5
ENDMDL
MODEL 9
REMARK VINA RESULT:      -9.2      1.923      8.195
REMARK  5 active torsions:
REMARK  status: ('A' for Active; 'I' for Inactive)
REMARK    1  A    between atoms: C_6  and  N_7 
REMARK       I    between atoms: N_7  and  C_8 
REMARK    2  A    between atoms: C_8  and  C_9 
REMARK    3  A    between atoms: C_10  and  N_11 
REMARK    4  A    between atoms: N_12  and  N_13 
REMARK    5  A    between atoms: C_14  and  C_15 
ROOT
HETATM    1  C   UNL     1     -42.726  58.366 -52.799  1.00  0.00     0.099 C 
HETATM    2  C   UNL     1     -44.071  57.943 -53.028  1.00  0.00     0.101 C 
HETATM    3  N   UNL     1     -44.576  59.089 -53.535  1.00  0.00    -0.107 NA
HETATM    4  C   UNL     1     -44.070  59.808 -52.473  1.00  0.00     0.162 C 
HETATM    5  C   UNL     1     -42.673  59.895 -52.723  1.00  0.00     0.118 C 
HETATM    6  N   UNL     1     -42.656  61.300 -52.653  1.00  0.00    -0.242 NA
HETATM    7  C   UNL     1     -43.464  61.905 -51.609  1.00  0.00     0.086 C 
HETATM    8  C   UNL     1     -43.872  61.010 -50.665  1.00  0.00     0.087 C 
HETATM    9  N   UNL     1     -44.446  59.914 -51.160  1.00  0.00    -0.230 NA
HETATM   10  C   UNL     1     -44.210  63.120 -51.403  1.00  0.00     0.034 C 
HETATM   11  C   UNL     1     -44.873  63.406 -50.176  1.00  0.00     0.002 C 
HETATM   12  C   UNL     1     -44.641  62.582 -49.086  1.00  0.00     0.002 C 
HETATM   13  C   UNL     1     -44.054  61.363 -49.341  1.00  0.00     0.034 C 
ENDROOT
BRANCH   1  14
HETATM   14  C   UNL     1     -41.840  57.224 -52.422  1.00  0.00     0.261 C 
HETATM   15  N   UNL     1     -42.198  56.141 -51.612  1.00  0.00    -0.323 N 
HETATM   16  H   UNL     1     -42.855  56.292 -50.860  1.00  0.00     0.169 HD
HETATM   17  O   UNL     1     -40.692  57.254 -52.889  1.00  0.00    -0.267 OA
BRANCH  15  18
HETATM   18  C   UNL     1     -41.403  54.926 -51.629  1.00  0.00     0.035 C 
HETATM   19  C   UNL     1     -41.481  54.039 -52.714  1.00  0.00     0.037 C 
HETATM   20  C   UNL     1     -40.623  52.945 -52.885  1.00  0.00    -0.054 C 
HETATM   21  C   UNL     1     -39.939  52.465 -51.774  1.00  0.00    -0.056 C 
HETATM   22  C   UNL     1     -40.306  52.535 -54.301  1.00  0.00     0.049 C 
HETATM   23  C   UNL     1     -39.448  51.041 -51.731  1.00  0.00     0.049 C 
HETATM   24  C   UNL     1     -39.867  53.304 -50.644  1.00  0.00     0.009 C 
HETATM   25  C   UNL     1     -40.531  54.561 -50.600  1.00  0.00     0.030 C 
ENDBRANCH  15  18
ENDBRANCH   1  14
BRANCH   2  26
HETATM   26  N   UNL     1     -44.853  56.850 -52.824  1.00  0.00    -0.291 NA
HETATM   27  H   UNL     1     -44.362  56.079 -52.359  1.00  0.00     0.125 HD
HETATM   28  H   UNL     1     -45.705  57.055 -52.293  1.00  0.00     0.125 HD
ENDBRANCH   2  26
BRANCH   3  29
HETATM   29  N   UNL     1     -44.537  59.392 -54.912  1.00  0.00    -0.198 NA
HETATM   30  C   UNL     1     -45.277  58.584 -55.619  1.00  0.00     0.147 C 
BRANCH  30  31
HETATM   31  C   UNL     1     -45.248  58.534 -57.073  1.00  0.00     0.010 A 
HETATM   32  C   UNL     1     -44.468  57.632 -57.889  1.00  0.00     0.004 A 
HETATM   33  C   UNL     1     -44.756  57.916 -59.226  1.00  0.00     0.043 A 
HETATM   34  C   UNL     1     -43.544  56.592 -57.624  1.00  0.00     0.014 A 
HETATM   35  C   UNL     1     -44.207  57.195 -60.298  1.00  0.00     0.030 A 
HETATM   36  N   UNL     1     -45.624  58.983 -59.230  1.00  0.00    -0.364 N 
HETATM   37  C   UNL     1     -43.316  56.160 -60.003  1.00  0.00     0.002 A 
HETATM   38  C   UNL     1     -42.978  55.868 -58.684  1.00  0.00     0.001 A 
HETATM   39  H   UNL     1     -45.984  59.420 -60.067  1.00  0.00     0.165 HD
HETATM   40  C   UNL     1     -45.913  59.372 -57.948  1.00  0.00     0.102 A 
ENDBRANCH  30  31
ENDBRANCH   3  29
TORSDOF 5
ENDMDL
MODEL 10
REMARK VINA RESULT:      -9.2      2.494      7.182
REMARK  5 active torsions:
REMARK  status: ('A' for Active; 'I' for Inactive)
REMARK    1  A    between atoms: C_6  and  N_7 
REMARK       I    between atoms: N_7  and  C_8 
REMARK    2  A    between atoms: C_8  and  C_9 
REMARK    3  A    between atoms: C_10  and  N_11 
REMARK    4  A    between atoms: N_12  and  N_13 
REMARK    5  A    between atoms: C_14  and  C_15 
ROOT
HETATM    1  C   UNL     1     -43.091  59.388 -53.624  1.00  0.00     0.099 C 
HETATM    2  C   UNL     1     -41.813  59.205 -53.011  1.00  0.00     0.101 C 
HETATM    3  N   UNL     1     -42.208  58.633 -51.852  1.00  0.00    -0.107 NA
HETATM    4  C   UNL     1     -43.126  59.640 -51.642  1.00  0.00     0.162 C 
HETATM    5  C   UNL     1     -44.184  59.366 -52.551  1.00  0.00     0.118 C 
HETATM    6  N   UNL     1     -45.166  59.346 -51.544  1.00  0.00    -0.242 NA
HETATM    7  C   UNL     1     -45.053  60.360 -50.511  1.00  0.00     0.086 C 
HETATM    8  C   UNL     1     -44.193  61.365 -50.843  1.00  0.00     0.087 C 
HETATM    9  N   UNL     1     -42.998  60.949 -51.259  1.00  0.00    -0.230 NA
HETATM   10  C   UNL     1     -45.358  60.499 -49.110  1.00  0.00     0.034 C 
HETATM   11  C   UNL     1     -45.140  61.714 -48.401  1.00  0.00     0.002 C 
HETATM   12  C   UNL     1     -44.801  62.851 -49.118  1.00  0.00     0.002 C 
HETATM   13  C   UNL     1     -44.375  62.666 -50.414  1.00  0.00     0.034 C 
ENDROOT
BRANCH   1  14
HETATM   14  C   UNL     1     -42.968  59.824 -55.047  1.00  0.00     0.261 C 
HETATM   15  N   UNL     1     -41.791  59.833 -55.804  1.00  0.00    -0.323 N 
HETATM   16  H   UNL     1     -40.916  60.025 -55.339  1.00  0.00     0.169 HD
HETATM   17  O   UNL     1     -44.018  60.197 -55.590  1.00  0.00    -0.267 OA
BRANCH  15  18
HETATM   18  C   UNL     1     -41.858  59.907 -57.253  1.00  0.00     0.035 C 
HETATM   19  C   UNL     1     -41.630  61.123 -57.915  1.00  0.00     0.037 C 
HETATM   20  C   UNL     1     -41.504  61.238 -59.305  1.00  0.00    -0.054 C 
HETATM   21  C   UNL     1     -42.013  60.216 -60.099  1.00  0.00    -0.056 C 
HETATM   22  C   UNL     1     -40.600  62.326 -59.826  1.00  0.00     0.049 C 
HETATM   23  C   UNL     1     -42.403  60.478 -61.530  1.00  0.00     0.049 C 
HETATM   24  C   UNL     1     -42.297  58.987 -59.471  1.00  0.00     0.009 C 
HETATM   25  C   UNL     1     -42.146  58.810 -58.068  1.00  0.00     0.030 C 
ENDBRANCH  15  18
ENDBRANCH   1  14
BRANCH   2  26
HETATM   26  N   UNL     1     -40.507  59.489 -53.257  1.00  0.00    -0.291 NA
HETATM   27  H   UNL     1     -40.030  59.932 -52.465  1.00  0.00     0.125 HD
HETATM   28  H   UNL     1     -39.961  58.671 -53.545  1.00  0.00     0.125 HD
ENDBRANCH   2  26
BRANCH   3  29
HETATM   29  N   UNL     1     -42.370  57.239 -51.710  1.00  0.00    -0.198 NA
HETATM   30  C   UNL     1     -41.245  56.634 -51.449  1.00  0.00     0.147 C 
BRANCH  30  31
HETATM   31  C   UNL     1     -41.089  55.186 -51.469  1.00  0.00     0.010 A 
HETATM   32  C   UNL     1     -40.788  54.369 -52.623  1.00  0.00     0.004 A 
HETATM   33  C   UNL     1     -40.709  53.043 -52.191  1.00  0.00     0.043 A 
HETATM   34  C   UNL     1     -40.568  54.625 -53.998  1.00  0.00     0.014 A 
HETATM   35  C   UNL     1     -40.384  51.977 -53.044  1.00  0.00     0.030 A 
HETATM   36  N   UNL     1     -41.009  53.042 -50.848  1.00  0.00    -0.364 N 
HETATM   37  C   UNL     1     -40.151  52.265 -54.391  1.00  0.00     0.002 A 
HETATM   38  C   UNL     1     -40.253  53.569 -54.867  1.00  0.00     0.001 A 
HETATM   39  H   UNL     1     -41.051  52.209 -50.276  1.00  0.00     0.165 HD
HETATM   40  C   UNL     1     -41.254  54.317 -50.409  1.00  0.00     0.102 A 
ENDBRANCH  30  31
ENDBRANCH   3  29
TORSDOF 5
ENDMDL
