MODEL 1
REMARK VINA RESULT:      -9.3      0.000      0.000
REMARK  2 active torsions:
REMARK  status: ('A' for Active; 'I' for Inactive)
REMARK    1  A    between atoms: O_2  and  C_3 
REMARK    2  A    between atoms: C_5  and  N_6 
ROOT
HETATM    1  N   UNL     1     -43.299  57.257 -55.436  1.00  0.00    -0.252 N 
HETATM    2  C   UNL     1     -43.780  56.503 -54.385  1.00  0.00     0.239 C 
HETATM    3  O   UNL     1     -44.466  55.493 -54.382  1.00  0.00    -0.272 OA
HETATM    4  C   UNL     1     -43.203  57.021 -53.111  1.00  0.00     0.145 C 
HETATM    5  C   UNL     1     -42.538  58.320 -53.502  1.00  0.00     0.126 C 
HETATM    6  C   UNL     1     -42.383  58.187 -54.990  1.00  0.00     0.238 C 
HETATM    7  O   UNL     1     -41.539  58.829 -55.596  1.00  0.00    -0.272 OA
HETATM    8  C   UNL     1     -42.121  56.124 -52.519  1.00  0.00     0.250 A 
HETATM    9  C   UNL     1     -42.744  55.140 -51.471  1.00  0.00     0.264 A 
HETATM   10  O   UNL     1     -43.382  55.458 -50.480  1.00  0.00    -0.270 OA
HETATM   11  N   UNL     1     -42.378  53.856 -51.830  1.00  0.00    -0.324 N 
HETATM   12  C   UNL     1     -41.577  53.855 -52.961  1.00  0.00     0.044 A 
HETATM   13  C   UNL     1     -41.366  55.161 -53.416  1.00  0.00     0.015 A 
HETATM   14  C   UNL     1     -41.016  52.750 -53.563  1.00  0.00     0.030 A 
HETATM   15  C   UNL     1     -40.190  52.970 -54.665  1.00  0.00     0.002 A 
HETATM   16  C   UNL     1     -39.944  54.274 -55.126  1.00  0.00     0.001 A 
HETATM   17  C   UNL     1     -40.527  55.381 -54.500  1.00  0.00     0.012 A 
HETATM   18  N   UNL     1     -41.139  57.144 -51.913  1.00  0.00    -0.043 N 
HETATM   19  H   UNL     1     -40.190  56.740 -51.957  1.00  0.00     0.282 HD
HETATM   20  C   UNL     1     -41.206  58.410 -52.768  1.00  0.00     0.204 C 
HETATM   21  C   UNL     1     -41.362  57.573 -50.481  1.00  0.00     0.237 C 
HETATM   22  C   UNL     1     -40.667  58.917 -50.453  1.00  0.00     0.030 C 
HETATM   23  C   UNL     1     -41.126  59.556 -51.754  1.00  0.00     0.036 C 
HETATM   24  H   UNL     1     -42.665  53.029 -51.319  1.00  0.00     0.169 HD
ENDROOT
BRANCH   1  25
HETATM   25  C   UNL     1     -43.617  57.002 -56.806  1.00  0.00     0.048 A 
HETATM   26  C   UNL     1     -44.614  57.742 -57.462  1.00  0.00     0.066 A 
HETATM   27  C   UNL     1     -44.919  57.547 -58.817  1.00  0.00     0.070 A 
HETATM   28  C   UNL     1     -44.237  56.576 -59.538  1.00  0.00     0.037 A 
HETATM   29  C   UNL     1     -43.244  55.825 -58.911  1.00  0.00     0.005 A 
HETATM   30  C   UNL     1     -42.929  56.044 -57.564  1.00  0.00     0.030 A 
BRANCH  27  31
HETATM   31  O   UNL     1     -45.891  58.378 -59.302  1.00  0.00    -0.356 OA
HETATM   32  C   UNL     1     -46.846  57.810 -60.191  1.00  0.00     0.210 C 
ENDBRANCH  27  31
ENDBRANCH   1  25
TORSDOF 2
ENDMDL
MODEL 2
REMARK VINA RESULT:      -8.9      2.407      6.011
REMARK  2 active torsions:
REMARK  status: ('A' for Active; 'I' for Inactive)
REMARK    1  A    between atoms: O_2  and  C_3 
REMARK    2  A    between atoms: C_5  and  N_6 
ROOT
HETATM    1  N   UNL     1     -42.495  55.256 -53.212  1.00  0.00    -0.252 N 
HETATM    2  C   UNL     1     -43.295  55.894 -52.286  1.00  0.00     0.239 C 
HETATM    3  O   UNL     1     -43.342  55.787 -51.071  1.00  0.00    -0.272 OA
HETATM    4  C   UNL     1     -44.094  56.947 -52.977  1.00  0.00     0.145 C 
HETATM    5  C   UNL     1     -43.868  56.684 -54.448  1.00  0.00     0.126 C 
HETATM    6  C   UNL     1     -42.624  55.842 -54.454  1.00  0.00     0.238 C 
HETATM    7  O   UNL     1     -41.911  55.779 -55.443  1.00  0.00    -0.272 OA
HETATM    8  C   UNL     1     -43.609  58.366 -52.697  1.00  0.00     0.250 A 
HETATM    9  C   UNL     1     -44.409  58.987 -51.501  1.00  0.00     0.264 A 
HETATM   10  O   UNL     1     -45.622  59.114 -51.439  1.00  0.00    -0.270 OA
HETATM   11  N   UNL     1     -43.492  59.431 -50.567  1.00  0.00    -0.324 N 
HETATM   12  C   UNL     1     -42.191  59.209 -50.989  1.00  0.00     0.044 A 
HETATM   13  C   UNL     1     -42.179  58.600 -52.249  1.00  0.00     0.015 A 
HETATM   14  C   UNL     1     -41.042  59.560 -50.313  1.00  0.00     0.030 A 
HETATM   15  C   UNL     1     -39.825  59.299 -50.942  1.00  0.00     0.002 A 
HETATM   16  C   UNL     1     -39.788  58.710 -52.215  1.00  0.00     0.001 A 
HETATM   17  C   UNL     1     -40.967  58.360 -52.882  1.00  0.00     0.012 A 
HETATM   18  N   UNL     1     -43.851  59.071 -54.045  1.00  0.00    -0.043 N 
HETATM   19  H   UNL     1     -43.139  59.810 -54.152  1.00  0.00     0.282 HD
HETATM   20  C   UNL     1     -43.686  58.025 -55.147  1.00  0.00     0.204 C 
HETATM   21  C   UNL     1     -45.194  59.730 -54.266  1.00  0.00     0.237 C 
HETATM   22  C   UNL     1     -45.280  59.748 -55.777  1.00  0.00     0.030 C 
HETATM   23  C   UNL     1     -44.790  58.359 -56.156  1.00  0.00     0.036 C 
HETATM   24  H   UNL     1     -43.753  59.863 -49.688  1.00  0.00     0.169 HD
ENDROOT
BRANCH   1  25
HETATM   25  C   UNL     1     -41.567  54.221 -52.879  1.00  0.00     0.048 A 
HETATM   26  C   UNL     1     -41.301  53.178 -53.781  1.00  0.00     0.066 A 
HETATM   27  C   UNL     1     -40.363  52.173 -53.504  1.00  0.00     0.070 A 
HETATM   28  C   UNL     1     -39.687  52.184 -52.291  1.00  0.00     0.037 A 
HETATM   29  C   UNL     1     -39.934  53.207 -51.376  1.00  0.00     0.005 A 
HETATM   30  C   UNL     1     -40.854  54.220 -51.672  1.00  0.00     0.030 A 
BRANCH  27  31
HETATM   31  O   UNL     1     -40.203  51.257 -54.507  1.00  0.00    -0.356 OA
HETATM   32  C   UNL     1     -39.837  49.935 -54.128  1.00  0.00     0.210 C 
ENDBRANCH  27  31
ENDBRANCH   1  25
TORSDOF 2
ENDMDL
MODEL 3
REMARK VINA RESULT:      -8.8      2.410      5.963
REMARK  2 active torsions:
REMARK  status: ('A' for Active; 'I' for Inactive)
REMARK    1  A    between atoms: O_2  and  C_3 
REMARK    2  A    between atoms: C_5  and  N_6 
ROOT
HETATM    1  N   UNL     1     -42.731  55.547 -53.681  1.00  0.00    -0.252 N 
HETATM    2  C   UNL     1     -43.493  56.106 -52.675  1.00  0.00     0.239 C 
HETATM    3  O   UNL     1     -43.521  55.870 -51.478  1.00  0.00    -0.272 OA
HETATM    4  C   UNL     1     -44.271  57.250 -53.233  1.00  0.00     0.145 C 
HETATM    5  C   UNL     1     -44.081  57.139 -54.728  1.00  0.00     0.126 C 
HETATM    6  C   UNL     1     -42.864  56.267 -54.851  1.00  0.00     0.238 C 
HETATM    7  O   UNL     1     -42.172  56.289 -55.856  1.00  0.00    -0.272 OA
HETATM    8  C   UNL     1     -43.737  58.616 -52.813  1.00  0.00     0.250 A 
HETATM    9  C   UNL     1     -44.495  59.128 -51.541  1.00  0.00     0.264 A 
HETATM   10  O   UNL     1     -45.701  59.283 -51.439  1.00  0.00    -0.270 OA
HETATM   11  N   UNL     1     -43.547  59.442 -50.586  1.00  0.00    -0.324 N 
HETATM   12  C   UNL     1     -42.261  59.229 -51.057  1.00  0.00     0.044 A 
HETATM   13  C   UNL     1     -42.292  58.758 -52.374  1.00  0.00     0.015 A 
HETATM   14  C   UNL     1     -41.090  59.471 -50.373  1.00  0.00     0.030 A 
HETATM   15  C   UNL     1     -39.893  59.243 -51.052  1.00  0.00     0.002 A 
HETATM   16  C   UNL     1     -39.898  58.793 -52.381  1.00  0.00     0.001 A 
HETATM   17  C   UNL     1     -41.100  58.552 -53.056  1.00  0.00     0.012 A 
HETATM   18  N   UNL     1     -43.982  59.468 -54.073  1.00  0.00    -0.043 N 
HETATM   19  H   UNL     1     -43.248  60.193 -54.116  1.00  0.00     0.282 HD
HETATM   20  C   UNL     1     -43.870  58.541 -55.284  1.00  0.00     0.204 C 
HETATM   21  C   UNL     1     -45.307  60.186 -54.193  1.00  0.00     0.237 C 
HETATM   22  C   UNL     1     -45.420  60.369 -55.691  1.00  0.00     0.030 C 
HETATM   23  C   UNL     1     -44.982  59.015 -56.227  1.00  0.00     0.036 C 
HETATM   24  H   UNL     1     -43.778  59.785 -49.660  1.00  0.00     0.169 HD
ENDROOT
BRANCH   1  25
HETATM   25  C   UNL     1     -41.830  54.456 -53.481  1.00  0.00     0.048 A 
HETATM   26  C   UNL     1     -41.024  54.392 -52.332  1.00  0.00     0.066 A 
HETATM   27  C   UNL     1     -40.163  53.314 -52.083  1.00  0.00     0.070 A 
HETATM   28  C   UNL     1     -40.076  52.281 -53.008  1.00  0.00     0.037 A 
HETATM   29  C   UNL     1     -40.863  52.320 -54.158  1.00  0.00     0.005 A 
HETATM   30  C   UNL     1     -41.739  53.389 -54.385  1.00  0.00     0.030 A 
BRANCH  27  31
HETATM   31  O   UNL     1     -39.480  53.397 -50.902  1.00  0.00    -0.356 OA
HETATM   32  C   UNL     1     -40.013  54.260 -49.903  1.00  0.00     0.210 C 
ENDBRANCH  27  31
ENDBRANCH   1  25
TORSDOF 2
ENDMDL
MODEL 4
REMARK VINA RESULT:      -8.6      2.237      6.517
REMARK  2 active torsions:
REMARK  status: ('A' for Active; 'I' for Inactive)
REMARK    1  A    between atoms: O_2  and  C_3 
REMARK    2  A    between atoms: C_5  and  N_6 
ROOT
HETATM    1  N   UNL     1     -41.844  54.137 -54.046  1.00  0.00    -0.252 N 
HETATM    2  C   UNL     1     -43.039  54.741 -53.713  1.00  0.00     0.239 C 
HETATM    3  O   UNL     1     -43.605  54.839 -52.637  1.00  0.00    -0.272 OA
HETATM    4  C   UNL     1     -43.568  55.463 -54.908  1.00  0.00     0.145 C 
HETATM    5  C   UNL     1     -42.686  55.002 -56.044  1.00  0.00     0.126 C 
HETATM    6  C   UNL     1     -41.478  54.457 -55.337  1.00  0.00     0.238 C 
HETATM    7  O   UNL     1     -40.399  54.376 -55.904  1.00  0.00    -0.272 OA
HETATM    8  C   UNL     1     -43.427  56.979 -54.818  1.00  0.00     0.250 A 
HETATM    9  C   UNL     1     -44.741  57.613 -54.244  1.00  0.00     0.264 A 
HETATM   10  O   UNL     1     -45.861  57.487 -54.711  1.00  0.00    -0.270 OA
HETATM   11  N   UNL     1     -44.390  58.398 -53.162  1.00  0.00    -0.324 N 
HETATM   12  C   UNL     1     -43.020  58.389 -52.952  1.00  0.00     0.044 A 
HETATM   13  C   UNL     1     -42.381  57.587 -53.903  1.00  0.00     0.015 A 
HETATM   14  C   UNL     1     -42.338  59.089 -51.980  1.00  0.00     0.030 A 
HETATM   15  C   UNL     1     -40.947  58.989 -51.975  1.00  0.00     0.002 A 
HETATM   16  C   UNL     1     -40.282  58.208 -52.934  1.00  0.00     0.001 A 
HETATM   17  C   UNL     1     -40.995  57.505 -53.911  1.00  0.00     0.012 A 
HETATM   18  N   UNL     1     -43.130  57.371 -56.278  1.00  0.00    -0.043 N 
HETATM   19  H   UNL     1     -42.535  58.214 -56.268  1.00  0.00     0.282 HD
HETATM   20  C   UNL     1     -42.373  56.208 -56.920  1.00  0.00     0.204 C 
HETATM   21  C   UNL     1     -44.304  57.679 -57.179  1.00  0.00     0.237 C 
HETATM   22  C   UNL     1     -43.714  57.416 -58.548  1.00  0.00     0.030 C 
HETATM   23  C   UNL     1     -42.948  56.119 -58.338  1.00  0.00     0.036 C 
HETATM   24  H   UNL     1     -45.061  58.910 -52.601  1.00  0.00     0.169 HD
ENDROOT
BRANCH   1  25
HETATM   25  C   UNL     1     -41.044  53.398 -53.120  1.00  0.00     0.048 A 
HETATM   26  C   UNL     1     -40.604  52.100 -53.427  1.00  0.00     0.066 A 
HETATM   27  C   UNL     1     -39.781  51.366 -52.561  1.00  0.00     0.070 A 
HETATM   28  C   UNL     1     -39.403  51.920 -51.345  1.00  0.00     0.037 A 
HETATM   29  C   UNL     1     -39.827  53.206 -51.013  1.00  0.00     0.005 A 
HETATM   30  C   UNL     1     -40.628  53.941 -51.897  1.00  0.00     0.030 A 
BRANCH  27  31
HETATM   31  O   UNL     1     -39.418  50.136 -53.033  1.00  0.00    -0.356 OA
HETATM   32  C   UNL     1     -39.656  49.874 -54.412  1.00  0.00     0.210 C 
ENDBRANCH  27  31
ENDBRANCH   1  25
TORSDOF 2
ENDMDL
MODEL 5
REMARK VINA RESULT:      -8.6      2.589      6.278
REMARK  2 active torsions:
REMARK  status: ('A' for Active; 'I' for Inactive)
REMARK    1  A    between atoms: O_2  and  C_3 
REMARK    2  A    between atoms: C_5  and  N_6 
ROOT
HETATM    1  N   UNL     1     -42.042  56.579 -51.412  1.00  0.00    -0.252 N 
HETATM    2  C   UNL     1     -41.571  57.690 -52.082  1.00  0.00     0.239 C 
HETATM    3  O   UNL     1     -40.520  57.871 -52.676  1.00  0.00    -0.272 OA
HETATM    4  C   UNL     1     -42.649  58.721 -52.131  1.00  0.00     0.145 C 
HETATM    5  C   UNL     1     -43.712  58.196 -51.195  1.00  0.00     0.126 C 
HETATM    6  C   UNL     1     -43.371  56.737 -51.078  1.00  0.00     0.238 C 
HETATM    7  O   UNL     1     -44.215  55.917 -50.753  1.00  0.00    -0.272 OA
HETATM    8  C   UNL     1     -43.293  58.867 -53.505  1.00  0.00     0.250 A 
HETATM    9  C   UNL     1     -42.593  60.012 -54.314  1.00  0.00     0.264 A 
HETATM   10  O   UNL     1     -42.481  61.174 -53.960  1.00  0.00    -0.270 OA
HETATM   11  N   UNL     1     -42.196  59.486 -55.529  1.00  0.00    -0.324 N 
HETATM   12  C   UNL     1     -42.556  58.152 -55.646  1.00  0.00     0.044 A 
HETATM   13  C   UNL     1     -43.225  57.720 -54.496  1.00  0.00     0.015 A 
HETATM   14  C   UNL     1     -42.339  57.341 -56.738  1.00  0.00     0.030 A 
HETATM   15  C   UNL     1     -42.833  56.038 -56.677  1.00  0.00     0.002 A 
HETATM   16  C   UNL     1     -43.529  55.589 -55.543  1.00  0.00     0.001 A 
HETATM   17  C   UNL     1     -43.735  56.430 -54.444  1.00  0.00     0.012 A 
HETATM   18  N   UNL     1     -44.764  59.159 -53.151  1.00  0.00    -0.043 N 
HETATM   19  H   UNL     1     -45.356  58.778 -53.906  1.00  0.00     0.282 HD
HETATM   20  C   UNL     1     -45.071  58.443 -51.836  1.00  0.00     0.204 C 
HETATM   21  C   UNL     1     -45.172  60.603 -52.968  1.00  0.00     0.237 C 
HETATM   22  C   UNL     1     -46.396  60.464 -52.089  1.00  0.00     0.030 C 
HETATM   23  C   UNL     1     -45.957  59.428 -51.066  1.00  0.00     0.036 C 
HETATM   24  H   UNL     1     -41.704  60.020 -56.236  1.00  0.00     0.169 HD
ENDROOT
BRANCH   1  25
HETATM   25  C   UNL     1     -41.280  55.384 -51.224  1.00  0.00     0.048 A 
HETATM   26  C   UNL     1     -41.235  54.396 -52.222  1.00  0.00     0.066 A 
HETATM   27  C   UNL     1     -40.461  53.234 -52.088  1.00  0.00     0.070 A 
HETATM   28  C   UNL     1     -39.732  53.030 -50.924  1.00  0.00     0.037 A 
HETATM   29  C   UNL     1     -39.760  53.993 -49.916  1.00  0.00     0.005 A 
HETATM   30  C   UNL     1     -40.516  55.162 -50.070  1.00  0.00     0.030 A 
BRANCH  27  31
HETATM   31  O   UNL     1     -40.506  52.399 -53.169  1.00  0.00    -0.356 OA
HETATM   32  C   UNL     1     -39.440  51.467 -53.314  1.00  0.00     0.210 C 
ENDBRANCH  27  31
ENDBRANCH   1  25
TORSDOF 2
ENDMDL
MODEL 6
REMARK VINA RESULT:      -8.3      2.035      4.453
REMARK  2 active torsions:
REMARK  status: ('A' for Active; 'I' for Inactive)
REMARK    1  A    between atoms: O_2  and  C_3 
REMARK    2  A    between atoms: C_5  and  N_6 
ROOT
HETATM    1  N   UNL     1     -42.659  56.671 -54.709  1.00  0.00    -0.252 N 
HETATM    2  C   UNL     1     -41.748  57.501 -54.088  1.00  0.00     0.239 C 
HETATM    3  O   UNL     1     -41.350  58.613 -54.397  1.00  0.00    -0.272 OA
HETATM    4  C   UNL     1     -41.353  56.899 -52.781  1.00  0.00     0.145 C 
HETATM    5  C   UNL     1     -41.932  55.504 -52.821  1.00  0.00     0.126 C 
HETATM    6  C   UNL     1     -42.976  55.601 -53.897  1.00  0.00     0.238 C 
HETATM    7  O   UNL     1     -43.915  54.822 -53.935  1.00  0.00    -0.272 OA
HETATM    8  C   UNL     1     -41.963  57.603 -51.574  1.00  0.00     0.250 A 
HETATM    9  C   UNL     1     -40.974  58.684 -51.018  1.00  0.00     0.264 A 
HETATM   10  O   UNL     1     -39.829  58.484 -50.646  1.00  0.00    -0.270 OA
HETATM   11  N   UNL     1     -41.656  59.885 -50.956  1.00  0.00    -0.324 N 
HETATM   12  C   UNL     1     -42.970  59.744 -51.374  1.00  0.00     0.044 A 
HETATM   13  C   UNL     1     -43.231  58.419 -51.738  1.00  0.00     0.015 A 
HETATM   14  C   UNL     1     -43.927  60.735 -51.406  1.00  0.00     0.030 A 
HETATM   15  C   UNL     1     -45.212  60.371 -51.807  1.00  0.00     0.002 A 
HETATM   16  C   UNL     1     -45.505  59.043 -52.154  1.00  0.00     0.001 A 
HETATM   17  C   UNL     1     -44.516  58.054 -52.116  1.00  0.00     0.012 A 
HETATM   18  N   UNL     1     -42.221  56.434 -50.605  1.00  0.00    -0.043 N 
HETATM   19  H   UNL     1     -43.045  56.671 -50.030  1.00  0.00     0.282 HD
HETATM   20  C   UNL     1     -42.514  55.194 -51.449  1.00  0.00     0.204 C 
HETATM   21  C   UNL     1     -41.116  56.057 -49.643  1.00  0.00     0.237 C 
HETATM   22  C   UNL     1     -41.457  54.615 -49.338  1.00  0.00     0.030 C 
HETATM   23  C   UNL     1     -41.801  54.056 -50.709  1.00  0.00     0.036 C 
HETATM   24  H   UNL     1     -41.235  60.752 -50.641  1.00  0.00     0.169 HD
ENDROOT
BRANCH   1  25
HETATM   25  C   UNL     1     -43.279  56.969 -55.961  1.00  0.00     0.048 A 
HETATM   26  C   UNL     1     -42.994  56.203 -57.104  1.00  0.00     0.066 A 
HETATM   27  C   UNL     1     -43.619  56.441 -58.337  1.00  0.00     0.070 A 
HETATM   28  C   UNL     1     -44.532  57.481 -58.451  1.00  0.00     0.037 A 
HETATM   29  C   UNL     1     -44.832  58.258 -57.333  1.00  0.00     0.005 A 
HETATM   30  C   UNL     1     -44.222  57.997 -56.100  1.00  0.00     0.030 A 
BRANCH  27  31
HETATM   31  O   UNL     1     -43.250  55.579 -59.332  1.00  0.00    -0.356 OA
HETATM   32  C   UNL     1     -44.263  54.737 -59.871  1.00  0.00     0.210 C 
ENDBRANCH  27  31
ENDBRANCH   1  25
TORSDOF 2
ENDMDL
MODEL 7
REMARK VINA RESULT:      -8.2      1.473      1.755
REMARK  2 active torsions:
REMARK  status: ('A' for Active; 'I' for Inactive)
REMARK    1  A    between atoms: O_2  and  C_3 
REMARK    2  A    between atoms: C_5  and  N_6 
ROOT
HETATM    1  N   UNL     1     -43.788  57.941 -55.831  1.00  0.00    -0.252 N 
HETATM    2  C   UNL     1     -44.566  57.509 -54.776  1.00  0.00     0.239 C 
HETATM    3  O   UNL     1     -45.300  56.539 -54.677  1.00  0.00    -0.272 OA
HETATM    4  C   UNL     1     -44.286  58.364 -53.585  1.00  0.00     0.145 C 
HETATM    5  C   UNL     1     -43.455  59.502 -54.128  1.00  0.00     0.126 C 
HETATM    6  C   UNL     1     -42.947  58.959 -55.433  1.00  0.00     0.238 C 
HETATM    7  O   UNL     1     -41.937  59.408 -55.951  1.00  0.00    -0.272 OA
HETATM    8  C   UNL     1     -43.450  57.668 -52.516  1.00  0.00     0.250 A 
HETATM    9  C   UNL     1     -44.382  57.015 -51.438  1.00  0.00     0.264 A 
HETATM   10  O   UNL     1     -45.220  57.596 -50.768  1.00  0.00    -0.270 OA
HETATM   11  N   UNL     1     -44.029  55.683 -51.330  1.00  0.00    -0.324 N 
HETATM   12  C   UNL     1     -42.976  55.367 -52.173  1.00  0.00     0.044 A 
HETATM   13  C   UNL     1     -42.567  56.494 -52.894  1.00  0.00     0.015 A 
HETATM   14  C   UNL     1     -42.363  54.138 -52.289  1.00  0.00     0.030 A 
HETATM   15  C   UNL     1     -41.277  54.044 -53.159  1.00  0.00     0.002 A 
HETATM   16  C   UNL     1     -40.833  55.167 -53.875  1.00  0.00     0.001 A 
HETATM   17  C   UNL     1     -41.473  56.405 -53.743  1.00  0.00     0.012 A 
HETATM   18  N   UNL     1     -42.580  58.819 -51.977  1.00  0.00    -0.043 N 
HETATM   19  H   UNL     1     -41.681  58.420 -51.664  1.00  0.00     0.282 HD
HETATM   20  C   UNL     1     -42.344  59.796 -53.129  1.00  0.00     0.204 C 
HETATM   21  C   UNL     1     -43.119  59.630 -50.820  1.00  0.00     0.237 C 
HETATM   22  C   UNL     1     -42.360  60.930 -50.979  1.00  0.00     0.030 C 
HETATM   23  C   UNL     1     -42.437  61.180 -52.477  1.00  0.00     0.036 C 
HETATM   24  H   UNL     1     -44.492  55.031 -50.707  1.00  0.00     0.169 HD
ENDROOT
BRANCH   1  25
HETATM   25  C   UNL     1     -43.774  57.313 -57.115  1.00  0.00     0.048 A 
HETATM   26  C   UNL     1     -44.606  57.773 -58.149  1.00  0.00     0.066 A 
HETATM   27  C   UNL     1     -44.584  57.209 -59.433  1.00  0.00     0.070 A 
HETATM   28  C   UNL     1     -43.735  56.142 -59.695  1.00  0.00     0.037 A 
HETATM   29  C   UNL     1     -42.900  55.663 -58.687  1.00  0.00     0.005 A 
HETATM   30  C   UNL     1     -42.911  56.250 -57.415  1.00  0.00     0.030 A 
BRANCH  27  31
HETATM   31  O   UNL     1     -45.432  57.803 -60.325  1.00  0.00    -0.356 OA
HETATM   32  C   UNL     1     -46.730  58.149 -59.856  1.00  0.00     0.210 C 
ENDBRANCH  27  31
ENDBRANCH   1  25
TORSDOF 2
ENDMDL
MODEL 8
REMARK VINA RESULT:      -8.0      1.988      4.289
REMARK  2 active torsions:
REMARK  status: ('A' for Active; 'I' for Inactive)
REMARK    1  A    between atoms: O_2  and  C_3 
REMARK    2  A    between atoms: C_5  and  N_6 
ROOT
HETATM    1  N   UNL     1     -42.641  56.593 -54.700  1.00  0.00    -0.252 N 
HETATM    2  C   UNL     1     -41.752  57.450 -54.085  1.00  0.00     0.239 C 
HETATM    3  O   UNL     1     -41.372  58.564 -54.408  1.00  0.00    -0.272 OA
HETATM    4  C   UNL     1     -41.355  56.875 -52.766  1.00  0.00     0.145 C 
HETATM    5  C   UNL     1     -41.907  55.469 -52.790  1.00  0.00     0.126 C 
HETATM    6  C   UNL     1     -42.944  55.530 -53.875  1.00  0.00     0.238 C 
HETATM    7  O   UNL     1     -43.868  54.732 -53.908  1.00  0.00    -0.272 OA
HETATM    8  C   UNL     1     -41.988  57.585 -51.574  1.00  0.00     0.250 A 
HETATM    9  C   UNL     1     -41.024  58.693 -51.027  1.00  0.00     0.264 A 
HETATM   10  O   UNL     1     -39.879  58.521 -50.644  1.00  0.00    -0.270 OA
HETATM   11  N   UNL     1     -41.729  59.881 -50.988  1.00  0.00    -0.324 N 
HETATM   12  C   UNL     1     -43.037  59.709 -51.414  1.00  0.00     0.044 A 
HETATM   13  C   UNL     1     -43.271  58.374 -51.760  1.00  0.00     0.015 A 
HETATM   14  C   UNL     1     -44.013  60.680 -51.468  1.00  0.00     0.030 A 
HETATM   15  C   UNL     1     -45.288  60.286 -51.873  1.00  0.00     0.002 A 
HETATM   16  C   UNL     1     -45.552  58.947 -52.202  1.00  0.00     0.001 A 
HETATM   17  C   UNL     1     -44.545  57.978 -52.143  1.00  0.00     0.012 A 
HETATM   18  N   UNL     1     -42.231  56.425 -50.590  1.00  0.00    -0.043 N 
HETATM   19  H   UNL     1     -43.064  56.655 -50.025  1.00  0.00     0.282 HD
HETATM   20  C   UNL     1     -42.493  55.167 -51.417  1.00  0.00     0.204 C 
HETATM   21  C   UNL     1     -41.127  56.084 -49.615  1.00  0.00     0.237 C 
HETATM   22  C   UNL     1     -41.442  54.640 -49.290  1.00  0.00     0.030 C 
HETATM   23  C   UNL     1     -41.765  54.054 -50.656  1.00  0.00     0.036 C 
HETATM   24  H   UNL     1     -41.328  60.761 -50.684  1.00  0.00     0.169 HD
ENDROOT
BRANCH   1  25
HETATM   25  C   UNL     1     -43.257  56.861 -55.962  1.00  0.00     0.048 A 
HETATM   26  C   UNL     1     -44.366  57.719 -56.052  1.00  0.00     0.066 A 
HETATM   27  C   UNL     1     -44.965  58.038 -57.279  1.00  0.00     0.070 A 
HETATM   28  C   UNL     1     -44.472  57.473 -58.448  1.00  0.00     0.037 A 
HETATM   29  C   UNL     1     -43.375  56.615 -58.386  1.00  0.00     0.005 A 
HETATM   30  C   UNL     1     -42.767  56.323 -57.159  1.00  0.00     0.030 A 
BRANCH  27  31
HETATM   31  O   UNL     1     -46.009  58.917 -57.186  1.00  0.00    -0.356 OA
HETATM   32  C   UNL     1     -47.252  58.508 -57.744  1.00  0.00     0.210 C 
ENDBRANCH  27  31
ENDBRANCH   1  25
TORSDOF 2
ENDMDL
MODEL 9
REMARK VINA RESULT:      -7.7      2.893      6.857
REMARK  2 active torsions:
REMARK  status: ('A' for Active; 'I' for Inactive)
REMARK    1  A    between atoms: O_2  and  C_3 
REMARK    2  A    between atoms: C_5  and  N_6 
ROOT
HETATM    1  N   UNL     1     -42.765  57.526 -51.435  1.00  0.00    -0.252 N 
HETATM    2  C   UNL     1     -42.167  58.663 -51.940  1.00  0.00     0.239 C 
HETATM    3  O   UNL     1     -41.038  58.840 -52.370  1.00  0.00    -0.272 OA
HETATM    4  C   UNL     1     -43.189  59.744 -52.047  1.00  0.00     0.145 C 
HETATM    5  C   UNL     1     -44.390  59.198 -51.310  1.00  0.00     0.126 C 
HETATM    6  C   UNL     1     -44.121  57.721 -51.271  1.00  0.00     0.238 C 
HETATM    7  O   UNL     1     -45.031  56.919 -51.133  1.00  0.00    -0.272 OA
HETATM    8  C   UNL     1     -43.633  60.027 -53.479  1.00  0.00     0.250 A 
HETATM    9  C   UNL     1     -42.787  61.197 -54.088  1.00  0.00     0.264 A 
HETATM   10  O   UNL     1     -42.683  62.322 -53.626  1.00  0.00    -0.270 OA
HETATM   11  N   UNL     1     -42.245  60.749 -55.278  1.00  0.00    -0.324 N 
HETATM   12  C   UNL     1     -42.633  59.447 -55.553  1.00  0.00     0.044 A 
HETATM   13  C   UNL     1     -43.470  58.959 -54.544  1.00  0.00     0.015 A 
HETATM   14  C   UNL     1     -42.297  58.714 -56.671  1.00  0.00     0.030 A 
HETATM   15  C   UNL     1     -42.842  57.435 -56.785  1.00  0.00     0.002 A 
HETATM   16  C   UNL     1     -43.703  56.933 -55.797  1.00  0.00     0.001 A 
HETATM   17  C   UNL     1     -44.028  57.694 -54.669  1.00  0.00     0.012 A 
HETATM   18  N   UNL     1     -45.126  60.360 -53.303  1.00  0.00    -0.043 N 
HETATM   19  H   UNL     1     -45.622  60.067 -54.160  1.00  0.00     0.282 HD
HETATM   20  C   UNL     1     -45.638  59.558 -52.106  1.00  0.00     0.204 C 
HETATM   21  C   UNL     1     -45.504  61.803 -53.056  1.00  0.00     0.237 C 
HETATM   22  C   UNL     1     -46.842  61.654 -52.365  1.00  0.00     0.030 C 
HETATM   23  C   UNL     1     -46.586  60.521 -51.383  1.00  0.00     0.036 C 
HETATM   24  H   UNL     1     -41.641  61.313 -55.865  1.00  0.00     0.169 HD
ENDROOT
BRANCH   1  25
HETATM   25  C   UNL     1     -42.080  56.286 -51.247  1.00  0.00     0.048 A 
HETATM   26  C   UNL     1     -41.939  55.731 -49.964  1.00  0.00     0.066 A 
HETATM   27  C   UNL     1     -41.313  54.495 -49.750  1.00  0.00     0.070 A 
HETATM   28  C   UNL     1     -40.787  53.799 -50.831  1.00  0.00     0.037 A 
HETATM   29  C   UNL     1     -40.911  54.328 -52.115  1.00  0.00     0.005 A 
HETATM   30  C   UNL     1     -41.561  55.551 -52.321  1.00  0.00     0.030 A 
BRANCH  27  31
HETATM   31  O   UNL     1     -41.296  54.090 -48.444  1.00  0.00    -0.356 OA
HETATM   32  C   UNL     1     -40.022  53.864 -47.852  1.00  0.00     0.210 C 
ENDBRANCH  27  31
ENDBRANCH   1  25
TORSDOF 2
ENDMDL
MODEL 10
REMARK VINA RESULT:      -7.6      2.735      4.916
REMARK  2 active torsions:
REMARK  status: ('A' for Active; 'I' for Inactive)
REMARK    1  A    between atoms: O_2  and  C_3 
REMARK    2  A    between atoms: C_5  and  N_6 
ROOT
HETATM    1  N   UNL     1     -42.309  58.596 -55.456  1.00  0.00    -0.252 N 
HETATM    2  C   UNL     1     -41.555  58.803 -54.319  1.00  0.00     0.239 C 
HETATM    3  O   UNL     1     -40.998  59.810 -53.909  1.00  0.00    -0.272 OA
HETATM    4  C   UNL     1     -41.602  57.575 -53.473  1.00  0.00     0.145 C 
HETATM    5  C   UNL     1     -42.252  56.537 -54.357  1.00  0.00     0.126 C 
HETATM    6  C   UNL     1     -42.930  57.365 -55.411  1.00  0.00     0.238 C 
HETATM    7  O   UNL     1     -43.876  56.925 -56.046  1.00  0.00    -0.272 OA
HETATM    8  C   UNL     1     -42.478  57.720 -52.233  1.00  0.00     0.250 A 
HETATM    9  C   UNL     1     -41.611  58.154 -51.003  1.00  0.00     0.264 A 
HETATM   10  O   UNL     1     -40.642  57.557 -50.562  1.00  0.00    -0.270 OA
HETATM   11  N   UNL     1     -42.185  59.289 -50.463  1.00  0.00    -0.324 N 
HETATM   12  C   UNL     1     -43.329  59.656 -51.154  1.00  0.00     0.044 A 
HETATM   13  C   UNL     1     -43.577  58.765 -52.204  1.00  0.00     0.015 A 
HETATM   14  C   UNL     1     -44.156  60.719 -50.860  1.00  0.00     0.030 A 
HETATM   15  C   UNL     1     -45.295  60.882 -51.648  1.00  0.00     0.002 A 
HETATM   16  C   UNL     1     -45.577  59.986 -52.692  1.00  0.00     0.001 A 
HETATM   17  C   UNL     1     -44.722  58.916 -52.975  1.00  0.00     0.012 A 
HETATM   18  N   UNL     1     -43.096  56.315 -52.099  1.00  0.00    -0.043 N 
HETATM   19  H   UNL     1     -44.030  56.416 -51.671  1.00  0.00     0.282 HD
HETATM   20  C   UNL     1     -43.228  55.735 -53.507  1.00  0.00     0.204 C 
HETATM   21  C   UNL     1     -42.350  55.292 -51.274  1.00  0.00     0.237 C 
HETATM   22  C   UNL     1     -42.875  53.994 -51.848  1.00  0.00     0.030 C 
HETATM   23  C   UNL     1     -42.851  54.258 -53.345  1.00  0.00     0.036 C 
HETATM   24  H   UNL     1     -41.807  59.781 -49.662  1.00  0.00     0.169 HD
ENDROOT
BRANCH   1  25
HETATM   25  C   UNL     1     -42.515  59.589 -56.463  1.00  0.00     0.048 A 
HETATM   26  C   UNL     1     -42.019  59.406 -57.764  1.00  0.00     0.066 A 
HETATM   27  C   UNL     1     -42.243  60.340 -58.787  1.00  0.00     0.070 A 
HETATM   28  C   UNL     1     -42.955  61.499 -58.509  1.00  0.00     0.037 A 
HETATM   29  C   UNL     1     -43.457  61.707 -57.225  1.00  0.00     0.005 A 
HETATM   30  C   UNL     1     -43.250  60.757 -56.218  1.00  0.00     0.030 A 
BRANCH  27  31
HETATM   31  O   UNL     1     -41.719  59.985 -59.999  1.00  0.00    -0.356 OA
HETATM   32  C   UNL     1     -41.719  60.976 -61.020  1.00  0.00     0.210 C 
ENDBRANCH  27  31
ENDBRANCH   1  25
TORSDOF 2
ENDMDL
