MODEL 1
REMARK VINA RESULT:      -8.3      0.000      0.000
REMARK  7 active torsions:
REMARK  status: ('A' for Active; 'I' for Inactive)
REMARK    1  A    between atoms: O_2  and  C_3 
REMARK    2  A    between atoms: C_6  and  C_7 
REMARK    3  A    between atoms: C_7  and  C_8 
REMARK    4  A    between atoms: C_7  and  C_14 
REMARK    5  A    between atoms: C_14  and  C_15 
REMARK       I    between atoms: C_15  and  N_16 
REMARK    6  A    between atoms: N_16  and  C_17 
REMARK    7  A    between atoms: C_17  and  C_18 
ROOT
HETATM    1  C   UNL     1     -40.509  53.744 -52.343  1.00  0.00     0.060 C 
ENDROOT
BRANCH   1   2
HETATM    2  C   UNL     1     -41.269  54.402 -53.506  1.00  0.00    -0.049 A 
HETATM    3  C   UNL     1     -40.726  55.433 -54.289  1.00  0.00     0.010 A 
HETATM    4  C   UNL     1     -41.459  56.016 -55.328  1.00  0.00     0.037 A 
HETATM    5  C   UNL     1     -42.758  55.599 -55.610  1.00  0.00     0.068 A 
HETATM    6  C   UNL     1     -43.328  54.601 -54.826  1.00  0.00     0.037 A 
HETATM    7  C   UNL     1     -42.594  54.018 -53.783  1.00  0.00     0.010 A 
BRANCH   5   8
HETATM    8  O   UNL     1     -43.358  56.246 -56.654  1.00  0.00    -0.356 OA
HETATM    9  C   UNL     1     -43.192  55.674 -57.945  1.00  0.00     0.210 C 
ENDBRANCH   5   8
ENDBRANCH   1   2
BRANCH   1  10
HETATM   10  C   UNL     1     -40.125  52.279 -52.566  1.00  0.00    -0.049 A 
HETATM   11  C   UNL     1     -40.056  51.721 -53.854  1.00  0.00     0.008 A 
HETATM   12  C   UNL     1     -39.720  50.378 -54.031  1.00  0.00     0.001 A 
HETATM   13  C   UNL     1     -39.448  49.575 -52.926  1.00  0.00     0.000 A 
HETATM   14  C   UNL     1     -39.511  50.113 -51.643  1.00  0.00     0.001 A 
HETATM   15  C   UNL     1     -39.846  51.457 -51.462  1.00  0.00     0.008 A 
ENDBRANCH   1  10
BRANCH   1  16
HETATM   16  C   UNL     1     -41.242  53.927 -50.993  1.00  0.00     0.116 C 
BRANCH  16  17
HETATM   17  C   UNL     1     -41.803  55.317 -50.767  1.00  0.00     0.218 C 
HETATM   18  N   UNL     1     -40.938  56.347 -51.020  1.00  0.00    -0.355 N 
HETATM   19  H   UNL     1     -39.943  56.193 -51.131  1.00  0.00     0.162 HD
HETATM   20  O   UNL     1     -42.978  55.499 -50.452  1.00  0.00    -0.274 OA
BRANCH  18  21
HETATM   21  C   UNL     1     -41.286  57.712 -50.700  1.00  0.00     0.184 C 
BRANCH  21  22
HETATM   22  C   UNL     1     -41.633  58.432 -51.965  1.00  0.00     0.080 A 
HETATM   23  N   UNL     1     -40.781  59.329 -52.524  1.00  0.00    -0.177 NA
HETATM   24  N   UNL     1     -41.426  59.768 -53.636  1.00  0.00    -0.281 N 
HETATM   25  H   UNL     1     -40.972  60.460 -54.224  1.00  0.00     0.189 HD
HETATM   26  C   UNL     1     -42.626  59.173 -53.776  1.00  0.00     0.036 A 
HETATM   27  C   UNL     1     -42.795  58.318 -52.733  1.00  0.00    -0.006 A 
HETATM   28  C   UNL     1     -43.730  59.222 -54.741  1.00  0.00     0.059 C 
HETATM   29  C   UNL     1     -44.084  57.613 -52.807  1.00  0.00     0.043 C 
HETATM   30  C   UNL     1     -44.812  58.392 -53.963  1.00  0.00     0.011 C 
ENDBRANCH  21  22
ENDBRANCH  18  21
ENDBRANCH  16  17
ENDBRANCH   1  16
TORSDOF 7
ENDMDL
MODEL 2
REMARK VINA RESULT:      -8.3      1.355      2.021
REMARK  7 active torsions:
REMARK  status: ('A' for Active; 'I' for Inactive)
REMARK    1  A    between atoms: O_2  and  C_3 
REMARK    2  A    between atoms: C_6  and  C_7 
REMARK    3  A    between atoms: C_7  and  C_8 
REMARK    4  A    between atoms: C_7  and  C_14 
REMARK    5  A    between atoms: C_14  and  C_15 
REMARK       I    between atoms: C_15  and  N_16 
REMARK    6  A    between atoms: N_16  and  C_17 
REMARK    7  A    between atoms: C_17  and  C_18 
ROOT
HETATM    1  C   UNL     1     -40.768  53.501 -52.229  1.00  0.00     0.060 C 
ENDROOT
BRANCH   1   2
HETATM    2  C   UNL     1     -41.374  54.193 -53.461  1.00  0.00    -0.049 A 
HETATM    3  C   UNL     1     -42.615  53.833 -54.008  1.00  0.00     0.010 A 
HETATM    4  C   UNL     1     -43.122  54.478 -55.142  1.00  0.00     0.037 A 
HETATM    5  C   UNL     1     -42.402  55.492 -55.770  1.00  0.00     0.068 A 
HETATM    6  C   UNL     1     -41.155  55.842 -55.264  1.00  0.00     0.037 A 
HETATM    7  C   UNL     1     -40.645  55.194 -54.130  1.00  0.00     0.010 A 
BRANCH   5   8
HETATM    8  O   UNL     1     -43.014  56.042 -56.862  1.00  0.00    -0.356 OA
HETATM    9  C   UNL     1     -42.566  57.329 -57.268  1.00  0.00     0.210 C 
ENDBRANCH   5   8
ENDBRANCH   1   2
BRANCH   1  10
HETATM   10  C   UNL     1     -40.241  52.085 -52.474  1.00  0.00    -0.049 A 
HETATM   11  C   UNL     1     -40.103  51.562 -53.771  1.00  0.00     0.008 A 
HETATM   12  C   UNL     1     -39.636  50.262 -53.969  1.00  0.00     0.001 A 
HETATM   13  C   UNL     1     -39.301  49.466 -52.876  1.00  0.00     0.000 A 
HETATM   14  C   UNL     1     -39.432  49.970 -51.583  1.00  0.00     0.001 A 
HETATM   15  C   UNL     1     -39.897  51.271 -51.382  1.00  0.00     0.008 A 
ENDBRANCH   1  10
BRANCH   1  16
HETATM   16  C   UNL     1     -41.727  53.535 -51.015  1.00  0.00     0.116 C 
BRANCH  16  17
HETATM   17  C   UNL     1     -42.206  54.921 -50.632  1.00  0.00     0.218 C 
HETATM   18  N   UNL     1     -43.477  55.234 -51.033  1.00  0.00    -0.355 N 
HETATM   19  H   UNL     1     -43.972  54.677 -51.718  1.00  0.00     0.162 HD
HETATM   20  O   UNL     1     -41.522  55.676 -49.943  1.00  0.00    -0.274 OA
BRANCH  18  21
HETATM   21  C   UNL     1     -44.004  56.569 -50.874  1.00  0.00     0.184 C 
BRANCH  21  22
HETATM   22  C   UNL     1     -43.715  57.354 -52.114  1.00  0.00     0.080 A 
HETATM   23  N   UNL     1     -44.646  57.500 -53.092  1.00  0.00    -0.177 NA
HETATM   24  N   UNL     1     -44.034  58.257 -54.038  1.00  0.00    -0.281 N 
HETATM   25  H   UNL     1     -44.549  58.498 -54.880  1.00  0.00     0.189 HD
HETATM   26  C   UNL     1     -42.779  58.580 -53.676  1.00  0.00     0.036 A 
HETATM   27  C   UNL     1     -42.537  58.023 -52.459  1.00  0.00    -0.006 A 
HETATM   28  C   UNL     1     -41.673  59.355 -54.250  1.00  0.00     0.059 C 
HETATM   29  C   UNL     1     -41.182  58.330 -51.976  1.00  0.00     0.043 C 
HETATM   30  C   UNL     1     -40.522  58.970 -53.252  1.00  0.00     0.011 C 
ENDBRANCH  21  22
ENDBRANCH  18  21
ENDBRANCH  16  17
ENDBRANCH   1  16
TORSDOF 7
ENDMDL
MODEL 3
REMARK VINA RESULT:      -7.8      1.830      3.910
REMARK  7 active torsions:
REMARK  status: ('A' for Active; 'I' for Inactive)
REMARK    1  A    between atoms: O_2  and  C_3 
REMARK    2  A    between atoms: C_6  and  C_7 
REMARK    3  A    between atoms: C_7  and  C_8 
REMARK    4  A    between atoms: C_7  and  C_14 
REMARK    5  A    between atoms: C_14  and  C_15 
REMARK       I    between atoms: C_15  and  N_16 
REMARK    6  A    between atoms: N_16  and  C_17 
REMARK    7  A    between atoms: C_17  and  C_18 
ROOT
HETATM    1  C   UNL     1     -41.876  54.248 -53.982  1.00  0.00     0.060 C 
ENDROOT
BRANCH   1   2
HETATM    2  C   UNL     1     -41.959  55.524 -53.128  1.00  0.00    -0.049 A 
HETATM    3  C   UNL     1     -41.034  56.574 -53.231  1.00  0.00     0.010 A 
HETATM    4  C   UNL     1     -41.137  57.711 -52.421  1.00  0.00     0.037 A 
HETATM    5  C   UNL     1     -42.155  57.830 -51.478  1.00  0.00     0.068 A 
HETATM    6  C   UNL     1     -43.063  56.785 -51.337  1.00  0.00     0.037 A 
HETATM    7  C   UNL     1     -42.959  55.645 -52.146  1.00  0.00     0.010 A 
BRANCH   5   8
HETATM    8  O   UNL     1     -42.144  58.993 -50.760  1.00  0.00    -0.356 OA
HETATM    9  C   UNL     1     -40.900  59.674 -50.662  1.00  0.00     0.210 C 
ENDBRANCH   5   8
ENDBRANCH   1   2
BRANCH   1  10
HETATM   10  C   UNL     1     -41.006  53.132 -53.399  1.00  0.00    -0.049 A 
HETATM   11  C   UNL     1     -40.605  53.135 -52.051  1.00  0.00     0.008 A 
HETATM   12  C   UNL     1     -39.798  52.115 -51.546  1.00  0.00     0.001 A 
HETATM   13  C   UNL     1     -39.379  51.079 -52.377  1.00  0.00     0.000 A 
HETATM   14  C   UNL     1     -39.767  51.062 -53.715  1.00  0.00     0.001 A 
HETATM   15  C   UNL     1     -40.577  52.080 -54.223  1.00  0.00     0.008 A 
ENDBRANCH   1  10
BRANCH   1  16
HETATM   16  C   UNL     1     -41.479  54.554 -55.446  1.00  0.00     0.116 C 
BRANCH  16  17
HETATM   17  C   UNL     1     -42.373  55.561 -56.141  1.00  0.00     0.218 C 
HETATM   18  N   UNL     1     -41.744  56.687 -56.600  1.00  0.00    -0.355 N 
HETATM   19  H   UNL     1     -40.806  56.931 -56.305  1.00  0.00     0.162 HD
HETATM   20  O   UNL     1     -43.566  55.339 -56.342  1.00  0.00    -0.274 OA
BRANCH  18  21
HETATM   21  C   UNL     1     -42.494  57.796 -57.141  1.00  0.00     0.184 C 
BRANCH  21  22
HETATM   22  C   UNL     1     -42.632  58.847 -56.086  1.00  0.00     0.080 A 
HETATM   23  N   UNL     1     -41.748  59.874 -55.990  1.00  0.00    -0.177 NA
HETATM   24  N   UNL     1     -42.188  60.608 -54.936  1.00  0.00    -0.281 N 
HETATM   25  H   UNL     1     -41.671  61.442 -54.671  1.00  0.00     0.189 HD
HETATM   26  C   UNL     1     -43.298  60.076 -54.393  1.00  0.00     0.036 A 
HETATM   27  C   UNL     1     -43.612  58.954 -55.095  1.00  0.00    -0.006 A 
HETATM   28  C   UNL     1     -44.205  60.406 -53.288  1.00  0.00     0.059 C 
HETATM   29  C   UNL     1     -44.824  58.304 -54.574  1.00  0.00     0.043 C 
HETATM   30  C   UNL     1     -45.063  59.092 -53.234  1.00  0.00     0.011 C 
ENDBRANCH  21  22
ENDBRANCH  18  21
ENDBRANCH  16  17
ENDBRANCH   1  16
TORSDOF 7
ENDMDL
MODEL 4
REMARK VINA RESULT:      -7.8      2.159      5.993
REMARK  7 active torsions:
REMARK  status: ('A' for Active; 'I' for Inactive)
REMARK    1  A    between atoms: O_2  and  C_3 
REMARK    2  A    between atoms: C_6  and  C_7 
REMARK    3  A    between atoms: C_7  and  C_8 
REMARK    4  A    between atoms: C_7  and  C_14 
REMARK    5  A    between atoms: C_14  and  C_15 
REMARK       I    between atoms: C_15  and  N_16 
REMARK    6  A    between atoms: N_16  and  C_17 
REMARK    7  A    between atoms: C_17  and  C_18 
ROOT
HETATM    1  C   UNL     1     -43.139  56.495 -56.073  1.00  0.00     0.060 C 
ENDROOT
BRANCH   1   2
HETATM    2  C   UNL     1     -42.315  55.359 -55.445  1.00  0.00    -0.049 A 
HETATM    3  C   UNL     1     -42.897  54.208 -54.891  1.00  0.00     0.010 A 
HETATM    4  C   UNL     1     -42.109  53.206 -54.313  1.00  0.00     0.037 A 
HETATM    5  C   UNL     1     -40.722  53.326 -54.261  1.00  0.00     0.068 A 
HETATM    6  C   UNL     1     -40.128  54.473 -54.775  1.00  0.00     0.037 A 
HETATM    7  C   UNL     1     -40.916  55.479 -55.351  1.00  0.00     0.010 A 
BRANCH   5   8
HETATM    8  O   UNL     1     -40.074  52.273 -53.677  1.00  0.00    -0.356 OA
HETATM    9  C   UNL     1     -40.246  50.998 -54.282  1.00  0.00     0.210 C 
ENDBRANCH   5   8
ENDBRANCH   1   2
BRANCH   1  10
HETATM   10  C   UNL     1     -42.835  56.779 -57.546  1.00  0.00    -0.049 A 
HETATM   11  C   UNL     1     -43.114  55.839 -58.553  1.00  0.00     0.008 A 
HETATM   12  C   UNL     1     -42.813  56.115 -59.887  1.00  0.00     0.001 A 
HETATM   13  C   UNL     1     -42.229  57.330 -60.235  1.00  0.00     0.000 A 
HETATM   14  C   UNL     1     -41.946  58.272 -59.249  1.00  0.00     0.001 A 
HETATM   15  C   UNL     1     -42.248  58.001 -57.913  1.00  0.00     0.008 A 
ENDBRANCH   1  10
BRANCH   1  16
HETATM   16  C   UNL     1     -43.076  57.792 -55.232  1.00  0.00     0.116 C 
BRANCH  16  17
HETATM   17  C   UNL     1     -43.856  57.737 -53.934  1.00  0.00     0.218 C 
HETATM   18  N   UNL     1     -43.191  58.198 -52.830  1.00  0.00    -0.355 N 
HETATM   19  H   UNL     1     -42.190  58.352 -52.836  1.00  0.00     0.162 HD
HETATM   20  O   UNL     1     -45.030  57.374 -53.898  1.00  0.00    -0.274 OA
BRANCH  18  21
HETATM   21  C   UNL     1     -43.754  58.061 -51.507  1.00  0.00     0.184 C 
BRANCH  21  22
HETATM   22  C   UNL     1     -43.648  56.630 -51.082  1.00  0.00     0.080 A 
HETATM   23  N   UNL     1     -44.724  55.951 -50.609  1.00  0.00    -0.177 NA
HETATM   24  N   UNL     1     -44.251  54.709 -50.331  1.00  0.00    -0.281 N 
HETATM   25  H   UNL     1     -44.890  54.014 -49.957  1.00  0.00     0.189 HD
HETATM   26  C   UNL     1     -42.941  54.604 -50.620  1.00  0.00     0.036 A 
HETATM   27  C   UNL     1     -42.519  55.805 -51.098  1.00  0.00    -0.006 A 
HETATM   28  C   UNL     1     -41.917  53.555 -50.550  1.00  0.00     0.059 C 
HETATM   29  C   UNL     1     -41.091  55.784 -51.448  1.00  0.00     0.043 C 
HETATM   30  C   UNL     1     -40.630  54.407 -50.845  1.00  0.00     0.011 C 
ENDBRANCH  21  22
ENDBRANCH  18  21
ENDBRANCH  16  17
ENDBRANCH   1  16
TORSDOF 7
ENDMDL
MODEL 5
REMARK VINA RESULT:      -7.6      1.370      1.771
REMARK  7 active torsions:
REMARK  status: ('A' for Active; 'I' for Inactive)
REMARK    1  A    between atoms: O_2  and  C_3 
REMARK    2  A    between atoms: C_6  and  C_7 
REMARK    3  A    between atoms: C_7  and  C_8 
REMARK    4  A    between atoms: C_7  and  C_14 
REMARK    5  A    between atoms: C_14  and  C_15 
REMARK       I    between atoms: C_15  and  N_16 
REMARK    6  A    between atoms: N_16  and  C_17 
REMARK    7  A    between atoms: C_17  and  C_18 
ROOT
HETATM    1  C   UNL     1     -41.349  54.172 -52.668  1.00  0.00     0.060 C 
ENDROOT
BRANCH   1   2
HETATM    2  C   UNL     1     -41.703  54.927 -53.959  1.00  0.00    -0.049 A 
HETATM    3  C   UNL     1     -41.179  56.191 -54.274  1.00  0.00     0.010 A 
HETATM    4  C   UNL     1     -41.541  56.852 -55.453  1.00  0.00     0.037 A 
HETATM    5  C   UNL     1     -42.443  56.279 -56.347  1.00  0.00     0.068 A 
HETATM    6  C   UNL     1     -42.999  55.042 -56.039  1.00  0.00     0.037 A 
HETATM    7  C   UNL     1     -42.639  54.381 -54.856  1.00  0.00     0.010 A 
BRANCH   5   8
HETATM    8  O   UNL     1     -42.704  57.027 -57.462  1.00  0.00    -0.356 OA
HETATM    9  C   UNL     1     -43.910  56.742 -58.157  1.00  0.00     0.210 C 
ENDBRANCH   5   8
ENDBRANCH   1   2
BRANCH   1  10
HETATM   10  C   UNL     1     -40.694  52.804 -52.875  1.00  0.00    -0.049 A 
HETATM   11  C   UNL     1     -40.052  52.126 -51.825  1.00  0.00     0.008 A 
HETATM   12  C   UNL     1     -39.447  50.888 -52.042  1.00  0.00     0.001 A 
HETATM   13  C   UNL     1     -39.474  50.309 -53.309  1.00  0.00     0.000 A 
HETATM   14  C   UNL     1     -40.107  50.969 -54.360  1.00  0.00     0.001 A 
HETATM   15  C   UNL     1     -40.715  52.207 -54.146  1.00  0.00     0.008 A 
ENDBRANCH   1  10
BRANCH   1  16
HETATM   16  C   UNL     1     -42.557  54.069 -51.706  1.00  0.00     0.116 C 
BRANCH  16  17
HETATM   17  C   UNL     1     -42.952  55.378 -51.052  1.00  0.00     0.218 C 
HETATM   18  N   UNL     1     -44.138  55.913 -51.477  1.00  0.00    -0.355 N 
HETATM   19  H   UNL     1     -44.602  55.583 -52.314  1.00  0.00     0.162 HD
HETATM   20  O   UNL     1     -42.284  55.878 -50.148  1.00  0.00    -0.274 OA
BRANCH  18  21
HETATM   21  C   UNL     1     -44.559  57.228 -51.055  1.00  0.00     0.184 C 
BRANCH  21  22
HETATM   22  C   UNL     1     -43.925  58.249 -51.947  1.00  0.00     0.080 A 
HETATM   23  N   UNL     1     -42.958  59.085 -51.490  1.00  0.00    -0.177 NA
HETATM   24  N   UNL     1     -42.632  59.852 -52.562  1.00  0.00    -0.281 N 
HETATM   25  H   UNL     1     -41.917  60.565 -52.454  1.00  0.00     0.189 HD
HETATM   26  C   UNL     1     -43.355  59.515 -53.646  1.00  0.00     0.036 A 
HETATM   27  C   UNL     1     -44.189  58.501 -53.296  1.00  0.00    -0.006 A 
HETATM   28  C   UNL     1     -43.444  59.956 -55.043  1.00  0.00     0.059 C 
HETATM   29  C   UNL     1     -45.019  58.059 -54.428  1.00  0.00     0.043 C 
HETATM   30  C   UNL     1     -44.731  59.178 -55.495  1.00  0.00     0.011 C 
ENDBRANCH  21  22
ENDBRANCH  18  21
ENDBRANCH  16  17
ENDBRANCH   1  16
TORSDOF 7
ENDMDL
MODEL 6
REMARK VINA RESULT:      -7.6      3.368      6.581
REMARK  7 active torsions:
REMARK  status: ('A' for Active; 'I' for Inactive)
REMARK    1  A    between atoms: O_2  and  C_3 
REMARK    2  A    between atoms: C_6  and  C_7 
REMARK    3  A    between atoms: C_7  and  C_8 
REMARK    4  A    between atoms: C_7  and  C_14 
REMARK    5  A    between atoms: C_14  and  C_15 
REMARK       I    between atoms: C_15  and  N_16 
REMARK    6  A    between atoms: N_16  and  C_17 
REMARK    7  A    between atoms: C_17  and  C_18 
ROOT
HETATM    1  C   UNL     1     -41.386  55.210 -54.247  1.00  0.00     0.060 C 
ENDROOT
BRANCH   1   2
HETATM    2  C   UNL     1     -40.819  53.916 -53.640  1.00  0.00    -0.049 A 
HETATM    3  C   UNL     1     -40.533  53.773 -52.273  1.00  0.00     0.010 A 
HETATM    4  C   UNL     1     -40.001  52.583 -51.765  1.00  0.00     0.037 A 
HETATM    5  C   UNL     1     -39.727  51.505 -52.605  1.00  0.00     0.068 A 
HETATM    6  C   UNL     1     -39.972  51.637 -53.968  1.00  0.00     0.037 A 
HETATM    7  C   UNL     1     -40.502  52.830 -54.477  1.00  0.00     0.010 A 
BRANCH   5   8
HETATM    8  O   UNL     1     -39.216  50.402 -51.979  1.00  0.00    -0.356 OA
HETATM    9  C   UNL     1     -39.769  50.070 -50.712  1.00  0.00     0.210 C 
ENDBRANCH   5   8
ENDBRANCH   1   2
BRANCH   1  10
HETATM   10  C   UNL     1     -41.674  56.326 -53.241  1.00  0.00    -0.049 A 
HETATM   11  C   UNL     1     -42.793  56.285 -52.391  1.00  0.00     0.008 A 
HETATM   12  C   UNL     1     -43.044  57.323 -51.493  1.00  0.00     0.001 A 
HETATM   13  C   UNL     1     -42.183  58.416 -51.430  1.00  0.00     0.000 A 
HETATM   14  C   UNL     1     -41.069  58.472 -52.265  1.00  0.00     0.001 A 
HETATM   15  C   UNL     1     -40.814  57.434 -53.163  1.00  0.00     0.008 A 
ENDBRANCH   1  10
BRANCH   1  16
HETATM   16  C   UNL     1     -42.618  54.939 -55.144  1.00  0.00     0.116 C 
BRANCH  16  17
HETATM   17  C   UNL     1     -42.959  56.067 -56.098  1.00  0.00     0.218 C 
HETATM   18  N   UNL     1     -42.413  55.964 -57.348  1.00  0.00    -0.355 N 
HETATM   19  H   UNL     1     -41.665  55.311 -57.551  1.00  0.00     0.162 HD
HETATM   20  O   UNL     1     -43.736  56.967 -55.785  1.00  0.00    -0.274 OA
BRANCH  18  21
HETATM   21  C   UNL     1     -42.526  57.039 -58.305  1.00  0.00     0.184 C 
BRANCH  21  22
HETATM   22  C   UNL     1     -43.637  56.724 -59.258  1.00  0.00     0.080 A 
HETATM   23  N   UNL     1     -43.432  55.945 -60.351  1.00  0.00    -0.177 NA
HETATM   24  N   UNL     1     -44.643  55.886 -60.961  1.00  0.00    -0.281 N 
HETATM   25  H   UNL     1     -44.733  55.348 -61.818  1.00  0.00     0.189 HD
HETATM   26  C   UNL     1     -45.571  56.588 -60.285  1.00  0.00     0.036 A 
HETATM   27  C   UNL     1     -44.970  57.138 -59.197  1.00  0.00    -0.006 A 
HETATM   28  C   UNL     1     -47.002  56.879 -60.434  1.00  0.00     0.059 C 
HETATM   29  C   UNL     1     -45.915  57.924 -58.389  1.00  0.00     0.043 C 
HETATM   30  C   UNL     1     -47.175  57.982 -59.329  1.00  0.00     0.011 C 
ENDBRANCH  21  22
ENDBRANCH  18  21
ENDBRANCH  16  17
ENDBRANCH   1  16
TORSDOF 7
ENDMDL
MODEL 7
REMARK VINA RESULT:      -7.5      2.245      5.564
REMARK  7 active torsions:
REMARK  status: ('A' for Active; 'I' for Inactive)
REMARK    1  A    between atoms: O_2  and  C_3 
REMARK    2  A    between atoms: C_6  and  C_7 
REMARK    3  A    between atoms: C_7  and  C_8 
REMARK    4  A    between atoms: C_7  and  C_14 
REMARK    5  A    between atoms: C_14  and  C_15 
REMARK       I    between atoms: C_15  and  N_16 
REMARK    6  A    between atoms: N_16  and  C_17 
REMARK    7  A    between atoms: C_17  and  C_18 
ROOT
HETATM    1  C   UNL     1     -41.602  55.160 -54.353  1.00  0.00     0.060 C 
ENDROOT
BRANCH   1   2
HETATM    2  C   UNL     1     -40.950  53.947 -53.668  1.00  0.00    -0.049 A 
HETATM    3  C   UNL     1     -40.717  53.884 -52.285  1.00  0.00     0.010 A 
HETATM    4  C   UNL     1     -40.105  52.767 -51.705  1.00  0.00     0.037 A 
HETATM    5  C   UNL     1     -39.697  51.687 -52.486  1.00  0.00     0.068 A 
HETATM    6  C   UNL     1     -39.890  51.744 -53.862  1.00  0.00     0.037 A 
HETATM    7  C   UNL     1     -40.500  52.863 -54.444  1.00  0.00     0.010 A 
BRANCH   5   8
HETATM    8  O   UNL     1     -39.120  50.660 -51.792  1.00  0.00    -0.356 OA
HETATM    9  C   UNL     1     -39.838  50.159 -50.672  1.00  0.00     0.210 C 
ENDBRANCH   5   8
ENDBRANCH   1   2
BRANCH   1  10
HETATM   10  C   UNL     1     -42.162  56.219 -53.401  1.00  0.00    -0.049 A 
HETATM   11  C   UNL     1     -41.401  57.333 -53.006  1.00  0.00     0.008 A 
HETATM   12  C   UNL     1     -41.927  58.278 -52.123  1.00  0.00     0.001 A 
HETATM   13  C   UNL     1     -43.218  58.123 -51.622  1.00  0.00     0.000 A 
HETATM   14  C   UNL     1     -43.984  57.024 -52.004  1.00  0.00     0.001 A 
HETATM   15  C   UNL     1     -43.462  56.079 -52.889  1.00  0.00     0.008 A 
ENDBRANCH   1  10
BRANCH   1  16
HETATM   16  C   UNL     1     -42.662  54.736 -55.398  1.00  0.00     0.116 C 
BRANCH  16  17
HETATM   17  C   UNL     1     -42.742  55.640 -56.612  1.00  0.00     0.218 C 
HETATM   18  N   UNL     1     -42.076  56.830 -56.503  1.00  0.00    -0.355 N 
HETATM   19  H   UNL     1     -41.747  57.177 -55.610  1.00  0.00     0.162 HD
HETATM   20  O   UNL     1     -43.304  55.287 -57.647  1.00  0.00    -0.274 OA
BRANCH  18  21
HETATM   21  C   UNL     1     -42.195  57.851 -57.518  1.00  0.00     0.184 C 
BRANCH  21  22
HETATM   22  C   UNL     1     -42.388  59.176 -56.851  1.00  0.00     0.080 A 
HETATM   23  N   UNL     1     -41.582  60.232 -57.129  1.00  0.00    -0.177 NA
HETATM   24  N   UNL     1     -42.053  61.239 -56.348  1.00  0.00    -0.281 N 
HETATM   25  H   UNL     1     -41.594  62.144 -56.388  1.00  0.00     0.189 HD
HETATM   26  C   UNL     1     -43.109  60.841 -55.615  1.00  0.00     0.036 A 
HETATM   27  C   UNL     1     -43.353  59.535 -55.905  1.00  0.00    -0.006 A 
HETATM   28  C   UNL     1     -44.014  61.453 -54.636  1.00  0.00     0.059 C 
HETATM   29  C   UNL     1     -44.502  59.013 -55.150  1.00  0.00     0.043 C 
HETATM   30  C   UNL     1     -44.771  60.175 -54.125  1.00  0.00     0.011 C 
ENDBRANCH  21  22
ENDBRANCH  18  21
ENDBRANCH  16  17
ENDBRANCH   1  16
TORSDOF 7
ENDMDL
MODEL 8
REMARK VINA RESULT:      -7.4      3.294      5.690
REMARK  7 active torsions:
REMARK  status: ('A' for Active; 'I' for Inactive)
REMARK    1  A    between atoms: O_2  and  C_3 
REMARK    2  A    between atoms: C_6  and  C_7 
REMARK    3  A    between atoms: C_7  and  C_8 
REMARK    4  A    between atoms: C_7  and  C_14 
REMARK    5  A    between atoms: C_14  and  C_15 
REMARK       I    between atoms: C_15  and  N_16 
REMARK    6  A    between atoms: N_16  and  C_17 
REMARK    7  A    between atoms: C_17  and  C_18 
ROOT
HETATM    1  C   UNL     1     -41.919  54.528 -53.978  1.00  0.00     0.060 C 
ENDROOT
BRANCH   1   2
HETATM    2  C   UNL     1     -41.924  55.793 -53.104  1.00  0.00    -0.049 A 
HETATM    3  C   UNL     1     -42.916  56.058 -52.147  1.00  0.00     0.010 A 
HETATM    4  C   UNL     1     -42.892  57.231 -51.384  1.00  0.00     0.037 A 
HETATM    5  C   UNL     1     -41.887  58.179 -51.561  1.00  0.00     0.068 A 
HETATM    6  C   UNL     1     -40.913  57.953 -52.527  1.00  0.00     0.037 A 
HETATM    7  C   UNL     1     -40.938  56.779 -53.293  1.00  0.00     0.010 A 
BRANCH   5   8
HETATM    8  O   UNL     1     -41.978  59.275 -50.747  1.00  0.00    -0.356 OA
HETATM    9  C   UNL     1     -40.762  59.776 -50.208  1.00  0.00     0.210 C 
ENDBRANCH   5   8
ENDBRANCH   1   2
BRANCH   1  10
HETATM   10  C   UNL     1     -41.041  53.387 -53.460  1.00  0.00    -0.049 A 
HETATM   11  C   UNL     1     -40.607  52.348 -54.303  1.00  0.00     0.008 A 
HETATM   12  C   UNL     1     -39.821  51.309 -53.805  1.00  0.00     0.001 A 
HETATM   13  C   UNL     1     -39.458  51.290 -52.460  1.00  0.00     0.000 A 
HETATM   14  C   UNL     1     -39.880  52.311 -51.612  1.00  0.00     0.001 A 
HETATM   15  C   UNL     1     -40.665  53.354 -52.108  1.00  0.00     0.008 A 
ENDBRANCH   1  10
BRANCH   1  16
HETATM   16  C   UNL     1     -41.601  54.847 -55.458  1.00  0.00     0.116 C 
BRANCH  16  17
HETATM   17  C   UNL     1     -42.600  55.768 -56.131  1.00  0.00     0.218 C 
HETATM   18  N   UNL     1     -42.305  56.111 -57.422  1.00  0.00    -0.355 N 
HETATM   19  H   UNL     1     -41.388  55.948 -57.821  1.00  0.00     0.162 HD
HETATM   20  O   UNL     1     -43.639  56.115 -55.573  1.00  0.00    -0.274 OA
BRANCH  18  21
HETATM   21  C   UNL     1     -43.083  57.100 -58.130  1.00  0.00     0.184 C 
BRANCH  21  22
HETATM   22  C   UNL     1     -44.095  56.402 -58.982  1.00  0.00     0.080 A 
HETATM   23  N   UNL     1     -43.933  55.106 -59.355  1.00  0.00    -0.177 NA
HETATM   24  N   UNL     1     -45.030  54.826 -60.105  1.00  0.00    -0.281 N 
HETATM   25  H   UNL     1     -45.127  53.896 -60.501  1.00  0.00     0.189 HD
HETATM   26  C   UNL     1     -45.848  55.890 -60.199  1.00  0.00     0.036 A 
HETATM   27  C   UNL     1     -45.289  56.913 -59.500  1.00  0.00    -0.006 A 
HETATM   28  C   UNL     1     -47.136  56.188 -60.838  1.00  0.00     0.059 C 
HETATM   29  C   UNL     1     -46.122  58.124 -59.540  1.00  0.00     0.043 C 
HETATM   30  C   UNL     1     -47.192  57.744 -60.629  1.00  0.00     0.011 C 
ENDBRANCH  21  22
ENDBRANCH  18  21
ENDBRANCH  16  17
ENDBRANCH   1  16
TORSDOF 7
ENDMDL
MODEL 9
REMARK VINA RESULT:      -7.4      3.117      5.331
REMARK  7 active torsions:
REMARK  status: ('A' for Active; 'I' for Inactive)
REMARK    1  A    between atoms: O_2  and  C_3 
REMARK    2  A    between atoms: C_6  and  C_7 
REMARK    3  A    between atoms: C_7  and  C_8 
REMARK    4  A    between atoms: C_7  and  C_14 
REMARK    5  A    between atoms: C_14  and  C_15 
REMARK       I    between atoms: C_15  and  N_16 
REMARK    6  A    between atoms: N_16  and  C_17 
REMARK    7  A    between atoms: C_17  and  C_18 
ROOT
HETATM    1  C   UNL     1     -41.765  54.928 -53.901  1.00  0.00     0.060 C 
ENDROOT
BRANCH   1   2
HETATM    2  C   UNL     1     -41.745  56.155 -52.975  1.00  0.00    -0.049 A 
HETATM    3  C   UNL     1     -42.685  56.357 -51.952  1.00  0.00     0.010 A 
HETATM    4  C   UNL     1     -42.640  57.497 -51.142  1.00  0.00     0.037 A 
HETATM    5  C   UNL     1     -41.666  58.474 -51.334  1.00  0.00     0.068 A 
HETATM    6  C   UNL     1     -40.744  58.310 -52.363  1.00  0.00     0.037 A 
HETATM    7  C   UNL     1     -40.791  57.169 -53.176  1.00  0.00     0.010 A 
BRANCH   5   8
HETATM    8  O   UNL     1     -41.731  59.532 -50.471  1.00  0.00    -0.356 OA
HETATM    9  C   UNL     1     -42.682  60.546 -50.769  1.00  0.00     0.210 C 
ENDBRANCH   5   8
ENDBRANCH   1   2
BRANCH   1  10
HETATM   10  C   UNL     1     -40.957  53.727 -53.405  1.00  0.00    -0.049 A 
HETATM   11  C   UNL     1     -40.575  52.686 -54.268  1.00  0.00     0.008 A 
HETATM   12  C   UNL     1     -39.852  51.593 -53.789  1.00  0.00     0.001 A 
HETATM   13  C   UNL     1     -39.503  51.522 -52.443  1.00  0.00     0.000 A 
HETATM   14  C   UNL     1     -39.874  52.546 -51.574  1.00  0.00     0.001 A 
HETATM   15  C   UNL     1     -40.595  53.642 -52.050  1.00  0.00     0.008 A 
ENDBRANCH   1  10
BRANCH   1  16
HETATM   16  C   UNL     1     -41.383  55.292 -55.356  1.00  0.00     0.116 C 
BRANCH  16  17
HETATM   17  C   UNL     1     -42.532  55.817 -56.194  1.00  0.00     0.218 C 
HETATM   18  N   UNL     1     -42.548  55.396 -57.496  1.00  0.00    -0.355 N 
HETATM   19  H   UNL     1     -41.742  54.956 -57.924  1.00  0.00     0.162 HD
HETATM   20  O   UNL     1     -43.425  56.509 -55.709  1.00  0.00    -0.274 OA
BRANCH  18  21
HETATM   21  C   UNL     1     -43.491  55.938 -58.446  1.00  0.00     0.184 C 
BRANCH  21  22
HETATM   22  C   UNL     1     -42.831  57.045 -59.206  1.00  0.00     0.080 A 
HETATM   23  N   UNL     1     -42.136  56.804 -60.347  1.00  0.00    -0.177 NA
HETATM   24  N   UNL     1     -41.691  58.025 -60.742  1.00  0.00    -0.281 N 
HETATM   25  H   UNL     1     -41.135  58.092 -61.589  1.00  0.00     0.189 HD
HETATM   26  C   UNL     1     -42.088  58.992 -59.896  1.00  0.00     0.036 A 
HETATM   27  C   UNL     1     -42.814  58.410 -58.904  1.00  0.00    -0.006 A 
HETATM   28  C   UNL     1     -41.937  60.449 -59.799  1.00  0.00     0.059 C 
HETATM   29  C   UNL     1     -43.300  59.398 -57.929  1.00  0.00     0.043 C 
HETATM   30  C   UNL     1     -42.510  60.689 -58.357  1.00  0.00     0.011 C 
ENDBRANCH  21  22
ENDBRANCH  18  21
ENDBRANCH  16  17
ENDBRANCH   1  16
TORSDOF 7
ENDMDL
MODEL 10
REMARK VINA RESULT:      -7.3      2.961      6.228
REMARK  7 active torsions:
REMARK  status: ('A' for Active; 'I' for Inactive)
REMARK    1  A    between atoms: O_2  and  C_3 
REMARK    2  A    between atoms: C_6  and  C_7 
REMARK    3  A    between atoms: C_7  and  C_8 
REMARK    4  A    between atoms: C_7  and  C_14 
REMARK    5  A    between atoms: C_14  and  C_15 
REMARK       I    between atoms: C_15  and  N_16 
REMARK    6  A    between atoms: N_16  and  C_17 
REMARK    7  A    between atoms: C_17  and  C_18 
ROOT
HETATM    1  C   UNL     1     -41.801  55.980 -53.811  1.00  0.00     0.060 C 
ENDROOT
BRANCH   1   2
HETATM    2  C   UNL     1     -41.185  54.587 -53.604  1.00  0.00    -0.049 A 
HETATM    3  C   UNL     1     -40.913  54.051 -52.335  1.00  0.00     0.010 A 
HETATM    4  C   UNL     1     -40.336  52.785 -52.192  1.00  0.00     0.037 A 
HETATM    5  C   UNL     1     -40.002  52.020 -53.308  1.00  0.00     0.068 A 
HETATM    6  C   UNL     1     -40.232  52.545 -54.575  1.00  0.00     0.037 A 
HETATM    7  C   UNL     1     -40.808  53.815 -54.719  1.00  0.00     0.010 A 
BRANCH   5   8
HETATM    8  O   UNL     1     -39.452  50.800 -53.027  1.00  0.00    -0.356 OA
HETATM    9  C   UNL     1     -39.548  49.805 -54.038  1.00  0.00     0.210 C 
ENDBRANCH   5   8
ENDBRANCH   1   2
BRANCH   1  10
HETATM   10  C   UNL     1     -41.297  57.061 -52.852  1.00  0.00    -0.049 A 
HETATM   11  C   UNL     1     -40.452  58.097 -53.284  1.00  0.00     0.008 A 
HETATM   12  C   UNL     1     -39.992  59.062 -52.387  1.00  0.00     0.001 A 
HETATM   13  C   UNL     1     -40.369  59.007 -51.047  1.00  0.00     0.000 A 
HETATM   14  C   UNL     1     -41.206  57.986 -50.603  1.00  0.00     0.001 A 
HETATM   15  C   UNL     1     -41.670  57.020 -51.498  1.00  0.00     0.008 A 
ENDBRANCH   1  10
BRANCH   1  16
HETATM   16  C   UNL     1     -43.347  55.934 -53.834  1.00  0.00     0.116 C 
BRANCH  16  17
HETATM   17  C   UNL     1     -43.993  56.977 -54.725  1.00  0.00     0.218 C 
HETATM   18  N   UNL     1     -43.415  57.137 -55.955  1.00  0.00    -0.355 N 
HETATM   19  H   UNL     1     -42.502  56.756 -56.169  1.00  0.00     0.162 HD
HETATM   20  O   UNL     1     -45.011  57.578 -54.386  1.00  0.00    -0.274 OA
BRANCH  18  21
HETATM   21  C   UNL     1     -43.827  58.199 -56.843  1.00  0.00     0.184 C 
BRANCH  21  22
HETATM   22  C   UNL     1     -44.806  57.650 -57.833  1.00  0.00     0.080 A 
HETATM   23  N   UNL     1     -46.104  58.047 -57.840  1.00  0.00    -0.177 NA
HETATM   24  N   UNL     1     -46.672  57.347 -58.855  1.00  0.00    -0.281 N 
HETATM   25  H   UNL     1     -47.659  57.483 -59.051  1.00  0.00     0.189 HD
HETATM   26  C   UNL     1     -45.776  56.549 -59.465  1.00  0.00     0.036 A 
HETATM   27  C   UNL     1     -44.578  56.711 -58.843  1.00  0.00    -0.006 A 
HETATM   28  C   UNL     1     -45.785  55.602 -60.586  1.00  0.00     0.059 C 
HETATM   29  C   UNL     1     -43.529  55.878 -59.450  1.00  0.00     0.043 C 
HETATM   30  C   UNL     1     -44.365  54.955 -60.411  1.00  0.00     0.011 C 
ENDBRANCH  21  22
ENDBRANCH  18  21
ENDBRANCH  16  17
ENDBRANCH   1  16
TORSDOF 7
ENDMDL
