MODEL 1
REMARK VINA RESULT:      -8.5      0.000      0.000
REMARK  4 active torsions:
REMARK  status: ('A' for Active; 'I' for Inactive)
REMARK    1  A    between atoms: C_2  and  C_3 
REMARK    2  A    between atoms: C_4  and  C_5 
REMARK       I    between atoms: C_5  and  N_6 
REMARK    3  A    between atoms: N_6  and  C_7 
REMARK    4  A    between atoms: C_14  and  C_15 
REMARK       I    between atoms: C_15  and  N_16 
ROOT
HETATM    1  C   UNL     1     -42.724  57.028 -56.056  1.00  0.00     0.035 A 
HETATM    2  C   UNL     1     -43.290  56.123 -56.969  1.00  0.00     0.046 A 
HETATM    3  C   UNL     1     -43.206  56.381 -58.354  1.00  0.00     0.030 A 
HETATM    4  C   UNL     1     -42.573  57.541 -58.780  1.00  0.00     0.063 A 
HETATM    5  N   UNL     1     -42.650  57.515 -60.145  1.00  0.00    -0.277 N 
HETATM    6  H   UNL     1     -42.291  58.209 -60.791  1.00  0.00     0.189 HD
HETATM    7  N   UNL     1     -43.270  56.432 -60.646  1.00  0.00    -0.168 NA
HETATM    8  C   UNL     1     -43.620  55.724 -59.550  1.00  0.00     0.156 A 
HETATM    9  C   UNL     1     -42.013  58.468 -57.900  1.00  0.00     0.034 A 
HETATM   10  C   UNL     1     -42.101  58.185 -56.530  1.00  0.00     0.032 A 
ENDROOT
BRANCH   1  11
HETATM   11  N   UNL     1     -42.833  56.704 -54.687  1.00  0.00    -0.327 N 
HETATM   12  C   UNL     1     -41.806  56.547 -53.781  1.00  0.00     0.227 C 
HETATM   13  O   UNL     1     -40.605  56.580 -54.010  1.00  0.00    -0.273 OA
HETATM   14  H   UNL     1     -43.768  56.521 -54.346  1.00  0.00     0.169 HD
BRANCH  12  15
HETATM   15  C   UNL     1     -42.252  56.199 -52.404  1.00  0.00     0.087 A 
HETATM   16  C   UNL     1     -42.144  54.786 -51.852  1.00  0.00     0.032 A 
HETATM   17  C   UNL     1     -41.313  55.906 -51.266  1.00  0.00     0.025 A 
BRANCH  16  18
HETATM   18  C   UNL     1     -41.428  53.650 -52.549  1.00  0.00    -0.053 A 
HETATM   19  C   UNL     1     -40.409  52.933 -51.894  1.00  0.00     0.009 A 
HETATM   20  C   UNL     1     -39.752  51.863 -52.509  1.00  0.00     0.024 A 
HETATM   21  C   UNL     1     -40.109  51.485 -53.799  1.00  0.00     0.034 A 
HETATM   22  C   UNL     1     -41.123  52.161 -54.467  1.00  0.00     0.024 A 
HETATM   23 CL   UNL     1     -39.300  50.174 -54.563  1.00  0.00    -0.084 Cl
HETATM   24  C   UNL     1     -41.782  53.222 -53.839  1.00  0.00     0.009 A 
ENDBRANCH  16  18
ENDBRANCH  12  15
ENDBRANCH   1  11
BRANCH   8  25
HETATM   25  C   UNL     1     -44.328  54.441 -59.660  1.00  0.00     0.270 C 
HETATM   26  N   UNL     1     -44.997  54.272 -60.841  1.00  0.00    -0.365 N 
HETATM   27  H   UNL     1     -44.953  55.012 -61.533  1.00  0.00     0.159 HD
HETATM   28  H   UNL     1     -45.505  53.419 -61.014  1.00  0.00     0.159 HD
HETATM   29  O   UNL     1     -44.336  53.577 -58.789  1.00  0.00    -0.266 OA
ENDBRANCH   8  25
TORSDOF 4
ENDMDL
MODEL 2
REMARK VINA RESULT:      -8.3      2.366      3.900
REMARK  4 active torsions:
REMARK  status: ('A' for Active; 'I' for Inactive)
REMARK    1  A    between atoms: C_2  and  C_3 
REMARK    2  A    between atoms: C_4  and  C_5 
REMARK       I    between atoms: C_5  and  N_6 
REMARK    3  A    between atoms: N_6  and  C_7 
REMARK    4  A    between atoms: C_14  and  C_15 
REMARK       I    between atoms: C_15  and  N_16 
ROOT
HETATM    1  C   UNL     1     -43.030  56.561 -51.846  1.00  0.00     0.035 A 
HETATM    2  C   UNL     1     -42.755  56.270 -53.194  1.00  0.00     0.046 A 
HETATM    3  C   UNL     1     -43.535  56.861 -54.210  1.00  0.00     0.030 A 
HETATM    4  C   UNL     1     -44.572  57.710 -53.849  1.00  0.00     0.063 A 
HETATM    5  N   UNL     1     -45.134  58.118 -55.026  1.00  0.00    -0.277 N 
HETATM    6  H   UNL     1     -45.921  58.745 -55.144  1.00  0.00     0.189 HD
HETATM    7  N   UNL     1     -44.547  57.614 -56.126  1.00  0.00    -0.168 NA
HETATM    8  C   UNL     1     -43.558  56.834 -55.636  1.00  0.00     0.156 A 
HETATM    9  C   UNL     1     -44.880  58.011 -52.521  1.00  0.00     0.034 A 
HETATM   10  C   UNL     1     -44.085  57.419 -51.529  1.00  0.00     0.032 A 
ENDROOT
BRANCH   1  11
HETATM   11  N   UNL     1     -42.205  55.947 -50.882  1.00  0.00    -0.327 N 
HETATM   12  C   UNL     1     -42.317  54.668 -50.379  1.00  0.00     0.227 C 
HETATM   13  O   UNL     1     -43.199  53.854 -50.614  1.00  0.00    -0.273 OA
HETATM   14  H   UNL     1     -41.478  56.526 -50.482  1.00  0.00     0.169 HD
BRANCH  12  15
HETATM   15  C   UNL     1     -41.286  54.316 -49.363  1.00  0.00     0.087 A 
HETATM   16  C   UNL     1     -40.291  53.187 -49.578  1.00  0.00     0.032 A 
HETATM   17  C   UNL     1     -39.821  54.624 -49.512  1.00  0.00     0.025 A 
BRANCH  16  18
HETATM   18  C   UNL     1     -40.122  52.436 -50.880  1.00  0.00    -0.053 A 
HETATM   19  C   UNL     1     -39.886  51.048 -50.884  1.00  0.00     0.009 A 
HETATM   20  C   UNL     1     -39.751  50.329 -52.076  1.00  0.00     0.024 A 
HETATM   21  C   UNL     1     -39.857  50.990 -53.295  1.00  0.00     0.034 A 
HETATM   22  C   UNL     1     -40.108  52.356 -53.327  1.00  0.00     0.024 A 
HETATM   23 CL   UNL     1     -39.687  50.112 -54.764  1.00  0.00    -0.084 Cl
HETATM   24  C   UNL     1     -40.252  53.065 -52.130  1.00  0.00     0.009 A 
ENDBRANCH  16  18
ENDBRANCH  12  15
ENDBRANCH   1  11
BRANCH   8  25
HETATM   25  C   UNL     1     -42.655  56.091 -56.526  1.00  0.00     0.270 C 
HETATM   26  N   UNL     1     -42.198  56.819 -57.591  1.00  0.00    -0.365 N 
HETATM   27  H   UNL     1     -42.498  57.783 -57.683  1.00  0.00     0.159 HD
HETATM   28  H   UNL     1     -41.565  56.398 -58.252  1.00  0.00     0.159 HD
HETATM   29  O   UNL     1     -42.319  54.924 -56.355  1.00  0.00    -0.266 OA
ENDBRANCH   8  25
TORSDOF 4
ENDMDL
MODEL 3
REMARK VINA RESULT:      -8.2      1.697      3.008
REMARK  4 active torsions:
REMARK  status: ('A' for Active; 'I' for Inactive)
REMARK    1  A    between atoms: C_2  and  C_3 
REMARK    2  A    between atoms: C_4  and  C_5 
REMARK       I    between atoms: C_5  and  N_6 
REMARK    3  A    between atoms: N_6  and  C_7 
REMARK    4  A    between atoms: C_14  and  C_15 
REMARK       I    between atoms: C_15  and  N_16 
ROOT
HETATM    1  C   UNL     1     -42.779  56.592 -56.369  1.00  0.00     0.035 A 
HETATM    2  C   UNL     1     -42.423  57.879 -56.808  1.00  0.00     0.046 A 
HETATM    3  C   UNL     1     -42.333  58.148 -58.190  1.00  0.00     0.030 A 
HETATM    4  C   UNL     1     -42.588  57.120 -59.089  1.00  0.00     0.063 A 
HETATM    5  N   UNL     1     -42.425  57.673 -60.328  1.00  0.00    -0.277 N 
HETATM    6  H   UNL     1     -42.530  57.211 -61.223  1.00  0.00     0.189 HD
HETATM    7  N   UNL     1     -42.095  58.977 -60.315  1.00  0.00    -0.168 NA
HETATM    8  C   UNL     1     -42.033  59.282 -59.000  1.00  0.00     0.156 A 
HETATM    9  C   UNL     1     -42.931  55.828 -58.687  1.00  0.00     0.034 A 
HETATM   10  C   UNL     1     -43.023  55.588 -57.309  1.00  0.00     0.032 A 
ENDROOT
BRANCH   1  11
HETATM   11  N   UNL     1     -42.862  56.395 -54.975  1.00  0.00    -0.327 N 
HETATM   12  C   UNL     1     -41.823  56.389 -54.069  1.00  0.00     0.227 C 
HETATM   13  O   UNL     1     -40.628  56.473 -54.312  1.00  0.00    -0.273 OA
HETATM   14  H   UNL     1     -43.782  56.190 -54.608  1.00  0.00     0.169 HD
BRANCH  12  15
HETATM   15  C   UNL     1     -42.240  56.149 -52.660  1.00  0.00     0.087 A 
HETATM   16  C   UNL     1     -42.095  54.790 -51.994  1.00  0.00     0.032 A 
HETATM   17  C   UNL     1     -41.278  55.971 -51.518  1.00  0.00     0.025 A 
BRANCH  16  18
HETATM   18  C   UNL     1     -41.367  53.613 -52.606  1.00  0.00    -0.053 A 
HETATM   19  C   UNL     1     -40.360  52.938 -51.889  1.00  0.00     0.009 A 
HETATM   20  C   UNL     1     -39.692  51.833 -52.424  1.00  0.00     0.024 A 
HETATM   21  C   UNL     1     -40.025  51.376 -53.695  1.00  0.00     0.034 A 
HETATM   22  C   UNL     1     -41.026  52.008 -54.423  1.00  0.00     0.024 A 
HETATM   23 CL   UNL     1     -39.203  50.020 -54.362  1.00  0.00    -0.084 Cl
HETATM   24  C   UNL     1     -41.696  53.107 -53.874  1.00  0.00     0.009 A 
ENDBRANCH  16  18
ENDBRANCH  12  15
ENDBRANCH   1  11
BRANCH   8  25
HETATM   25  C   UNL     1     -41.702  60.639 -58.542  1.00  0.00     0.270 C 
HETATM   26  N   UNL     1     -42.426  61.626 -59.154  1.00  0.00    -0.365 N 
HETATM   27  H   UNL     1     -43.117  61.362 -59.847  1.00  0.00     0.159 HD
HETATM   28  H   UNL     1     -42.277  62.589 -58.900  1.00  0.00     0.159 HD
HETATM   29  O   UNL     1     -40.860  60.896 -57.689  1.00  0.00    -0.266 OA
ENDBRANCH   8  25
TORSDOF 4
ENDMDL
MODEL 4
REMARK VINA RESULT:      -8.1      3.894      7.716
REMARK  4 active torsions:
REMARK  status: ('A' for Active; 'I' for Inactive)
REMARK    1  A    between atoms: C_2  and  C_3 
REMARK    2  A    between atoms: C_4  and  C_5 
REMARK       I    between atoms: C_5  and  N_6 
REMARK    3  A    between atoms: N_6  and  C_7 
REMARK    4  A    between atoms: C_14  and  C_15 
REMARK       I    between atoms: C_15  and  N_16 
ROOT
HETATM    1  C   UNL     1     -41.232  54.261 -54.119  1.00  0.00     0.035 A 
HETATM    2  C   UNL     1     -41.300  54.331 -52.717  1.00  0.00     0.046 A 
HETATM    3  C   UNL     1     -40.738  53.299 -51.937  1.00  0.00     0.030 A 
HETATM    4  C   UNL     1     -40.140  52.224 -52.581  1.00  0.00     0.063 A 
HETATM    5  N   UNL     1     -39.697  51.403 -51.582  1.00  0.00    -0.277 N 
HETATM    6  H   UNL     1     -39.212  50.519 -51.686  1.00  0.00     0.189 HD
HETATM    7  N   UNL     1     -39.947  51.854 -50.341  1.00  0.00    -0.168 NA
HETATM    8  C   UNL     1     -40.591  53.024 -50.546  1.00  0.00     0.156 A 
HETATM    9  C   UNL     1     -40.067  52.117 -53.971  1.00  0.00     0.034 A 
HETATM   10  C   UNL     1     -40.624  53.159 -54.725  1.00  0.00     0.032 A 
ENDROOT
BRANCH   1  11
HETATM   11  N   UNL     1     -41.803  55.332 -54.838  1.00  0.00    -0.327 N 
HETATM   12  C   UNL     1     -43.137  55.672 -54.911  1.00  0.00     0.227 C 
HETATM   13  O   UNL     1     -44.084  55.064 -54.433  1.00  0.00    -0.273 OA
HETATM   14  H   UNL     1     -41.166  55.883 -55.399  1.00  0.00     0.169 HD
BRANCH  12  15
HETATM   15  C   UNL     1     -43.421  56.862 -55.761  1.00  0.00     0.087 A 
HETATM   16  C   UNL     1     -43.224  58.282 -55.255  1.00  0.00     0.032 A 
HETATM   17  C   UNL     1     -42.356  57.734 -56.366  1.00  0.00     0.025 A 
BRANCH  16  18
HETATM   18  C   UNL     1     -42.568  58.635 -53.939  1.00  0.00    -0.053 A 
HETATM   19  C   UNL     1     -43.339  58.805 -52.773  1.00  0.00     0.009 A 
HETATM   20  C   UNL     1     -42.752  59.107 -51.541  1.00  0.00     0.024 A 
HETATM   21  C   UNL     1     -41.371  59.241 -51.451  1.00  0.00     0.034 A 
HETATM   22  C   UNL     1     -40.578  59.062 -52.578  1.00  0.00     0.024 A 
HETATM   23 CL   UNL     1     -40.642  59.618 -49.939  1.00  0.00    -0.084 Cl
HETATM   24  C   UNL     1     -41.174  58.750 -53.804  1.00  0.00     0.009 A 
ENDBRANCH  16  18
ENDBRANCH  12  15
ENDBRANCH   1  11
BRANCH   8  25
HETATM   25  C   UNL     1     -41.043  53.857 -49.423  1.00  0.00     0.270 C 
HETATM   26  N   UNL     1     -40.116  54.003 -48.427  1.00  0.00    -0.365 N 
HETATM   27  H   UNL     1     -39.216  53.549 -48.533  1.00  0.00     0.159 HD
HETATM   28  H   UNL     1     -40.330  54.565 -47.619  1.00  0.00     0.159 HD
HETATM   29  O   UNL     1     -42.145  54.391 -49.355  1.00  0.00    -0.266 OA
ENDBRANCH   8  25
TORSDOF 4
ENDMDL
MODEL 5
REMARK VINA RESULT:      -8.0      3.546      4.823
REMARK  4 active torsions:
REMARK  status: ('A' for Active; 'I' for Inactive)
REMARK    1  A    between atoms: C_2  and  C_3 
REMARK    2  A    between atoms: C_4  and  C_5 
REMARK       I    between atoms: C_5  and  N_6 
REMARK    3  A    between atoms: N_6  and  C_7 
REMARK    4  A    between atoms: C_14  and  C_15 
REMARK       I    between atoms: C_15  and  N_16 
ROOT
HETATM    1  C   UNL     1     -42.617  55.747 -52.791  1.00  0.00     0.035 A 
HETATM    2  C   UNL     1     -43.211  57.019 -52.725  1.00  0.00     0.046 A 
HETATM    3  C   UNL     1     -43.973  57.492 -53.814  1.00  0.00     0.030 A 
HETATM    4  C   UNL     1     -44.105  56.687 -54.938  1.00  0.00     0.063 A 
HETATM    5  N   UNL     1     -44.882  57.401 -55.807  1.00  0.00    -0.277 N 
HETATM    6  H   UNL     1     -45.181  57.119 -56.733  1.00  0.00     0.189 HD
HETATM    7  N   UNL     1     -45.276  58.600 -55.343  1.00  0.00    -0.168 NA
HETATM    8  C   UNL     1     -44.720  58.669 -54.113  1.00  0.00     0.156 A 
HETATM    9  C   UNL     1     -43.518  55.425 -55.041  1.00  0.00     0.034 A 
HETATM   10  C   UNL     1     -42.773  54.973 -53.943  1.00  0.00     0.032 A 
ENDROOT
BRANCH   1  11
HETATM   11  N   UNL     1     -41.879  55.331 -51.663  1.00  0.00    -0.327 N 
HETATM   12  C   UNL     1     -42.318  54.542 -50.621  1.00  0.00     0.227 C 
HETATM   13  O   UNL     1     -43.451  54.122 -50.437  1.00  0.00    -0.273 OA
HETATM   14  H   UNL     1     -40.936  55.690 -51.590  1.00  0.00     0.169 HD
BRANCH  12  15
HETATM   15  C   UNL     1     -41.291  54.283 -49.574  1.00  0.00     0.087 A 
HETATM   16  C   UNL     1     -40.294  53.141 -49.685  1.00  0.00     0.032 A 
HETATM   17  C   UNL     1     -39.826  54.578 -49.743  1.00  0.00     0.025 A 
BRANCH  16  18
HETATM   18  C   UNL     1     -40.118  52.279 -50.916  1.00  0.00    -0.053 A 
HETATM   19  C   UNL     1     -40.072  52.858 -52.199  1.00  0.00     0.009 A 
HETATM   20  C   UNL     1     -39.885  52.083 -53.348  1.00  0.00     0.024 A 
HETATM   21  C   UNL     1     -39.733  50.706 -53.233  1.00  0.00     0.034 A 
HETATM   22  C   UNL     1     -39.754  50.104 -51.980  1.00  0.00     0.024 A 
HETATM   23 CL   UNL     1     -39.507  49.747 -54.643  1.00  0.00    -0.084 Cl
HETATM   24  C   UNL     1     -39.932  50.889 -50.836  1.00  0.00     0.009 A 
ENDBRANCH  16  18
ENDBRANCH  12  15
ENDBRANCH   1  11
BRANCH   8  25
HETATM   25  C   UNL     1     -44.917  59.841 -53.248  1.00  0.00     0.270 C 
HETATM   26  N   UNL     1     -46.202  60.308 -53.224  1.00  0.00    -0.365 N 
HETATM   27  H   UNL     1     -46.902  59.828 -53.779  1.00  0.00     0.159 HD
HETATM   28  H   UNL     1     -46.438  61.103 -52.652  1.00  0.00     0.159 HD
HETATM   29  O   UNL     1     -44.029  60.373 -52.591  1.00  0.00    -0.266 OA
ENDBRANCH   8  25
TORSDOF 4
ENDMDL
MODEL 6
REMARK VINA RESULT:      -7.9      2.807      3.907
REMARK  4 active torsions:
REMARK  status: ('A' for Active; 'I' for Inactive)
REMARK    1  A    between atoms: C_2  and  C_3 
REMARK    2  A    between atoms: C_4  and  C_5 
REMARK       I    between atoms: C_5  and  N_6 
REMARK    3  A    between atoms: N_6  and  C_7 
REMARK    4  A    between atoms: C_14  and  C_15 
REMARK       I    between atoms: C_15  and  N_16 
ROOT
HETATM    1  C   UNL     1     -42.648  56.513 -56.957  1.00  0.00     0.035 A 
HETATM    2  C   UNL     1     -43.279  55.834 -58.013  1.00  0.00     0.046 A 
HETATM    3  C   UNL     1     -44.089  56.549 -58.920  1.00  0.00     0.030 A 
HETATM    4  C   UNL     1     -44.255  57.915 -58.735  1.00  0.00     0.063 A 
HETATM    5  N   UNL     1     -45.076  58.322 -59.749  1.00  0.00    -0.277 N 
HETATM    6  H   UNL     1     -45.411  59.262 -59.926  1.00  0.00     0.189 HD
HETATM    7  N   UNL     1     -45.453  57.339 -60.586  1.00  0.00    -0.168 NA
HETATM    8  C   UNL     1     -44.852  56.238 -60.084  1.00  0.00     0.156 A 
HETATM    9  C   UNL     1     -43.653  58.619 -57.690  1.00  0.00     0.034 A 
HETATM   10  C   UNL     1     -42.846  57.888 -56.807  1.00  0.00     0.032 A 
ENDROOT
BRANCH   1  11
HETATM   11  N   UNL     1     -41.843  55.741 -56.093  1.00  0.00    -0.327 N 
HETATM   12  C   UNL     1     -42.208  54.601 -55.409  1.00  0.00     0.227 C 
HETATM   13  O   UNL     1     -43.317  54.090 -55.358  1.00  0.00    -0.273 OA
HETATM   14  H   UNL     1     -40.909  56.090 -55.923  1.00  0.00     0.169 HD
BRANCH  12  15
HETATM   15  C   UNL     1     -41.124  54.016 -54.572  1.00  0.00     0.087 A 
HETATM   16  C   UNL     1     -40.626  54.695 -53.306  1.00  0.00     0.032 A 
HETATM   17  C   UNL     1     -41.353  53.370 -53.233  1.00  0.00     0.025 A 
BRANCH  16  18
HETATM   18  C   UNL     1     -41.276  55.906 -52.674  1.00  0.00    -0.053 A 
HETATM   19  C   UNL     1     -40.890  57.207 -53.051  1.00  0.00     0.009 A 
HETATM   20  C   UNL     1     -41.494  58.341 -52.499  1.00  0.00     0.024 A 
HETATM   21  C   UNL     1     -42.507  58.193 -51.558  1.00  0.00     0.034 A 
HETATM   22  C   UNL     1     -42.925  56.923 -51.178  1.00  0.00     0.024 A 
HETATM   23 CL   UNL     1     -43.251  59.584 -50.872  1.00  0.00    -0.084 Cl
HETATM   24  C   UNL     1     -42.322  55.795 -51.743  1.00  0.00     0.009 A 
ENDBRANCH  16  18
ENDBRANCH  12  15
ENDBRANCH   1  11
BRANCH   8  25
HETATM   25  C   UNL     1     -45.004  54.923 -60.721  1.00  0.00     0.270 C 
HETATM   26  N   UNL     1     -45.263  53.904 -59.845  1.00  0.00    -0.365 N 
HETATM   27  H   UNL     1     -45.334  54.122 -58.857  1.00  0.00     0.159 HD
HETATM   28  H   UNL     1     -45.393  52.966 -60.188  1.00  0.00     0.159 HD
HETATM   29  O   UNL     1     -44.917  54.723 -61.928  1.00  0.00    -0.266 OA
ENDBRANCH   8  25
TORSDOF 4
ENDMDL
MODEL 7
REMARK VINA RESULT:      -7.9      2.767      3.243
REMARK  4 active torsions:
REMARK  status: ('A' for Active; 'I' for Inactive)
REMARK    1  A    between atoms: C_2  and  C_3 
REMARK    2  A    between atoms: C_4  and  C_5 
REMARK       I    between atoms: C_5  and  N_6 
REMARK    3  A    between atoms: N_6  and  C_7 
REMARK    4  A    between atoms: C_14  and  C_15 
REMARK       I    between atoms: C_15  and  N_16 
ROOT
HETATM    1  C   UNL     1     -43.427  56.999 -57.100  1.00  0.00     0.035 A 
HETATM    2  C   UNL     1     -44.532  57.791 -57.456  1.00  0.00     0.046 A 
HETATM    3  C   UNL     1     -45.227  57.525 -58.655  1.00  0.00     0.030 A 
HETATM    4  C   UNL     1     -44.787  56.488 -59.467  1.00  0.00     0.063 A 
HETATM    5  N   UNL     1     -45.641  56.475 -60.534  1.00  0.00    -0.277 N 
HETATM    6  H   UNL     1     -45.618  55.847 -61.329  1.00  0.00     0.189 HD
HETATM    7  N   UNL     1     -46.606  57.410 -60.484  1.00  0.00    -0.168 NA
HETATM    8  C   UNL     1     -46.361  58.067 -59.328  1.00  0.00     0.156 A 
HETATM    9  C   UNL     1     -43.686  55.691 -59.150  1.00  0.00     0.034 A 
HETATM   10  C   UNL     1     -43.018  55.968 -57.949  1.00  0.00     0.032 A 
ENDROOT
BRANCH   1  11
HETATM   11  N   UNL     1     -42.786  57.311 -55.884  1.00  0.00    -0.327 N 
HETATM   12  C   UNL     1     -43.162  56.919 -54.616  1.00  0.00     0.227 C 
HETATM   13  O   UNL     1     -44.165  56.295 -54.301  1.00  0.00    -0.273 OA
HETATM   14  H   UNL     1     -41.988  57.929 -55.946  1.00  0.00     0.169 HD
BRANCH  12  15
HETATM   15  C   UNL     1     -42.273  57.419 -53.531  1.00  0.00     0.087 A 
HETATM   16  C   UNL     1     -41.285  56.513 -52.814  1.00  0.00     0.032 A 
HETATM   17  C   UNL     1     -40.794  57.642 -53.694  1.00  0.00     0.025 A 
BRANCH  16  18
HETATM   18  C   UNL     1     -40.973  55.092 -53.230  1.00  0.00    -0.053 A 
HETATM   19  C   UNL     1     -40.440  54.816 -54.503  1.00  0.00     0.009 A 
HETATM   20  C   UNL     1     -40.120  53.514 -54.899  1.00  0.00     0.024 A 
HETATM   21  C   UNL     1     -40.325  52.457 -54.019  1.00  0.00     0.034 A 
HETATM   22  C   UNL     1     -40.833  52.696 -52.748  1.00  0.00     0.024 A 
HETATM   23 CL   UNL     1     -39.939  50.851 -54.502  1.00  0.00    -0.084 Cl
HETATM   24  C   UNL     1     -41.139  54.004 -52.357  1.00  0.00     0.009 A 
ENDBRANCH  16  18
ENDBRANCH  12  15
ENDBRANCH   1  11
BRANCH   8  25
HETATM   25  C   UNL     1     -47.209  59.182 -58.886  1.00  0.00     0.270 C 
HETATM   26  N   UNL     1     -47.762  59.005 -57.646  1.00  0.00    -0.365 N 
HETATM   27  H   UNL     1     -47.550  58.153 -57.139  1.00  0.00     0.159 HD
HETATM   28  H   UNL     1     -48.352  59.720 -57.252  1.00  0.00     0.159 HD
HETATM   29  O   UNL     1     -47.420  60.195 -59.543  1.00  0.00    -0.266 OA
ENDBRANCH   8  25
TORSDOF 4
ENDMDL
MODEL 8
REMARK VINA RESULT:      -7.9      3.407      7.641
REMARK  4 active torsions:
REMARK  status: ('A' for Active; 'I' for Inactive)
REMARK    1  A    between atoms: C_2  and  C_3 
REMARK    2  A    between atoms: C_4  and  C_5 
REMARK       I    between atoms: C_5  and  N_6 
REMARK    3  A    between atoms: N_6  and  C_7 
REMARK    4  A    between atoms: C_14  and  C_15 
REMARK       I    between atoms: C_15  and  N_16 
ROOT
HETATM    1  C   UNL     1     -41.038  55.310 -54.366  1.00  0.00     0.035 A 
HETATM    2  C   UNL     1     -40.940  55.134 -52.974  1.00  0.00     0.046 A 
HETATM    3  C   UNL     1     -40.550  53.883 -52.453  1.00  0.00     0.030 A 
HETATM    4  C   UNL     1     -40.284  52.844 -53.335  1.00  0.00     0.063 A 
HETATM    5  N   UNL     1     -39.939  51.780 -52.549  1.00  0.00    -0.277 N 
HETATM    6  H   UNL     1     -39.682  50.849 -52.858  1.00  0.00     0.189 HD
HETATM    7  N   UNL     1     -39.947  52.038 -51.230  1.00  0.00    -0.168 NA
HETATM    8  C   UNL     1     -40.325  53.334 -51.156  1.00  0.00     0.156 A 
HETATM    9  C   UNL     1     -40.384  52.980 -54.721  1.00  0.00     0.034 A 
HETATM   10  C   UNL     1     -40.765  54.236 -55.215  1.00  0.00     0.032 A 
ENDROOT
BRANCH   1  11
HETATM   11  N   UNL     1     -41.421  56.589 -54.820  1.00  0.00    -0.327 N 
HETATM   12  C   UNL     1     -42.700  57.038 -55.068  1.00  0.00     0.227 C 
HETATM   13  O   UNL     1     -43.736  56.390 -55.018  1.00  0.00    -0.273 OA
HETATM   14  H   UNL     1     -40.668  57.231 -55.031  1.00  0.00     0.169 HD
BRANCH  12  15
HETATM   15  C   UNL     1     -42.773  58.447 -55.545  1.00  0.00     0.087 A 
HETATM   16  C   UNL     1     -43.108  58.796 -56.987  1.00  0.00     0.032 A 
HETATM   17  C   UNL     1     -44.058  59.160 -55.867  1.00  0.00     0.025 A 
BRANCH  16  18
HETATM   18  C   UNL     1     -43.569  57.794 -58.022  1.00  0.00    -0.053 A 
HETATM   19  C   UNL     1     -42.648  56.932 -58.649  1.00  0.00     0.009 A 
HETATM   20  C   UNL     1     -43.055  55.982 -59.590  1.00  0.00     0.024 A 
HETATM   21  C   UNL     1     -44.401  55.871 -59.920  1.00  0.00     0.034 A 
HETATM   22  C   UNL     1     -45.338  56.694 -59.307  1.00  0.00     0.024 A 
HETATM   23 CL   UNL     1     -44.907  54.707 -61.081  1.00  0.00    -0.084 Cl
HETATM   24  C   UNL     1     -44.923  57.635 -58.359  1.00  0.00     0.009 A 
ENDBRANCH  16  18
ENDBRANCH  12  15
ENDBRANCH   1  11
BRANCH   8  25
HETATM   25  C   UNL     1     -40.453  54.022 -49.865  1.00  0.00     0.270 C 
HETATM   26  N   UNL     1     -41.737  54.373 -49.544  1.00  0.00    -0.365 N 
HETATM   27  H   UNL     1     -42.479  54.135 -50.192  1.00  0.00     0.159 HD
HETATM   28  H   UNL     1     -41.928  54.841 -48.673  1.00  0.00     0.159 HD
HETATM   29  O   UNL     1     -39.515  54.273 -49.116  1.00  0.00    -0.266 OA
ENDBRANCH   8  25
TORSDOF 4
ENDMDL
MODEL 9
REMARK VINA RESULT:      -7.7      4.023      7.030
REMARK  4 active torsions:
REMARK  status: ('A' for Active; 'I' for Inactive)
REMARK    1  A    between atoms: C_2  and  C_3 
REMARK    2  A    between atoms: C_4  and  C_5 
REMARK       I    between atoms: C_5  and  N_6 
REMARK    3  A    between atoms: N_6  and  C_7 
REMARK    4  A    between atoms: C_14  and  C_15 
REMARK       I    between atoms: C_15  and  N_16 
ROOT
HETATM    1  C   UNL     1     -41.452  56.531 -50.686  1.00  0.00     0.035 A 
HETATM    2  C   UNL     1     -41.426  55.958 -51.969  1.00  0.00     0.046 A 
HETATM    3  C   UNL     1     -40.989  54.626 -52.131  1.00  0.00     0.030 A 
HETATM    4  C   UNL     1     -40.578  53.916 -51.011  1.00  0.00     0.063 A 
HETATM    5  N   UNL     1     -40.217  52.682 -51.476  1.00  0.00    -0.277 N 
HETATM    6  H   UNL     1     -39.865  51.902 -50.933  1.00  0.00     0.189 HD
HETATM    7  N   UNL     1     -40.366  52.523 -52.803  1.00  0.00    -0.168 NA
HETATM    8  C   UNL     1     -40.841  53.717 -53.220  1.00  0.00     0.156 A 
HETATM    9  C   UNL     1     -40.578  54.459 -49.725  1.00  0.00     0.034 A 
HETATM   10  C   UNL     1     -41.026  55.780 -49.588  1.00  0.00     0.032 A 
ENDROOT
BRANCH   1  11
HETATM   11  N   UNL     1     -41.911  57.861 -50.592  1.00  0.00    -0.327 N 
HETATM   12  C   UNL     1     -41.163  59.013 -50.705  1.00  0.00     0.227 C 
HETATM   13  O   UNL     1     -39.949  59.099 -50.826  1.00  0.00    -0.273 OA
HETATM   14  H   UNL     1     -42.892  57.980 -50.373  1.00  0.00     0.169 HD
BRANCH  12  15
HETATM   15  C   UNL     1     -41.947  60.271 -50.555  1.00  0.00     0.087 A 
HETATM   16  C   UNL     1     -42.767  60.852 -51.695  1.00  0.00     0.032 A 
HETATM   17  C   UNL     1     -43.447  60.317 -50.454  1.00  0.00     0.025 A 
BRANCH  16  18
HETATM   18  C   UNL     1     -43.018  60.150 -53.011  1.00  0.00    -0.053 A 
HETATM   19  C   UNL     1     -42.094  60.252 -54.068  1.00  0.00     0.009 A 
HETATM   20  C   UNL     1     -42.293  59.590 -55.284  1.00  0.00     0.024 A 
HETATM   21  C   UNL     1     -43.427  58.805 -55.463  1.00  0.00     0.034 A 
HETATM   22  C   UNL     1     -44.350  58.668 -54.433  1.00  0.00     0.024 A 
HETATM   23 CL   UNL     1     -43.680  57.993 -56.959  1.00  0.00    -0.084 Cl
HETATM   24  C   UNL     1     -44.137  59.325 -53.217  1.00  0.00     0.009 A 
ENDBRANCH  16  18
ENDBRANCH  12  15
ENDBRANCH   1  11
BRANCH   8  25
HETATM   25  C   UNL     1     -41.151  53.967 -54.634  1.00  0.00     0.270 C 
HETATM   26  N   UNL     1     -40.060  54.280 -55.399  1.00  0.00    -0.365 N 
HETATM   27  H   UNL     1     -39.150  54.309 -54.954  1.00  0.00     0.159 HD
HETATM   28  H   UNL     1     -40.171  54.459 -56.384  1.00  0.00     0.159 HD
HETATM   29  O   UNL     1     -42.277  53.906 -55.118  1.00  0.00    -0.266 OA
ENDBRANCH   8  25
TORSDOF 4
ENDMDL
MODEL 10
REMARK VINA RESULT:      -7.4     15.228     18.190
REMARK  4 active torsions:
REMARK  status: ('A' for Active; 'I' for Inactive)
REMARK    1  A    between atoms: C_2  and  C_3 
REMARK    2  A    between atoms: C_4  and  C_5 
REMARK       I    between atoms: C_5  and  N_6 
REMARK    3  A    between atoms: N_6  and  C_7 
REMARK    4  A    between atoms: C_14  and  C_15 
REMARK       I    between atoms: C_15  and  N_16 
ROOT
HETATM    1  C   UNL     1     -33.600  39.873 -55.415  1.00  0.00     0.035 A 
HETATM    2  C   UNL     1     -33.414  39.180 -56.623  1.00  0.00     0.046 A 
HETATM    3  C   UNL     1     -32.166  38.584 -56.903  1.00  0.00     0.030 A 
HETATM    4  C   UNL     1     -31.141  38.712 -55.976  1.00  0.00     0.063 A 
HETATM    5  N   UNL     1     -30.077  38.045 -56.517  1.00  0.00    -0.277 N 
HETATM    6  H   UNL     1     -29.155  37.934 -56.112  1.00  0.00     0.189 HD
HETATM    7  N   UNL     1     -30.323  37.484 -57.713  1.00  0.00    -0.168 NA
HETATM    8  C   UNL     1     -31.610  37.811 -57.965  1.00  0.00     0.156 A 
HETATM    9  C   UNL     1     -31.287  39.405 -54.773  1.00  0.00     0.034 A 
HETATM   10  C   UNL     1     -32.539  39.980 -54.513  1.00  0.00     0.032 A 
ENDROOT
BRANCH   1  11
HETATM   11  N   UNL     1     -34.875  40.434 -55.193  1.00  0.00    -0.327 N 
HETATM   12  C   UNL     1     -35.304  41.697 -55.541  1.00  0.00     0.227 C 
HETATM   13  O   UNL     1     -34.639  42.596 -56.036  1.00  0.00    -0.273 OA
HETATM   14  H   UNL     1     -35.531  39.860 -54.679  1.00  0.00     0.169 HD
BRANCH  12  15
HETATM   15  C   UNL     1     -36.714  41.991 -55.163  1.00  0.00     0.087 A 
HETATM   16  C   UNL     1     -37.864  41.836 -56.146  1.00  0.00     0.032 A 
HETATM   17  C   UNL     1     -37.760  40.934 -54.937  1.00  0.00     0.025 A 
BRANCH  16  18
HETATM   18  C   UNL     1     -37.734  41.214 -57.519  1.00  0.00    -0.053 A 
HETATM   19  C   UNL     1     -38.096  39.870 -57.737  1.00  0.00     0.009 A 
HETATM   20  C   UNL     1     -38.009  39.282 -59.002  1.00  0.00     0.024 A 
HETATM   21  C   UNL     1     -37.560  40.034 -60.082  1.00  0.00     0.034 A 
HETATM   22  C   UNL     1     -37.212  41.368 -59.906  1.00  0.00     0.024 A 
HETATM   23 CL   UNL     1     -37.446  39.314 -61.640  1.00  0.00    -0.084 Cl
HETATM   24  C   UNL     1     -37.313  41.951 -58.639  1.00  0.00     0.009 A 
ENDBRANCH  16  18
ENDBRANCH  12  15
ENDBRANCH   1  11
BRANCH   8  25
HETATM   25  C   UNL     1     -32.285  37.377 -59.196  1.00  0.00     0.270 C 
HETATM   26  N   UNL     1     -31.508  37.466 -60.319  1.00  0.00    -0.365 N 
HETATM   27  H   UNL     1     -30.558  37.805 -60.225  1.00  0.00     0.159 HD
HETATM   28  H   UNL     1     -31.880  37.182 -61.211  1.00  0.00     0.159 HD
HETATM   29  O   UNL     1     -33.439  36.965 -59.246  1.00  0.00    -0.266 OA
ENDBRANCH   8  25
TORSDOF 4
ENDMDL
