MODEL 1
REMARK VINA RESULT:      -6.5      0.000      0.000
REMARK  5 active torsions:
REMARK  status: ('A' for Active; 'I' for Inactive)
REMARK    1  A    between atoms: C_2  and  O_3 
REMARK    2  A    between atoms: C_4  and  C_5 
REMARK    3  A    between atoms: C_5  and  O_6 
REMARK    4  A    between atoms: C_9  and  C_10 
REMARK    5  A    between atoms: C_22  and  O_23 
ROOT
HETATM    1  C   UNL     1     -42.892  60.060 -54.021  1.00  0.00     0.047 C 
HETATM    2  C   UNL     1     -43.421  58.767 -53.371  1.00  0.00     0.073 C 
HETATM    3  C   UNL     1     -42.273  57.693 -53.317  1.00  0.00     0.133 C 
HETATM    4  C   UNL     1     -41.938  57.005 -54.683  1.00  0.00     0.074 C 
HETATM    5  C   UNL     1     -43.045  57.111 -55.681  1.00  0.00     0.030 A 
HETATM    6  C   UNL     1     -44.276  57.667 -55.410  1.00  0.00     0.042 A 
HETATM    7  N   UNL     1     -45.002  57.621 -56.566  1.00  0.00    -0.279 N 
HETATM    8  H   UNL     1     -45.949  57.941 -56.736  1.00  0.00     0.189 HD
HETATM    9  N   UNL     1     -44.298  57.112 -57.599  1.00  0.00    -0.149 NA
HETATM   10  C   UNL     1     -43.127  56.824 -57.045  1.00  0.00     0.190 A 
HETATM   11  C   UNL     1     -44.689  58.272 -54.128  1.00  0.00     0.097 C 
ENDROOT
BRANCH   4  12
HETATM   12  C   UNL     1     -41.575  55.523 -54.624  1.00  0.00    -0.048 A 
HETATM   13  C   UNL     1     -42.544  54.516 -54.443  1.00  0.00     0.009 A 
HETATM   14  C   UNL     1     -42.178  53.170 -54.360  1.00  0.00     0.019 A 
HETATM   15  C   UNL     1     -40.836  52.815 -54.454  1.00  0.00     0.011 A 
HETATM   16 BR   UNL     1     -40.337  50.997 -54.337  1.00  0.00    -0.051 Br
HETATM   17  C   UNL     1     -39.859  53.793 -54.631  1.00  0.00     0.019 A 
HETATM   18  C   UNL     1     -40.228  55.139 -54.713  1.00  0.00     0.009 A 
ENDBRANCH   4  12
BRANCH   3  19
HETATM   19  C   UNL     1     -42.542  56.702 -52.202  1.00  0.00     0.266 C 
HETATM   20  O   UNL     1     -43.649  56.260 -51.917  1.00  0.00    -0.265 OA
BRANCH  19  21
HETATM   21  O   UNL     1     -41.389  56.415 -51.535  1.00  0.00    -0.326 OA
HETATM   22  C   UNL     1     -40.985  57.409 -50.594  1.00  0.00     0.213 C 
ENDBRANCH  19  21
ENDBRANCH   3  19
BRANCH   2  23
HETATM   23  O   UNL     1     -43.805  59.165 -52.042  1.00  0.00    -0.389 OA
HETATM   24  H   UNL     1     -44.114  58.365 -51.569  1.00  0.00     0.210 HD
ENDBRANCH   2  23
BRANCH  10  25
HETATM   25  O   UNL     1     -42.207  56.343 -57.872  1.00  0.00    -0.343 OA
HETATM   26  H   UNL     1     -41.639  55.790 -57.310  1.00  0.00     0.219 HD
ENDBRANCH  10  25
TORSDOF 5
ENDMDL
MODEL 2
REMARK VINA RESULT:      -6.5      3.745      6.015
REMARK  5 active torsions:
REMARK  status: ('A' for Active; 'I' for Inactive)
REMARK    1  A    between atoms: C_2  and  O_3 
REMARK    2  A    between atoms: C_4  and  C_5 
REMARK    3  A    between atoms: C_5  and  O_6 
REMARK    4  A    between atoms: C_9  and  C_10 
REMARK    5  A    between atoms: C_22  and  O_23 
ROOT
HETATM    1  C   UNL     1     -40.467  54.659 -54.534  1.00  0.00     0.047 C 
HETATM    2  C   UNL     1     -41.666  55.607 -54.731  1.00  0.00     0.073 C 
HETATM    3  C   UNL     1     -41.379  56.979 -54.017  1.00  0.00     0.133 C 
HETATM    4  C   UNL     1     -41.506  56.959 -52.456  1.00  0.00     0.074 C 
HETATM    5  C   UNL     1     -42.326  55.817 -51.949  1.00  0.00     0.030 A 
HETATM    6  C   UNL     1     -42.990  54.924 -52.761  1.00  0.00     0.042 A 
HETATM    7  N   UNL     1     -43.591  54.009 -51.945  1.00  0.00    -0.279 N 
HETATM    8  H   UNL     1     -44.163  53.209 -52.198  1.00  0.00     0.189 HD
HETATM    9  N   UNL     1     -43.317  54.219 -50.640  1.00  0.00    -0.149 NA
HETATM   10  C   UNL     1     -42.550  55.301 -50.671  1.00  0.00     0.190 A 
HETATM   11  C   UNL     1     -42.974  54.920 -54.237  1.00  0.00     0.097 C 
ENDROOT
BRANCH   4  12
HETATM   12  C   UNL     1     -42.093  58.209 -51.808  1.00  0.00    -0.048 A 
HETATM   13  C   UNL     1     -43.481  58.451 -51.754  1.00  0.00     0.009 A 
HETATM   14  C   UNL     1     -43.987  59.621 -51.183  1.00  0.00     0.019 A 
HETATM   15  C   UNL     1     -43.110  60.567 -50.661  1.00  0.00     0.011 A 
HETATM   16 BR   UNL     1     -43.792  62.153 -49.893  1.00  0.00    -0.051 Br
HETATM   17  C   UNL     1     -41.735  60.353 -50.705  1.00  0.00     0.019 A 
HETATM   18  C   UNL     1     -41.230  59.181 -51.277  1.00  0.00     0.009 A 
ENDBRANCH   4  12
BRANCH   3  19
HETATM   19  C   UNL     1     -42.194  58.081 -54.665  1.00  0.00     0.266 C 
HETATM   20  O   UNL     1     -43.335  57.944 -55.090  1.00  0.00    -0.265 OA
BRANCH  19  21
HETATM   21  O   UNL     1     -41.458  59.225 -54.751  1.00  0.00    -0.326 OA
HETATM   22  C   UNL     1     -42.226  60.428 -54.720  1.00  0.00     0.213 C 
ENDBRANCH  19  21
ENDBRANCH   3  19
BRANCH   2  23
HETATM   23  O   UNL     1     -41.751  55.786 -56.157  1.00  0.00    -0.389 OA
HETATM   24  H   UNL     1     -42.092  54.952 -56.542  1.00  0.00     0.210 HD
ENDBRANCH   2  23
BRANCH  10  25
HETATM   25  O   UNL     1     -42.087  55.706 -49.495  1.00  0.00    -0.343 OA
HETATM   26  H   UNL     1     -41.753  56.603 -49.660  1.00  0.00     0.219 HD
ENDBRANCH  10  25
TORSDOF 5
ENDMDL
MODEL 3
REMARK VINA RESULT:      -6.4     16.173     18.094
REMARK  5 active torsions:
REMARK  status: ('A' for Active; 'I' for Inactive)
REMARK    1  A    between atoms: C_2  and  O_3 
REMARK    2  A    between atoms: C_4  and  C_5 
REMARK    3  A    between atoms: C_5  and  O_6 
REMARK    4  A    between atoms: C_9  and  C_10 
REMARK    5  A    between atoms: C_22  and  O_23 
ROOT
HETATM    1  C   UNL     1     -33.783  40.822 -50.706  1.00  0.00     0.047 C 
HETATM    2  C   UNL     1     -33.770  39.877 -51.924  1.00  0.00     0.073 C 
HETATM    3  C   UNL     1     -33.981  40.709 -53.242  1.00  0.00     0.133 C 
HETATM    4  C   UNL     1     -35.448  41.200 -53.494  1.00  0.00     0.074 C 
HETATM    5  C   UNL     1     -36.467  40.415 -52.733  1.00  0.00     0.030 A 
HETATM    6  C   UNL     1     -36.173  39.311 -51.963  1.00  0.00     0.042 A 
HETATM    7  N   UNL     1     -37.343  38.892 -51.398  1.00  0.00    -0.279 N 
HETATM    8  H   UNL     1     -37.504  38.108 -50.774  1.00  0.00     0.189 HD
HETATM    9  N   UNL     1     -38.386  39.690 -51.712  1.00  0.00    -0.149 NA
HETATM   10  C   UNL     1     -37.832  40.600 -52.503  1.00  0.00     0.190 A 
HETATM   11  C   UNL     1     -34.827  38.749 -51.734  1.00  0.00     0.097 C 
ENDROOT
BRANCH   4  12
HETATM   12  C   UNL     1     -35.923  41.197 -54.944  1.00  0.00    -0.048 A 
HETATM   13  C   UNL     1     -36.666  40.133 -55.494  1.00  0.00     0.009 A 
HETATM   14  C   UNL     1     -37.058  40.144 -56.834  1.00  0.00     0.019 A 
HETATM   15  C   UNL     1     -36.709  41.220 -57.644  1.00  0.00     0.011 A 
HETATM   16 BR   UNL     1     -37.234  41.236 -59.459  1.00  0.00    -0.051 Br
HETATM   17  C   UNL     1     -35.973  42.283 -57.126  1.00  0.00     0.019 A 
HETATM   18  C   UNL     1     -35.580  42.269 -55.784  1.00  0.00     0.009 A 
ENDBRANCH   4  12
BRANCH   3  19
HETATM   19  C   UNL     1     -33.392  39.967 -54.425  1.00  0.00     0.266 C 
HETATM   20  O   UNL     1     -33.606  38.789 -54.682  1.00  0.00    -0.265 OA
BRANCH  19  21
HETATM   21  O   UNL     1     -32.554  40.782 -55.125  1.00  0.00    -0.326 OA
HETATM   22  C   UNL     1     -32.362  40.405 -56.488  1.00  0.00     0.213 C 
ENDBRANCH  19  21
ENDBRANCH   3  19
BRANCH   2  23
HETATM   23  O   UNL     1     -32.458  39.285 -51.904  1.00  0.00    -0.389 OA
HETATM   24  H   UNL     1     -31.926  39.761 -51.233  1.00  0.00     0.210 HD
ENDBRANCH   2  23
BRANCH  10  25
HETATM   25  O   UNL     1     -38.646  41.560 -52.926  1.00  0.00    -0.343 OA
HETATM   26  H   UNL     1     -38.052  42.249 -53.269  1.00  0.00     0.219 HD
ENDBRANCH  10  25
TORSDOF 5
ENDMDL
MODEL 4
REMARK VINA RESULT:      -6.3      2.773      4.618
REMARK  5 active torsions:
REMARK  status: ('A' for Active; 'I' for Inactive)
REMARK    1  A    between atoms: C_2  and  O_3 
REMARK    2  A    between atoms: C_4  and  C_5 
REMARK    3  A    between atoms: C_5  and  O_6 
REMARK    4  A    between atoms: C_9  and  C_10 
REMARK    5  A    between atoms: C_22  and  O_23 
ROOT
HETATM    1  C   UNL     1     -44.752  57.686 -55.632  1.00  0.00     0.047 C 
HETATM    2  C   UNL     1     -43.296  57.677 -55.126  1.00  0.00     0.073 C 
HETATM    3  C   UNL     1     -43.071  56.438 -54.184  1.00  0.00     0.133 C 
HETATM    4  C   UNL     1     -43.690  56.568 -52.750  1.00  0.00     0.074 C 
HETATM    5  C   UNL     1     -43.956  57.983 -52.353  1.00  0.00     0.030 A 
HETATM    6  C   UNL     1     -43.609  59.077 -53.115  1.00  0.00     0.042 A 
HETATM    7  N   UNL     1     -44.045  60.187 -52.450  1.00  0.00    -0.279 N 
HETATM    8  H   UNL     1     -43.962  61.162 -52.716  1.00  0.00     0.189 HD
HETATM    9  N   UNL     1     -44.708  59.882 -51.314  1.00  0.00    -0.149 NA
HETATM   10  C   UNL     1     -44.649  58.557 -51.284  1.00  0.00     0.190 A 
HETATM   11  C   UNL     1     -42.963  59.037 -54.442  1.00  0.00     0.097 C 
ENDROOT
BRANCH   4  12
HETATM   12  C   UNL     1     -42.880  55.963 -51.606  1.00  0.00    -0.048 A 
HETATM   13  C   UNL     1     -41.942  56.711 -50.867  1.00  0.00     0.009 A 
HETATM   14  C   UNL     1     -41.192  56.121 -49.847  1.00  0.00     0.019 A 
HETATM   15  C   UNL     1     -41.370  54.772 -49.555  1.00  0.00     0.011 A 
HETATM   16 BR   UNL     1     -40.354  53.970 -48.179  1.00  0.00    -0.051 Br
HETATM   17  C   UNL     1     -42.289  54.010 -50.273  1.00  0.00     0.019 A 
HETATM   18  C   UNL     1     -43.038  54.603 -51.294  1.00  0.00     0.009 A 
ENDBRANCH   4  12
BRANCH   3  19
HETATM   19  C   UNL     1     -41.604  56.060 -54.165  1.00  0.00     0.266 C 
HETATM   20  O   UNL     1     -40.686  56.848 -53.970  1.00  0.00    -0.265 OA
BRANCH  19  21
HETATM   21  O   UNL     1     -41.452  54.736 -54.447  1.00  0.00    -0.326 OA
HETATM   22  C   UNL     1     -40.187  54.390 -55.011  1.00  0.00     0.213 C 
ENDBRANCH  19  21
ENDBRANCH   3  19
BRANCH   2  23
HETATM   23  O   UNL     1     -42.502  57.556 -56.320  1.00  0.00    -0.389 OA
HETATM   24  H   UNL     1     -42.636  56.654 -56.677  1.00  0.00     0.210 HD
ENDBRANCH   2  23
BRANCH  10  25
HETATM   25  O   UNL     1     -45.282  57.980 -50.270  1.00  0.00    -0.343 OA
HETATM   26  H   UNL     1     -45.301  58.659 -49.576  1.00  0.00     0.219 HD
ENDBRANCH  10  25
TORSDOF 5
ENDMDL
MODEL 5
REMARK VINA RESULT:      -6.1      1.593      2.263
REMARK  5 active torsions:
REMARK  status: ('A' for Active; 'I' for Inactive)
REMARK    1  A    between atoms: C_2  and  O_3 
REMARK    2  A    between atoms: C_4  and  C_5 
REMARK    3  A    between atoms: C_5  and  O_6 
REMARK    4  A    between atoms: C_9  and  C_10 
REMARK    5  A    between atoms: C_22  and  O_23 
ROOT
HETATM    1  C   UNL     1     -44.365  60.423 -56.565  1.00  0.00     0.047 C 
HETATM    2  C   UNL     1     -44.825  59.240 -55.690  1.00  0.00     0.073 C 
HETATM    3  C   UNL     1     -43.570  58.499 -55.099  1.00  0.00     0.133 C 
HETATM    4  C   UNL     1     -42.791  57.593 -56.112  1.00  0.00     0.074 C 
HETATM    5  C   UNL     1     -43.610  57.202 -57.299  1.00  0.00     0.030 A 
HETATM    6  C   UNL     1     -44.943  57.515 -57.453  1.00  0.00     0.042 A 
HETATM    7  N   UNL     1     -45.334  57.028 -58.667  1.00  0.00    -0.279 N 
HETATM    8  H   UNL     1     -46.246  57.075 -59.109  1.00  0.00     0.189 HD
HETATM    9  N   UNL     1     -44.317  56.456 -59.347  1.00  0.00    -0.149 NA
HETATM   10  C   UNL     1     -43.295  56.583 -58.510  1.00  0.00     0.190 A 
HETATM   11  C   UNL     1     -45.761  58.304 -56.510  1.00  0.00     0.097 C 
ENDROOT
BRANCH   4  12
HETATM   12  C   UNL     1     -42.220  56.292 -55.557  1.00  0.00    -0.048 A 
HETATM   13  C   UNL     1     -40.936  56.215 -54.982  1.00  0.00     0.009 A 
HETATM   14  C   UNL     1     -40.427  55.001 -54.512  1.00  0.00     0.019 A 
HETATM   15  C   UNL     1     -41.197  53.847 -54.615  1.00  0.00     0.011 A 
HETATM   16 BR   UNL     1     -40.511  52.204 -53.985  1.00  0.00    -0.051 Br
HETATM   17  C   UNL     1     -42.468  53.896 -55.183  1.00  0.00     0.019 A 
HETATM   18  C   UNL     1     -42.975  55.112 -55.653  1.00  0.00     0.009 A 
ENDBRANCH   4  12
BRANCH   3  19
HETATM   19  C   UNL     1     -43.949  57.773 -53.824  1.00  0.00     0.266 C 
HETATM   20  O   UNL     1     -44.930  57.050 -53.701  1.00  0.00    -0.265 OA
BRANCH  19  21
HETATM   21  O   UNL     1     -43.073  58.080 -52.826  1.00  0.00    -0.326 OA
HETATM   22  C   UNL     1     -42.827  57.018 -51.904  1.00  0.00     0.213 C 
ENDBRANCH  19  21
ENDBRANCH   3  19
BRANCH   2  23
HETATM   23  O   UNL     1     -45.594  59.851 -54.637  1.00  0.00    -0.389 OA
HETATM   24  H   UNL     1     -45.247  59.519 -53.784  1.00  0.00     0.210 HD
ENDBRANCH   2  23
BRANCH  10  25
HETATM   25  O   UNL     1     -42.129  56.136 -58.961  1.00  0.00    -0.343 OA
HETATM   26  H   UNL     1     -42.161  56.295 -59.919  1.00  0.00     0.219 HD
ENDBRANCH  10  25
TORSDOF 5
ENDMDL
MODEL 6
REMARK VINA RESULT:      -6.1      3.173      5.162
REMARK  5 active torsions:
REMARK  status: ('A' for Active; 'I' for Inactive)
REMARK    1  A    between atoms: C_2  and  O_3 
REMARK    2  A    between atoms: C_4  and  C_5 
REMARK    3  A    between atoms: C_5  and  O_6 
REMARK    4  A    between atoms: C_9  and  C_10 
REMARK    5  A    between atoms: C_22  and  O_23 
ROOT
HETATM    1  C   UNL     1     -42.011  53.335 -53.993  1.00  0.00     0.047 C 
HETATM    2  C   UNL     1     -41.373  54.580 -53.346  1.00  0.00     0.073 C 
HETATM    3  C   UNL     1     -42.428  55.300 -52.429  1.00  0.00     0.133 C 
HETATM    4  C   UNL     1     -43.528  56.117 -53.189  1.00  0.00     0.074 C 
HETATM    5  C   UNL     1     -43.130  56.478 -54.583  1.00  0.00     0.030 A 
HETATM    6  C   UNL     1     -41.892  56.212 -55.125  1.00  0.00     0.042 A 
HETATM    7  N   UNL     1     -41.917  56.650 -56.419  1.00  0.00    -0.279 N 
HETATM    8  H   UNL     1     -41.180  56.617 -57.116  1.00  0.00     0.189 HD
HETATM    9  N   UNL     1     -43.122  57.143 -56.776  1.00  0.00    -0.149 NA
HETATM   10  C   UNL     1     -43.832  57.018 -55.663  1.00  0.00     0.190 A 
HETATM   11  C   UNL     1     -40.784  55.509 -54.449  1.00  0.00     0.097 C 
ENDROOT
BRANCH   4  12
HETATM   12  C   UNL     1     -43.974  57.422 -52.536  1.00  0.00    -0.048 A 
HETATM   13  C   UNL     1     -43.431  58.671 -52.897  1.00  0.00     0.009 A 
HETATM   14  C   UNL     1     -43.837  59.846 -52.257  1.00  0.00     0.019 A 
HETATM   15  C   UNL     1     -44.789  59.784 -51.245  1.00  0.00     0.011 A 
HETATM   16 BR   UNL     1     -45.336  61.369 -50.375  1.00  0.00    -0.051 Br
HETATM   17  C   UNL     1     -45.339  58.561 -50.868  1.00  0.00     0.019 A 
HETATM   18  C   UNL     1     -44.931  57.387 -51.508  1.00  0.00     0.009 A 
ENDBRANCH   4  12
BRANCH   3  19
HETATM   19  C   UNL     1     -41.721  56.108 -51.359  1.00  0.00     0.266 C 
HETATM   20  O   UNL     1     -40.829  56.919 -51.577  1.00  0.00    -0.265 OA
BRANCH  19  21
HETATM   21  O   UNL     1     -42.182  55.764 -50.124  1.00  0.00    -0.326 OA
HETATM   22  C   UNL     1     -41.186  55.246 -49.241  1.00  0.00     0.213 C 
ENDBRANCH  19  21
ENDBRANCH   3  19
BRANCH   2  23
HETATM   23  O   UNL     1     -40.288  54.058 -52.557  1.00  0.00    -0.389 OA
HETATM   24  H   UNL     1     -39.679  53.587 -53.163  1.00  0.00     0.210 HD
ENDBRANCH   2  23
BRANCH  10  25
HETATM   25  O   UNL     1     -45.103  57.392 -55.752  1.00  0.00    -0.343 OA
HETATM   26  H   UNL     1     -45.583  56.575 -55.965  1.00  0.00     0.219 HD
ENDBRANCH  10  25
TORSDOF 5
ENDMDL
MODEL 7
REMARK VINA RESULT:      -6.0      3.234      4.952
REMARK  5 active torsions:
REMARK  status: ('A' for Active; 'I' for Inactive)
REMARK    1  A    between atoms: C_2  and  O_3 
REMARK    2  A    between atoms: C_4  and  C_5 
REMARK    3  A    between atoms: C_5  and  O_6 
REMARK    4  A    between atoms: C_9  and  C_10 
REMARK    5  A    between atoms: C_22  and  O_23 
ROOT
HETATM    1  C   UNL     1     -43.369  54.674 -50.544  1.00  0.00     0.047 C 
HETATM    2  C   UNL     1     -42.557  55.851 -51.120  1.00  0.00     0.073 C 
HETATM    3  C   UNL     1     -43.475  56.722 -52.053  1.00  0.00     0.133 C 
HETATM    4  C   UNL     1     -43.784  56.098 -53.457  1.00  0.00     0.074 C 
HETATM    5  C   UNL     1     -42.800  55.050 -53.862  1.00  0.00     0.030 A 
HETATM    6  C   UNL     1     -41.677  54.724 -53.134  1.00  0.00     0.042 A 
HETATM    7  N   UNL     1     -41.050  53.706 -53.794  1.00  0.00    -0.279 N 
HETATM    8  H   UNL     1     -40.195  53.218 -53.547  1.00  0.00     0.189 HD
HETATM    9  N   UNL     1     -41.726  53.307 -54.893  1.00  0.00    -0.149 NA
HETATM   10  C   UNL     1     -42.774  54.121 -54.904  1.00  0.00     0.190 A 
HETATM   11  C   UNL     1     -41.283  55.315 -51.839  1.00  0.00     0.097 C 
ENDROOT
BRANCH   4  12
HETATM   12  C   UNL     1     -43.857  57.073 -54.629  1.00  0.00    -0.048 A 
HETATM   13  C   UNL     1     -42.718  57.453 -55.367  1.00  0.00     0.009 A 
HETATM   14  C   UNL     1     -42.811  58.373 -56.414  1.00  0.00     0.019 A 
HETATM   15  C   UNL     1     -44.046  58.926 -56.736  1.00  0.00     0.011 A 
HETATM   16 BR   UNL     1     -44.175  60.174 -58.149  1.00  0.00    -0.051 Br
HETATM   17  C   UNL     1     -45.187  58.569 -56.020  1.00  0.00     0.019 A 
HETATM   18  C   UNL     1     -45.091  57.649 -54.972  1.00  0.00     0.009 A 
ENDBRANCH   4  12
BRANCH   3  19
HETATM   19  C   UNL     1     -42.937  58.136 -52.137  1.00  0.00     0.266 C 
HETATM   20  O   UNL     1     -41.757  58.422 -52.296  1.00  0.00    -0.265 OA
BRANCH  19  21
HETATM   21  O   UNL     1     -43.944  59.037 -51.960  1.00  0.00    -0.326 OA
HETATM   22  C   UNL     1     -44.990  58.595 -51.094  1.00  0.00     0.213 C 
ENDBRANCH  19  21
ENDBRANCH   3  19
BRANCH   2  23
HETATM   23  O   UNL     1     -42.149  56.605 -49.964  1.00  0.00    -0.389 OA
HETATM   24  H   UNL     1     -41.245  56.314 -49.722  1.00  0.00     0.210 HD
ENDBRANCH   2  23
BRANCH  10  25
HETATM   25  O   UNL     1     -43.652  53.907 -55.878  1.00  0.00    -0.343 OA
HETATM   26  H   UNL     1     -44.476  53.678 -55.417  1.00  0.00     0.219 HD
ENDBRANCH  10  25
TORSDOF 5
ENDMDL
MODEL 8
REMARK VINA RESULT:      -5.9      3.382      5.218
REMARK  5 active torsions:
REMARK  status: ('A' for Active; 'I' for Inactive)
REMARK    1  A    between atoms: C_2  and  O_3 
REMARK    2  A    between atoms: C_4  and  C_5 
REMARK    3  A    between atoms: C_5  and  O_6 
REMARK    4  A    between atoms: C_9  and  C_10 
REMARK    5  A    between atoms: C_22  and  O_23 
ROOT
HETATM    1  C   UNL     1     -42.371  58.392 -51.351  1.00  0.00     0.047 C 
HETATM    2  C   UNL     1     -41.839  58.714 -52.762  1.00  0.00     0.073 C 
HETATM    3  C   UNL     1     -43.044  59.008 -53.728  1.00  0.00     0.133 C 
HETATM    4  C   UNL     1     -43.849  57.747 -54.195  1.00  0.00     0.074 C 
HETATM    5  C   UNL     1     -43.079  56.474 -54.053  1.00  0.00     0.030 A 
HETATM    6  C   UNL     1     -41.763  56.410 -53.649  1.00  0.00     0.042 A 
HETATM    7  N   UNL     1     -41.420  55.089 -53.603  1.00  0.00    -0.279 N 
HETATM    8  H   UNL     1     -40.532  54.671 -53.347  1.00  0.00     0.189 HD
HETATM    9  N   UNL     1     -42.454  54.275 -53.904  1.00  0.00    -0.149 NA
HETATM   10  C   UNL     1     -43.437  55.129 -54.160  1.00  0.00     0.190 A 
HETATM   11  C   UNL     1     -40.920  57.559 -53.260  1.00  0.00     0.097 C 
ENDROOT
BRANCH   4  12
HETATM   12  C   UNL     1     -44.359  57.763 -55.633  1.00  0.00    -0.048 A 
HETATM   13  C   UNL     1     -43.568  57.340 -56.720  1.00  0.00     0.009 A 
HETATM   14  C   UNL     1     -44.051  57.398 -58.029  1.00  0.00     0.019 A 
HETATM   15  C   UNL     1     -45.333  57.883 -58.268  1.00  0.00     0.011 A 
HETATM   16 BR   UNL     1     -45.988  57.966 -60.039  1.00  0.00    -0.051 Br
HETATM   17  C   UNL     1     -46.134  58.310 -57.212  1.00  0.00     0.019 A 
HETATM   18  C   UNL     1     -45.648  58.252 -55.902  1.00  0.00     0.009 A 
ENDBRANCH   4  12
BRANCH   3  19
HETATM   19  C   UNL     1     -42.586  59.879 -54.880  1.00  0.00     0.266 C 
HETATM   20  O   UNL     1     -41.533  59.729 -55.489  1.00  0.00    -0.265 OA
BRANCH  19  21
HETATM   21  O   UNL     1     -43.484  60.878 -55.105  1.00  0.00    -0.326 OA
HETATM   22  C   UNL     1     -43.569  61.306 -56.464  1.00  0.00     0.213 C 
ENDBRANCH  19  21
ENDBRANCH   3  19
BRANCH   2  23
HETATM   23  O   UNL     1     -41.035  59.894 -52.581  1.00  0.00    -0.389 OA
HETATM   24  H   UNL     1     -41.519  60.495 -51.978  1.00  0.00     0.210 HD
ENDBRANCH   2  23
BRANCH  10  25
HETATM   25  O   UNL     1     -44.612  54.579 -54.442  1.00  0.00    -0.343 OA
HETATM   26  H   UNL     1     -45.265  55.244 -54.166  1.00  0.00     0.219 HD
ENDBRANCH  10  25
TORSDOF 5
ENDMDL
MODEL 9
REMARK VINA RESULT:      -5.8      3.749      6.029
REMARK  5 active torsions:
REMARK  status: ('A' for Active; 'I' for Inactive)
REMARK    1  A    between atoms: C_2  and  O_3 
REMARK    2  A    between atoms: C_4  and  C_5 
REMARK    3  A    between atoms: C_5  and  O_6 
REMARK    4  A    between atoms: C_9  and  C_10 
REMARK    5  A    between atoms: C_22  and  O_23 
ROOT
HETATM    1  C   UNL     1     -41.221  54.506 -55.304  1.00  0.00     0.047 C 
HETATM    2  C   UNL     1     -42.609  55.107 -55.005  1.00  0.00     0.073 C 
HETATM    3  C   UNL     1     -42.463  56.637 -54.676  1.00  0.00     0.133 C 
HETATM    4  C   UNL     1     -41.890  56.963 -53.254  1.00  0.00     0.074 C 
HETATM    5  C   UNL     1     -42.030  55.829 -52.292  1.00  0.00     0.030 A 
HETATM    6  C   UNL     1     -42.681  54.650 -52.580  1.00  0.00     0.042 A 
HETATM    7  N   UNL     1     -42.569  53.849 -51.479  1.00  0.00    -0.279 N 
HETATM    8  H   UNL     1     -42.928  52.911 -51.335  1.00  0.00     0.189 HD
HETATM    9  N   UNL     1     -41.834  54.416 -50.499  1.00  0.00    -0.149 NA
HETATM   10  C   UNL     1     -41.516  55.596 -51.015  1.00  0.00     0.190 A 
HETATM   11  C   UNL     1     -43.305  54.298 -53.871  1.00  0.00     0.097 C 
ENDROOT
BRANCH   4  12
HETATM   12  C   UNL     1     -42.482  58.180 -52.548  1.00  0.00    -0.048 A 
HETATM   13  C   UNL     1     -43.636  58.099 -51.744  1.00  0.00     0.009 A 
HETATM   14  C   UNL     1     -44.173  59.237 -51.137  1.00  0.00     0.019 A 
HETATM   15  C   UNL     1     -43.563  60.472 -51.329  1.00  0.00     0.011 A 
HETATM   16 BR   UNL     1     -44.289  62.013 -50.514  1.00  0.00    -0.051 Br
HETATM   17  C   UNL     1     -42.423  60.579 -52.122  1.00  0.00     0.019 A 
HETATM   18  C   UNL     1     -41.887  59.439 -52.730  1.00  0.00     0.009 A 
ENDBRANCH   4  12
BRANCH   3  19
HETATM   19  C   UNL     1     -43.764  57.358 -54.971  1.00  0.00     0.266 C 
HETATM   20  O   UNL     1     -44.873  56.952 -54.643  1.00  0.00    -0.265 OA
BRANCH  19  21
HETATM   21  O   UNL     1     -43.526  58.488 -55.694  1.00  0.00    -0.326 OA
HETATM   22  C   UNL     1     -42.478  58.367 -56.656  1.00  0.00     0.213 C 
ENDBRANCH  19  21
ENDBRANCH   3  19
BRANCH   2  23
HETATM   23  O   UNL     1     -43.350  54.919 -56.225  1.00  0.00    -0.389 OA
HETATM   24  H   UNL     1     -43.178  55.693 -56.800  1.00  0.00     0.210 HD
ENDBRANCH   2  23
BRANCH  10  25
HETATM   25  O   UNL     1     -40.733  56.357 -50.259  1.00  0.00    -0.343 OA
HETATM   26  H   UNL     1     -41.206  57.204 -50.194  1.00  0.00     0.219 HD
ENDBRANCH  10  25
TORSDOF 5
ENDMDL
MODEL 10
REMARK VINA RESULT:      -5.7      3.940      5.571
REMARK  5 active torsions:
REMARK  status: ('A' for Active; 'I' for Inactive)
REMARK    1  A    between atoms: C_2  and  O_3 
REMARK    2  A    between atoms: C_4  and  C_5 
REMARK    3  A    between atoms: C_5  and  O_6 
REMARK    4  A    between atoms: C_9  and  C_10 
REMARK    5  A    between atoms: C_22  and  O_23 
ROOT
HETATM    1  C   UNL     1     -41.357  52.790 -48.903  1.00  0.00     0.047 C 
HETATM    2  C   UNL     1     -40.851  54.099 -49.541  1.00  0.00     0.073 C 
HETATM    3  C   UNL     1     -41.917  54.636 -50.565  1.00  0.00     0.133 C 
HETATM    4  C   UNL     1     -41.983  53.864 -51.927  1.00  0.00     0.074 C 
HETATM    5  C   UNL     1     -40.741  53.087 -52.221  1.00  0.00     0.030 A 
HETATM    6  C   UNL     1     -39.610  53.116 -51.436  1.00  0.00     0.042 A 
HETATM    7  N   UNL     1     -38.708  52.258 -51.998  1.00  0.00    -0.279 N 
HETATM    8  H   UNL     1     -37.769  52.029 -51.689  1.00  0.00     0.189 HD
HETATM    9  N   UNL     1     -39.202  51.625 -53.083  1.00  0.00    -0.149 NA
HETATM   10  C   UNL     1     -40.424  52.132 -53.189  1.00  0.00     0.190 A 
HETATM   11  C   UNL     1     -39.448  53.872 -50.178  1.00  0.00     0.097 C 
ENDROOT
BRANCH   4  12
HETATM   12  C   UNL     1     -42.249  54.707 -53.171  1.00  0.00    -0.048 A 
HETATM   13  C   UNL     1     -43.543  54.890 -53.697  1.00  0.00     0.009 A 
HETATM   14  C   UNL     1     -43.751  55.641 -54.857  1.00  0.00     0.019 A 
HETATM   15  C   UNL     1     -42.664  56.215 -55.507  1.00  0.00     0.011 A 
HETATM   16 BR   UNL     1     -42.940  57.227 -57.079  1.00  0.00    -0.051 Br
HETATM   17  C   UNL     1     -41.374  56.046 -55.010  1.00  0.00     0.019 A 
HETATM   18  C   UNL     1     -41.168  55.294 -53.849  1.00  0.00     0.009 A 
ENDBRANCH   4  12
BRANCH   3  19
HETATM   19  C   UNL     1     -41.762  56.134 -50.738  1.00  0.00     0.266 C 
HETATM   20  O   UNL     1     -40.687  56.721 -50.777  1.00  0.00    -0.265 OA
BRANCH  19  21
HETATM   21  O   UNL     1     -42.984  56.733 -50.792  1.00  0.00    -0.326 OA
HETATM   22  C   UNL     1     -43.018  57.946 -51.545  1.00  0.00     0.213 C 
ENDBRANCH  19  21
ENDBRANCH   3  19
BRANCH   2  23
HETATM   23  O   UNL     1     -40.711  55.007 -48.433  1.00  0.00    -0.389 OA
HETATM   24  H   UNL     1     -41.608  55.304 -48.176  1.00  0.00     0.210 HD
ENDBRANCH   2  23
BRANCH  10  25
HETATM   25  O   UNL     1     -41.166  51.633 -54.170  1.00  0.00    -0.343 OA
HETATM   26  H   UNL     1     -42.078  51.863 -53.926  1.00  0.00     0.219 HD
ENDBRANCH  10  25
TORSDOF 5
ENDMDL
