MODEL 1
REMARK VINA RESULT:      -9.1      0.000      0.000
REMARK  9 active torsions:
REMARK  status: ('A' for Active; 'I' for Inactive)
REMARK    1  A    between atoms: C_2  and  C_3 
REMARK    2  A    between atoms: C_3  and  C_4 
REMARK    3  A    between atoms: C_4  and  C_5 
REMARK    4  A    between atoms: C_5  and  N_6 
REMARK    5  A    between atoms: C_9  and  C_10 
REMARK       I    between atoms: C_10  and  N_11 
REMARK    6  A    between atoms: N_11  and  N_12 
REMARK    7  A    between atoms: C_13  and  C_14 
REMARK    8  A    between atoms: C_24  and  O_25 
REMARK    9  A    between atoms: C_28  and  O_29 
ROOT
HETATM    1  C   UNL     1     -41.713  58.516 -52.629  1.00  0.00     0.280 C 
HETATM    2  N   UNL     1     -42.998  58.781 -53.087  1.00  0.00    -0.242 N 
HETATM    3  O   UNL     1     -40.766  59.290 -52.639  1.00  0.00    -0.266 OA
HETATM    4  H   UNL     1     -43.684  58.031 -53.119  1.00  0.00     0.192 HD
ENDROOT
BRANCH   1   5
HETATM    5  C   UNL     1     -41.566  57.114 -52.180  1.00  0.00     0.135 A 
HETATM    6  C   UNL     1     -41.691  56.022 -53.174  1.00  0.00     0.266 A 
HETATM    7  N   UNL     1     -41.504  54.712 -52.728  1.00  0.00    -0.313 N 
HETATM    8  O   UNL     1     -41.918  56.298 -54.351  1.00  0.00    -0.267 OA
HETATM    9  C   UNL     1     -41.155  54.422 -51.369  1.00  0.00     0.050 A 
HETATM   10  C   UNL     1     -41.054  55.483 -50.447  1.00  0.00     0.025 A 
HETATM   11  C   UNL     1     -40.898  53.116 -50.917  1.00  0.00     0.031 A 
HETATM   12  C   UNL     1     -41.294  56.863 -50.890  1.00  0.00     0.099 A 
HETATM   13  C   UNL     1     -40.717  55.212 -49.107  1.00  0.00     0.016 A 
HETATM   14  C   UNL     1     -40.475  53.910 -48.677  1.00  0.00     0.001 A 
HETATM   15  C   UNL     1     -40.564  52.864 -49.583  1.00  0.00     0.002 A 
BRANCH   7  16
HETATM   16  C   UNL     1     -41.696  53.652 -53.720  1.00  0.00     0.132 C 
BRANCH  16  17
HETATM   17  C   UNL     1     -40.458  53.357 -54.578  1.00  0.00     0.020 C 
BRANCH  17  18
HETATM   18  C   UNL     1     -39.649  52.145 -54.116  1.00  0.00     0.001 C 
BRANCH  18  19
HETATM   19  C   UNL     1     -40.435  50.851 -54.340  1.00  0.00    -0.004 C 
HETATM   20  C   UNL     1     -39.583  49.623 -54.064  1.00  0.00     0.005 C 
ENDBRANCH  18  19
ENDBRANCH  17  18
ENDBRANCH  16  17
ENDBRANCH   7  16
BRANCH  12  21
HETATM   21  O   UNL     1     -41.191  57.834 -49.908  1.00  0.00    -0.359 OA
HETATM   22  H   UNL     1     -41.028  57.419 -49.038  1.00  0.00     0.218 HD
ENDBRANCH  12  21
ENDBRANCH   1   5
BRANCH   2  23
HETATM   23  N   UNL     1     -43.328  60.038 -53.495  1.00  0.00    -0.176 NA
HETATM   24  C   UNL     1     -43.583  60.273 -54.748  1.00  0.00     0.069 C 
HETATM   25  C   UNL     1     -43.903  61.711 -55.102  1.00  0.00     0.073 C 
BRANCH  24  26
HETATM   26  C   UNL     1     -43.616  59.288 -55.871  1.00  0.00     0.092 A 
HETATM   27  C   UNL     1     -44.701  58.265 -55.929  1.00  0.00     0.261 A 
HETATM   28  O   UNL     1     -45.593  58.222 -55.088  1.00  0.00    -0.267 OA
HETATM   29  N   UNL     1     -44.675  57.377 -56.968  1.00  0.00    -0.322 N 
HETATM   30  C   UNL     1     -43.703  57.387 -57.971  1.00  0.00     0.048 A 
HETATM   31  H   UNL     1     -45.426  56.698 -56.990  1.00  0.00     0.169 HD
HETATM   32  C   UNL     1     -42.670  58.333 -57.920  1.00  0.00     0.025 A 
HETATM   33  C   UNL     1     -43.785  56.461 -59.013  1.00  0.00     0.030 A 
HETATM   34  C   UNL     1     -41.717  58.339 -58.947  1.00  0.00     0.016 A 
HETATM   35  C   UNL     1     -42.636  59.288 -56.797  1.00  0.00     0.096 A 
HETATM   36  C   UNL     1     -41.799  57.419 -59.996  1.00  0.00     0.001 A 
HETATM   37  C   UNL     1     -42.829  56.480 -60.027  1.00  0.00     0.002 A 
BRANCH  35  38
HETATM   38  O   UNL     1     -41.570  60.170 -56.810  1.00  0.00    -0.359 OA
HETATM   39  H   UNL     1     -41.384  60.495 -55.904  1.00  0.00     0.218 HD
ENDBRANCH  35  38
ENDBRANCH  24  26
ENDBRANCH   2  23
TORSDOF 9
ENDMDL
MODEL 2
REMARK VINA RESULT:      -8.9      1.889      6.482
REMARK  9 active torsions:
REMARK  status: ('A' for Active; 'I' for Inactive)
REMARK    1  A    between atoms: C_2  and  C_3 
REMARK    2  A    between atoms: C_3  and  C_4 
REMARK    3  A    between atoms: C_4  and  C_5 
REMARK    4  A    between atoms: C_5  and  N_6 
REMARK    5  A    between atoms: C_9  and  C_10 
REMARK       I    between atoms: C_10  and  N_11 
REMARK    6  A    between atoms: N_11  and  N_12 
REMARK    7  A    between atoms: C_13  and  C_14 
REMARK    8  A    between atoms: C_24  and  O_25 
REMARK    9  A    between atoms: C_28  and  O_29 
ROOT
HETATM    1  C   UNL     1     -42.243  59.729 -54.242  1.00  0.00     0.280 C 
HETATM    2  N   UNL     1     -43.520  59.962 -53.747  1.00  0.00    -0.242 N 
HETATM    3  O   UNL     1     -41.198  60.183 -53.795  1.00  0.00    -0.266 OA
HETATM    4  H   UNL     1     -44.328  59.611 -54.255  1.00  0.00     0.192 HD
ENDROOT
BRANCH   1   5
HETATM    5  C   UNL     1     -42.270  58.907 -55.472  1.00  0.00     0.135 A 
HETATM    6  C   UNL     1     -42.574  57.461 -55.365  1.00  0.00     0.266 A 
HETATM    7  N   UNL     1     -42.634  56.720 -56.547  1.00  0.00    -0.313 N 
HETATM    8  O   UNL     1     -42.796  56.969 -54.260  1.00  0.00    -0.267 OA
HETATM    9  C   UNL     1     -42.456  57.334 -57.830  1.00  0.00     0.050 A 
HETATM   10  C   UNL     1     -42.158  58.710 -57.895  1.00  0.00     0.025 A 
HETATM   11  C   UNL     1     -42.578  56.618 -59.034  1.00  0.00     0.031 A 
HETATM   12  C   UNL     1     -42.045  59.493 -56.658  1.00  0.00     0.099 A 
HETATM   13  C   UNL     1     -41.976  59.324 -59.149  1.00  0.00     0.016 A 
HETATM   14  C   UNL     1     -42.092  58.596 -60.329  1.00  0.00     0.001 A 
HETATM   15  C   UNL     1     -42.396  57.243 -60.270  1.00  0.00     0.002 A 
BRANCH   7  16
HETATM   16  C   UNL     1     -42.875  55.282 -56.405  1.00  0.00     0.132 C 
BRANCH  16  17
HETATM   17  C   UNL     1     -41.695  54.500 -55.809  1.00  0.00     0.020 C 
BRANCH  17  18
HETATM   18  C   UNL     1     -42.040  53.710 -54.548  1.00  0.00     0.001 C 
BRANCH  18  19
HETATM   19  C   UNL     1     -40.770  53.210 -53.855  1.00  0.00    -0.004 C 
HETATM   20  C   UNL     1     -40.373  51.827 -54.341  1.00  0.00     0.005 C 
ENDBRANCH  18  19
ENDBRANCH  17  18
ENDBRANCH  16  17
ENDBRANCH   7  16
BRANCH  12  21
HETATM   21  O   UNL     1     -41.729  60.831 -56.823  1.00  0.00    -0.359 OA
HETATM   22  H   UNL     1     -41.128  60.945 -57.585  1.00  0.00     0.218 HD
ENDBRANCH  12  21
ENDBRANCH   1   5
BRANCH   2  23
HETATM   23  N   UNL     1     -43.683  60.663 -52.589  1.00  0.00    -0.176 NA
HETATM   24  C   UNL     1     -43.694  60.046 -51.446  1.00  0.00     0.069 C 
HETATM   25  C   UNL     1     -43.919  60.913 -50.225  1.00  0.00     0.073 C 
BRANCH  24  26
HETATM   26  C   UNL     1     -43.493  58.585 -51.197  1.00  0.00     0.092 A 
HETATM   27  C   UNL     1     -44.676  57.682 -51.091  1.00  0.00     0.261 A 
HETATM   28  O   UNL     1     -45.822  58.100 -51.228  1.00  0.00    -0.267 OA
HETATM   29  N   UNL     1     -44.438  56.359 -50.847  1.00  0.00    -0.322 N 
HETATM   30  C   UNL     1     -43.159  55.815 -50.705  1.00  0.00     0.048 A 
HETATM   31  H   UNL     1     -45.256  55.765 -50.787  1.00  0.00     0.169 HD
HETATM   32  C   UNL     1     -42.040  56.655 -50.788  1.00  0.00     0.025 A 
HETATM   33  C   UNL     1     -43.019  54.442 -50.495  1.00  0.00     0.030 A 
HETATM   34  C   UNL     1     -40.766  56.086 -50.664  1.00  0.00     0.016 A 
HETATM   35  C   UNL     1     -42.250  58.096 -51.014  1.00  0.00     0.096 A 
HETATM   36  C   UNL     1     -40.620  54.711 -50.461  1.00  0.00     0.001 A 
HETATM   37  C   UNL     1     -41.743  53.891 -50.374  1.00  0.00     0.002 A 
BRANCH  35  38
HETATM   38  O   UNL     1     -41.095  58.857 -51.057  1.00  0.00    -0.359 OA
HETATM   39  H   UNL     1     -41.279  59.737 -51.447  1.00  0.00     0.218 HD
ENDBRANCH  35  38
ENDBRANCH  24  26
ENDBRANCH   2  23
TORSDOF 9
ENDMDL
MODEL 3
REMARK VINA RESULT:      -8.9      1.920      4.229
REMARK  9 active torsions:
REMARK  status: ('A' for Active; 'I' for Inactive)
REMARK    1  A    between atoms: C_2  and  C_3 
REMARK    2  A    between atoms: C_3  and  C_4 
REMARK    3  A    between atoms: C_4  and  C_5 
REMARK    4  A    between atoms: C_5  and  N_6 
REMARK    5  A    between atoms: C_9  and  C_10 
REMARK       I    between atoms: C_10  and  N_11 
REMARK    6  A    between atoms: N_11  and  N_12 
REMARK    7  A    between atoms: C_13  and  C_14 
REMARK    8  A    between atoms: C_24  and  O_25 
REMARK    9  A    between atoms: C_28  and  O_29 
ROOT
HETATM    1  C   UNL     1     -41.379  56.068 -50.743  1.00  0.00     0.280 C 
HETATM    2  N   UNL     1     -41.076  57.280 -51.352  1.00  0.00    -0.242 N 
HETATM    3  O   UNL     1     -41.617  55.892 -49.556  1.00  0.00    -0.266 OA
HETATM    4  H   UNL     1     -40.800  57.295 -52.330  1.00  0.00     0.192 HD
ENDROOT
BRANCH   1   5
HETATM    5  C   UNL     1     -41.304  54.938 -51.695  1.00  0.00     0.135 A 
HETATM    6  C   UNL     1     -42.066  55.012 -52.964  1.00  0.00     0.266 A 
HETATM    7  N   UNL     1     -41.941  53.949 -53.861  1.00  0.00    -0.313 N 
HETATM    8  O   UNL     1     -42.750  56.007 -53.202  1.00  0.00    -0.267 OA
HETATM    9  C   UNL     1     -41.071  52.841 -53.598  1.00  0.00     0.050 A 
HETATM   10  C   UNL     1     -40.367  52.797 -52.378  1.00  0.00     0.025 A 
HETATM   11  C   UNL     1     -40.881  51.795 -54.518  1.00  0.00     0.031 A 
HETATM   12  C   UNL     1     -40.525  53.885 -51.403  1.00  0.00     0.099 A 
HETATM   13  C   UNL     1     -39.513  51.712 -52.105  1.00  0.00     0.016 A 
HETATM   14  C   UNL     1     -39.346  50.681 -53.025  1.00  0.00     0.001 A 
HETATM   15  C   UNL     1     -40.028  50.725 -54.232  1.00  0.00     0.002 A 
BRANCH   7  16
HETATM   16  C   UNL     1     -42.755  54.022 -55.076  1.00  0.00     0.132 C 
BRANCH  16  17
HETATM   17  C   UNL     1     -42.169  54.919 -56.176  1.00  0.00     0.020 C 
BRANCH  17  18
HETATM   18  C   UNL     1     -43.134  55.982 -56.698  1.00  0.00     0.001 C 
BRANCH  18  19
HETATM   19  C   UNL     1     -42.943  56.198 -58.201  1.00  0.00    -0.004 C 
HETATM   20  C   UNL     1     -44.258  56.514 -58.894  1.00  0.00     0.005 C 
ENDBRANCH  18  19
ENDBRANCH  17  18
ENDBRANCH  16  17
ENDBRANCH   7  16
BRANCH  12  21
HETATM   21  O   UNL     1     -39.810  53.742 -50.226  1.00  0.00    -0.359 OA
HETATM   22  H   UNL     1     -39.018  53.189 -50.377  1.00  0.00     0.218 HD
ENDBRANCH  12  21
ENDBRANCH   1   5
BRANCH   2  23
HETATM   23  N   UNL     1     -41.143  58.436 -50.634  1.00  0.00    -0.176 NA
HETATM   24  C   UNL     1     -41.835  59.443 -51.078  1.00  0.00     0.069 C 
HETATM   25  C   UNL     1     -41.812  60.693 -50.223  1.00  0.00     0.073 C 
BRANCH  24  26
HETATM   26  C   UNL     1     -42.661  59.502 -52.323  1.00  0.00     0.092 A 
HETATM   27  C   UNL     1     -44.149  59.475 -52.226  1.00  0.00     0.261 A 
HETATM   28  O   UNL     1     -44.725  59.430 -51.143  1.00  0.00    -0.267 OA
HETATM   29  N   UNL     1     -44.857  59.515 -53.394  1.00  0.00    -0.322 N 
HETATM   30  C   UNL     1     -44.265  59.591 -54.657  1.00  0.00     0.048 A 
HETATM   31  H   UNL     1     -45.866  59.503 -53.303  1.00  0.00     0.169 HD
HETATM   32  C   UNL     1     -42.867  59.603 -54.763  1.00  0.00     0.025 A 
HETATM   33  C   UNL     1     -45.076  59.666 -55.791  1.00  0.00     0.030 A 
HETATM   34  C   UNL     1     -42.293  59.701 -56.037  1.00  0.00     0.016 A 
HETATM   35  C   UNL     1     -42.062  59.524 -53.530  1.00  0.00     0.096 A 
HETATM   36  C   UNL     1     -43.101  59.784 -57.174  1.00  0.00     0.001 A 
HETATM   37  C   UNL     1     -44.489  59.764 -57.052  1.00  0.00     0.002 A 
BRANCH  35  38
HETATM   38  O   UNL     1     -40.691  59.516 -53.725  1.00  0.00    -0.359 OA
HETATM   39  H   UNL     1     -40.224  59.675 -52.878  1.00  0.00     0.218 HD
ENDBRANCH  35  38
ENDBRANCH  24  26
ENDBRANCH   2  23
TORSDOF 9
ENDMDL
MODEL 4
REMARK VINA RESULT:      -8.8      0.956      1.753
REMARK  9 active torsions:
REMARK  status: ('A' for Active; 'I' for Inactive)
REMARK    1  A    between atoms: C_2  and  C_3 
REMARK    2  A    between atoms: C_3  and  C_4 
REMARK    3  A    between atoms: C_4  and  C_5 
REMARK    4  A    between atoms: C_5  and  N_6 
REMARK    5  A    between atoms: C_9  and  C_10 
REMARK       I    between atoms: C_10  and  N_11 
REMARK    6  A    between atoms: N_11  and  N_12 
REMARK    7  A    between atoms: C_13  and  C_14 
REMARK    8  A    between atoms: C_24  and  O_25 
REMARK    9  A    between atoms: C_28  and  O_29 
ROOT
HETATM    1  C   UNL     1     -42.504  58.735 -52.844  1.00  0.00     0.280 C 
HETATM    2  N   UNL     1     -43.772  58.809 -53.405  1.00  0.00    -0.242 N 
HETATM    3  O   UNL     1     -41.698  59.651 -52.748  1.00  0.00    -0.266 OA
HETATM    4  H   UNL     1     -44.321  57.961 -53.520  1.00  0.00     0.192 HD
ENDROOT
BRANCH   1   5
HETATM    5  C   UNL     1     -42.165  57.357 -52.425  1.00  0.00     0.135 A 
HETATM    6  C   UNL     1     -42.159  56.276 -53.439  1.00  0.00     0.266 A 
HETATM    7  N   UNL     1     -41.794  54.995 -53.022  1.00  0.00    -0.313 N 
HETATM    8  O   UNL     1     -42.437  56.542 -54.608  1.00  0.00    -0.267 OA
HETATM    9  C   UNL     1     -41.391  54.729 -51.673  1.00  0.00     0.050 A 
HETATM   10  C   UNL     1     -41.418  55.777 -50.731  1.00  0.00     0.025 A 
HETATM   11  C   UNL     1     -40.957  53.460 -51.251  1.00  0.00     0.031 A 
HETATM   12  C   UNL     1     -41.845  57.120 -51.144  1.00  0.00     0.099 A 
HETATM   13  C   UNL     1     -41.029  55.528 -49.401  1.00  0.00     0.016 A 
HETATM   14  C   UNL     1     -40.611  54.262 -49.000  1.00  0.00     0.001 A 
HETATM   15  C   UNL     1     -40.573  53.230 -49.926  1.00  0.00     0.002 A 
BRANCH   7  16
HETATM   16  C   UNL     1     -41.858  53.937 -54.033  1.00  0.00     0.132 C 
BRANCH  16  17
HETATM   17  C   UNL     1     -40.575  53.774 -54.859  1.00  0.00     0.020 C 
BRANCH  17  18
HETATM   18  C   UNL     1     -39.797  52.493 -54.563  1.00  0.00     0.001 C 
BRANCH  18  19
HETATM   19  C   UNL     1     -40.751  51.319 -54.327  1.00  0.00    -0.004 C 
HETATM   20  C   UNL     1     -40.012  49.993 -54.290  1.00  0.00     0.005 C 
ENDBRANCH  18  19
ENDBRANCH  17  18
ENDBRANCH  16  17
ENDBRANCH   7  16
BRANCH  12  21
HETATM   21  O   UNL     1     -41.857  58.078 -50.144  1.00  0.00    -0.359 OA
HETATM   22  H   UNL     1     -42.711  58.060 -49.669  1.00  0.00     0.218 HD
ENDBRANCH  12  21
ENDBRANCH   1   5
BRANCH   2  23
HETATM   23  N   UNL     1     -44.269  60.014 -53.805  1.00  0.00    -0.176 NA
HETATM   24  C   UNL     1     -44.311  60.318 -55.067  1.00  0.00     0.069 C 
HETATM   25  C   UNL     1     -44.847  61.695 -55.400  1.00  0.00     0.073 C 
BRANCH  24  26
HETATM   26  C   UNL     1     -43.910  59.462 -56.225  1.00  0.00     0.092 A 
HETATM   27  C   UNL     1     -42.482  59.422 -56.656  1.00  0.00     0.261 A 
HETATM   28  O   UNL     1     -41.612  60.058 -56.069  1.00  0.00    -0.267 OA
HETATM   29  N   UNL     1     -42.170  58.636 -57.730  1.00  0.00    -0.322 N 
HETATM   30  C   UNL     1     -43.108  57.870 -58.428  1.00  0.00     0.048 A 
HETATM   31  H   UNL     1     -41.194  58.619 -57.999  1.00  0.00     0.169 HD
HETATM   32  C   UNL     1     -44.454  57.910 -58.041  1.00  0.00     0.025 A 
HETATM   33  C   UNL     1     -42.683  57.068 -59.489  1.00  0.00     0.030 A 
HETATM   34  C   UNL     1     -45.374  57.117 -58.740  1.00  0.00     0.016 A 
HETATM   35  C   UNL     1     -44.843  58.773 -56.910  1.00  0.00     0.096 A 
HETATM   36  C   UNL     1     -44.954  56.308 -59.798  1.00  0.00     0.001 A 
HETATM   37  C   UNL     1     -43.611  56.285 -60.174  1.00  0.00     0.002 A 
BRANCH  35  38
HETATM   38  O   UNL     1     -46.194  58.773 -56.611  1.00  0.00    -0.359 OA
HETATM   39  H   UNL     1     -46.376  58.186 -55.848  1.00  0.00     0.218 HD
ENDBRANCH  35  38
ENDBRANCH  24  26
ENDBRANCH   2  23
TORSDOF 9
ENDMDL
MODEL 5
REMARK VINA RESULT:      -8.5      2.089      6.833
REMARK  9 active torsions:
REMARK  status: ('A' for Active; 'I' for Inactive)
REMARK    1  A    between atoms: C_2  and  C_3 
REMARK    2  A    between atoms: C_3  and  C_4 
REMARK    3  A    between atoms: C_4  and  C_5 
REMARK    4  A    between atoms: C_5  and  N_6 
REMARK    5  A    between atoms: C_9  and  C_10 
REMARK       I    between atoms: C_10  and  N_11 
REMARK    6  A    between atoms: N_11  and  N_12 
REMARK    7  A    between atoms: C_13  and  C_14 
REMARK    8  A    between atoms: C_24  and  O_25 
REMARK    9  A    between atoms: C_28  and  O_29 
ROOT
HETATM    1  C   UNL     1     -44.318  59.537 -54.900  1.00  0.00     0.280 C 
HETATM    2  N   UNL     1     -45.160  59.061 -53.903  1.00  0.00    -0.242 N 
HETATM    3  O   UNL     1     -43.895  60.681 -55.007  1.00  0.00    -0.266 OA
HETATM    4  H   UNL     1     -45.528  58.115 -53.966  1.00  0.00     0.192 HD
ENDROOT
BRANCH   1   5
HETATM    5  C   UNL     1     -44.030  58.504 -55.919  1.00  0.00     0.135 A 
HETATM    6  C   UNL     1     -43.202  57.333 -55.545  1.00  0.00     0.266 A 
HETATM    7  N   UNL     1     -42.983  56.355 -56.516  1.00  0.00    -0.313 N 
HETATM    8  O   UNL     1     -42.767  57.242 -54.398  1.00  0.00    -0.267 OA
HETATM    9  C   UNL     1     -43.572  56.442 -57.820  1.00  0.00     0.050 A 
HETATM   10  C   UNL     1     -44.346  57.574 -58.146  1.00  0.00     0.025 A 
HETATM   11  C   UNL     1     -43.418  55.435 -58.788  1.00  0.00     0.031 A 
HETATM   12  C   UNL     1     -44.546  58.636 -57.151  1.00  0.00     0.099 A 
HETATM   13  C   UNL     1     -44.926  57.675 -59.425  1.00  0.00     0.016 A 
HETATM   14  C   UNL     1     -44.754  56.672 -60.374  1.00  0.00     0.001 A 
HETATM   15  C   UNL     1     -44.002  55.551 -60.053  1.00  0.00     0.002 A 
BRANCH   7  16
HETATM   16  C   UNL     1     -42.110  55.242 -56.136  1.00  0.00     0.132 C 
BRANCH  16  17
HETATM   17  C   UNL     1     -42.821  54.110 -55.381  1.00  0.00     0.020 C 
BRANCH  17  18
HETATM   18  C   UNL     1     -42.350  53.924 -53.940  1.00  0.00     0.001 C 
BRANCH  18  19
HETATM   19  C   UNL     1     -40.821  53.895 -53.867  1.00  0.00    -0.004 C 
HETATM   20  C   UNL     1     -40.266  52.539 -54.269  1.00  0.00     0.005 C 
ENDBRANCH  18  19
ENDBRANCH  17  18
ENDBRANCH  16  17
ENDBRANCH   7  16
BRANCH  12  21
HETATM   21  O   UNL     1     -45.304  59.716 -57.571  1.00  0.00    -0.359 OA
HETATM   22  H   UNL     1     -46.215  59.429 -57.778  1.00  0.00     0.218 HD
ENDBRANCH  12  21
ENDBRANCH   1   5
BRANCH   2  23
HETATM   23  N   UNL     1     -45.494  59.864 -52.854  1.00  0.00    -0.176 NA
HETATM   24  C   UNL     1     -44.906  59.717 -51.705  1.00  0.00     0.069 C 
HETATM   25  C   UNL     1     -45.378  60.635 -50.596  1.00  0.00     0.073 C 
BRANCH  24  26
HETATM   26  C   UNL     1     -43.811  58.761 -51.357  1.00  0.00     0.092 A 
HETATM   27  C   UNL     1     -42.403  59.248 -51.272  1.00  0.00     0.261 A 
HETATM   28  O   UNL     1     -42.114  60.427 -51.455  1.00  0.00    -0.267 OA
HETATM   29  N   UNL     1     -41.437  58.330 -50.967  1.00  0.00    -0.322 N 
HETATM   30  C   UNL     1     -41.700  56.980 -50.724  1.00  0.00     0.048 A 
HETATM   31  H   UNL     1     -40.490  58.686 -50.907  1.00  0.00     0.169 HD
HETATM   32  C   UNL     1     -43.016  56.507 -50.815  1.00  0.00     0.025 A 
HETATM   33  C   UNL     1     -40.648  56.129 -50.381  1.00  0.00     0.030 A 
HETATM   34  C   UNL     1     -43.261  55.155 -50.546  1.00  0.00     0.016 A 
HETATM   35  C   UNL     1     -44.087  57.455 -51.177  1.00  0.00     0.096 A 
HETATM   36  C   UNL     1     -42.213  54.300 -50.196  1.00  0.00     0.001 A 
HETATM   37  C   UNL     1     -40.909  54.785 -50.116  1.00  0.00     0.002 A 
BRANCH  35  38
HETATM   38  O   UNL     1     -45.352  56.901 -51.270  1.00  0.00    -0.359 OA
HETATM   39  H   UNL     1     -45.641  56.560 -50.398  1.00  0.00     0.218 HD
ENDBRANCH  35  38
ENDBRANCH  24  26
ENDBRANCH   2  23
TORSDOF 9
ENDMDL
MODEL 6
REMARK VINA RESULT:      -8.2      2.247      4.663
REMARK  9 active torsions:
REMARK  status: ('A' for Active; 'I' for Inactive)
REMARK    1  A    between atoms: C_2  and  C_3 
REMARK    2  A    between atoms: C_3  and  C_4 
REMARK    3  A    between atoms: C_4  and  C_5 
REMARK    4  A    between atoms: C_5  and  N_6 
REMARK    5  A    between atoms: C_9  and  C_10 
REMARK       I    between atoms: C_10  and  N_11 
REMARK    6  A    between atoms: N_11  and  N_12 
REMARK    7  A    between atoms: C_13  and  C_14 
REMARK    8  A    between atoms: C_24  and  O_25 
REMARK    9  A    between atoms: C_28  and  O_29 
ROOT
HETATM    1  C   UNL     1     -41.102  55.193 -49.964  1.00  0.00     0.280 C 
HETATM    2  N   UNL     1     -40.469  56.311 -50.492  1.00  0.00    -0.242 N 
HETATM    3  O   UNL     1     -41.706  55.135 -48.901  1.00  0.00    -0.266 OA
HETATM    4  H   UNL     1     -39.914  56.221 -51.339  1.00  0.00     0.192 HD
ENDROOT
BRANCH   1   5
HETATM    5  C   UNL     1     -40.900  53.995 -50.808  1.00  0.00     0.135 A 
HETATM    6  C   UNL     1     -41.144  54.090 -52.267  1.00  0.00     0.266 A 
HETATM    7  N   UNL     1     -40.904  52.955 -53.042  1.00  0.00    -0.313 N 
HETATM    8  O   UNL     1     -41.514  55.160 -52.749  1.00  0.00    -0.267 OA
HETATM    9  C   UNL     1     -40.391  51.746 -52.469  1.00  0.00     0.050 A 
HETATM   10  C   UNL     1     -40.178  51.685 -51.077  1.00  0.00     0.025 A 
HETATM   11  C   UNL     1     -40.080  50.614 -53.243  1.00  0.00     0.031 A 
HETATM   12  C   UNL     1     -40.472  52.857 -50.240  1.00  0.00     0.099 A 
HETATM   13  C   UNL     1     -39.680  50.502 -50.499  1.00  0.00     0.016 A 
HETATM   14  C   UNL     1     -39.387  49.389 -51.282  1.00  0.00     0.001 A 
HETATM   15  C   UNL     1     -39.585  49.448 -52.654  1.00  0.00     0.002 A 
BRANCH   7  16
HETATM   16  C   UNL     1     -41.215  53.062 -54.469  1.00  0.00     0.132 C 
BRANCH  16  17
HETATM   17  C   UNL     1     -40.351  54.077 -55.230  1.00  0.00     0.020 C 
BRANCH  17  18
HETATM   18  C   UNL     1     -41.133  55.251 -55.817  1.00  0.00     0.001 C 
BRANCH  18  19
HETATM   19  C   UNL     1     -42.601  54.874 -56.032  1.00  0.00    -0.004 C 
HETATM   20  C   UNL     1     -43.094  55.296 -57.405  1.00  0.00     0.005 C 
ENDBRANCH  18  19
ENDBRANCH  17  18
ENDBRANCH  16  17
ENDBRANCH   7  16
BRANCH  12  21
HETATM   21  O   UNL     1     -40.250  52.694 -48.883  1.00  0.00    -0.359 OA
HETATM   22  H   UNL     1     -40.946  53.149 -48.370  1.00  0.00     0.218 HD
ENDBRANCH  12  21
ENDBRANCH   1   5
BRANCH   2  23
HETATM   23  N   UNL     1     -40.590  57.518 -49.869  1.00  0.00    -0.176 NA
HETATM   24  C   UNL     1     -41.095  58.533 -50.503  1.00  0.00     0.069 C 
HETATM   25  C   UNL     1     -41.149  59.836 -49.732  1.00  0.00     0.073 C 
BRANCH  24  26
HETATM   26  C   UNL     1     -41.643  58.559 -51.893  1.00  0.00     0.092 A 
HETATM   27  C   UNL     1     -40.751  58.918 -53.034  1.00  0.00     0.261 A 
HETATM   28  O   UNL     1     -39.562  59.171 -52.870  1.00  0.00    -0.267 OA
HETATM   29  N   UNL     1     -41.305  58.943 -54.284  1.00  0.00    -0.322 N 
HETATM   30  C   UNL     1     -42.645  58.642 -54.543  1.00  0.00     0.048 A 
HETATM   31  H   UNL     1     -40.679  59.181 -55.042  1.00  0.00     0.169 HD
HETATM   32  C   UNL     1     -43.497  58.317 -53.478  1.00  0.00     0.025 A 
HETATM   33  C   UNL     1     -43.107  58.657 -55.860  1.00  0.00     0.030 A 
HETATM   34  C   UNL     1     -44.830  57.997 -53.762  1.00  0.00     0.016 A 
HETATM   35  C   UNL     1     -42.951  58.314 -52.108  1.00  0.00     0.096 A 
HETATM   36  C   UNL     1     -45.297  58.005 -55.079  1.00  0.00     0.001 A 
HETATM   37  C   UNL     1     -44.438  58.336 -56.126  1.00  0.00     0.002 A 
BRANCH  35  38
HETATM   38  O   UNL     1     -43.864  58.008 -51.114  1.00  0.00    -0.359 OA
HETATM   39  H   UNL     1     -44.394  57.223 -51.366  1.00  0.00     0.218 HD
ENDBRANCH  35  38
ENDBRANCH  24  26
ENDBRANCH   2  23
TORSDOF 9
ENDMDL
MODEL 7
REMARK VINA RESULT:      -8.0      1.977      7.126
REMARK  9 active torsions:
REMARK  status: ('A' for Active; 'I' for Inactive)
REMARK    1  A    between atoms: C_2  and  C_3 
REMARK    2  A    between atoms: C_3  and  C_4 
REMARK    3  A    between atoms: C_4  and  C_5 
REMARK    4  A    between atoms: C_5  and  N_6 
REMARK    5  A    between atoms: C_9  and  C_10 
REMARK       I    between atoms: C_10  and  N_11 
REMARK    6  A    between atoms: N_11  and  N_12 
REMARK    7  A    between atoms: C_13  and  C_14 
REMARK    8  A    between atoms: C_24  and  O_25 
REMARK    9  A    between atoms: C_28  and  O_29 
ROOT
HETATM    1  C   UNL     1     -43.421  60.939 -54.743  1.00  0.00     0.280 C 
HETATM    2  N   UNL     1     -42.754  60.421 -53.641  1.00  0.00    -0.242 N 
HETATM    3  O   UNL     1     -44.219  61.866 -54.738  1.00  0.00    -0.266 OA
HETATM    4  H   UNL     1     -42.185  59.584 -53.745  1.00  0.00     0.192 HD
ENDROOT
BRANCH   1   5
HETATM    5  C   UNL     1     -43.128  60.174 -55.975  1.00  0.00     0.135 A 
HETATM    6  C   UNL     1     -43.437  58.726 -56.016  1.00  0.00     0.266 A 
HETATM    7  N   UNL     1     -43.188  58.041 -57.207  1.00  0.00    -0.313 N 
HETATM    8  O   UNL     1     -43.927  58.184 -55.026  1.00  0.00    -0.267 OA
HETATM    9  C   UNL     1     -42.697  58.712 -58.373  1.00  0.00     0.050 A 
HETATM   10  C   UNL     1     -42.404  60.089 -58.298  1.00  0.00     0.025 A 
HETATM   11  C   UNL     1     -42.504  58.053 -59.600  1.00  0.00     0.031 A 
HETATM   12  C   UNL     1     -42.615  60.814 -57.038  1.00  0.00     0.099 A 
HETATM   13  C   UNL     1     -41.916  60.760 -59.435  1.00  0.00     0.016 A 
HETATM   14  C   UNL     1     -41.722  60.088 -60.638  1.00  0.00     0.001 A 
HETATM   15  C   UNL     1     -42.019  58.735 -60.720  1.00  0.00     0.002 A 
BRANCH   7  16
HETATM   16  C   UNL     1     -43.445  56.599 -57.195  1.00  0.00     0.132 C 
BRANCH  16  17
HETATM   17  C   UNL     1     -42.314  55.761 -56.581  1.00  0.00     0.020 C 
BRANCH  17  18
HETATM   18  C   UNL     1     -42.754  54.870 -55.420  1.00  0.00     0.001 C 
BRANCH  18  19
HETATM   19  C   UNL     1     -41.599  53.982 -54.949  1.00  0.00    -0.004 C 
HETATM   20  C   UNL     1     -40.370  54.801 -54.593  1.00  0.00     0.005 C 
ENDBRANCH  18  19
ENDBRANCH  17  18
ENDBRANCH  16  17
ENDBRANCH   7  16
BRANCH  12  21
HETATM   21  O   UNL     1     -42.280  62.157 -57.056  1.00  0.00    -0.359 OA
HETATM   22  H   UNL     1     -41.463  62.309 -56.542  1.00  0.00     0.218 HD
ENDBRANCH  12  21
ENDBRANCH   1   5
BRANCH   2  23
HETATM   23  N   UNL     1     -42.870  61.030 -52.427  1.00  0.00    -0.176 NA
HETATM   24  C   UNL     1     -42.672  60.356 -51.334  1.00  0.00     0.069 C 
HETATM   25  C   UNL     1     -42.862  61.118 -50.039  1.00  0.00     0.073 C 
BRANCH  24  26
HETATM   26  C   UNL     1     -42.261  58.924 -51.209  1.00  0.00     0.092 A 
HETATM   27  C   UNL     1     -40.898  58.585 -50.707  1.00  0.00     0.261 A 
HETATM   28  O   UNL     1     -40.101  59.454 -50.364  1.00  0.00    -0.267 OA
HETATM   29  N   UNL     1     -40.566  57.261 -50.627  1.00  0.00    -0.322 N 
HETATM   30  C   UNL     1     -41.433  56.223 -50.978  1.00  0.00     0.048 A 
HETATM   31  H   UNL     1     -39.639  57.056 -50.276  1.00  0.00     0.169 HD
HETATM   32  C   UNL     1     -42.712  56.528 -51.465  1.00  0.00     0.025 A 
HETATM   33  C   UNL     1     -41.015  54.901 -50.824  1.00  0.00     0.030 A 
HETATM   34  C   UNL     1     -43.573  55.473 -51.790  1.00  0.00     0.016 A 
HETATM   35  C   UNL     1     -43.100  57.944 -51.602  1.00  0.00     0.096 A 
HETATM   36  C   UNL     1     -43.162  54.147 -51.632  1.00  0.00     0.001 A 
HETATM   37  C   UNL     1     -41.884  53.861 -51.152  1.00  0.00     0.002 A 
BRANCH  35  38
HETATM   38  O   UNL     1     -44.368  58.158 -52.114  1.00  0.00    -0.359 OA
HETATM   39  H   UNL     1     -44.524  59.115 -52.255  1.00  0.00     0.218 HD
ENDBRANCH  35  38
ENDBRANCH  24  26
ENDBRANCH   2  23
TORSDOF 9
ENDMDL
MODEL 8
REMARK VINA RESULT:      -7.8      1.977      7.374
REMARK  9 active torsions:
REMARK  status: ('A' for Active; 'I' for Inactive)
REMARK    1  A    between atoms: C_2  and  C_3 
REMARK    2  A    between atoms: C_3  and  C_4 
REMARK    3  A    between atoms: C_4  and  C_5 
REMARK    4  A    between atoms: C_5  and  N_6 
REMARK    5  A    between atoms: C_9  and  C_10 
REMARK       I    between atoms: C_10  and  N_11 
REMARK    6  A    between atoms: N_11  and  N_12 
REMARK    7  A    between atoms: C_13  and  C_14 
REMARK    8  A    between atoms: C_24  and  O_25 
REMARK    9  A    between atoms: C_28  and  O_29 
ROOT
HETATM    1  C   UNL     1     -43.536  59.791 -55.187  1.00  0.00     0.280 C 
HETATM    2  N   UNL     1     -43.861  59.070 -54.045  1.00  0.00    -0.242 N 
HETATM    3  O   UNL     1     -42.908  60.840 -55.229  1.00  0.00    -0.266 OA
HETATM    4  H   UNL     1     -44.471  58.260 -54.118  1.00  0.00     0.192 HD
ENDROOT
BRANCH   1   5
HETATM    5  C   UNL     1     -44.120  59.186 -56.405  1.00  0.00     0.135 A 
HETATM    6  C   UNL     1     -43.551  57.921 -56.926  1.00  0.00     0.266 A 
HETATM    7  N   UNL     1     -44.150  57.353 -58.051  1.00  0.00    -0.313 N 
HETATM    8  O   UNL     1     -42.604  57.397 -56.340  1.00  0.00    -0.267 OA
HETATM    9  C   UNL     1     -45.307  57.937 -58.664  1.00  0.00     0.050 A 
HETATM   10  C   UNL     1     -45.817  59.146 -58.150  1.00  0.00     0.025 A 
HETATM   11  C   UNL     1     -45.963  57.344 -59.757  1.00  0.00     0.031 A 
HETATM   12  C   UNL     1     -45.168  59.781 -56.995  1.00  0.00     0.099 A 
HETATM   13  C   UNL     1     -46.949  59.733 -58.746  1.00  0.00     0.016 A 
HETATM   14  C   UNL     1     -47.580  59.136 -59.833  1.00  0.00     0.001 A 
HETATM   15  C   UNL     1     -47.087  57.940 -60.336  1.00  0.00     0.002 A 
BRANCH   7  16
HETATM   16  C   UNL     1     -43.527  56.137 -58.579  1.00  0.00     0.132 C 
BRANCH  16  17
HETATM   17  C   UNL     1     -42.791  56.331 -59.912  1.00  0.00     0.020 C 
BRANCH  17  18
HETATM   18  C   UNL     1     -41.700  57.400 -59.876  1.00  0.00     0.001 C 
BRANCH  18  19
HETATM   19  C   UNL     1     -42.150  58.661 -60.617  1.00  0.00    -0.004 C 
HETATM   20  C   UNL     1     -42.187  59.870 -59.698  1.00  0.00     0.005 C 
ENDBRANCH  18  19
ENDBRANCH  17  18
ENDBRANCH  16  17
ENDBRANCH   7  16
BRANCH  12  21
HETATM   21  O   UNL     1     -45.729  60.976 -56.576  1.00  0.00    -0.359 OA
HETATM   22  H   UNL     1     -45.215  61.731 -56.923  1.00  0.00     0.218 HD
ENDBRANCH  12  21
ENDBRANCH   1   5
BRANCH   2  23
HETATM   23  N   UNL     1     -43.367  59.457 -52.835  1.00  0.00    -0.176 NA
HETATM   24  C   UNL     1     -42.736  58.605 -52.083  1.00  0.00     0.069 C 
HETATM   25  C   UNL     1     -42.261  59.126 -50.742  1.00  0.00     0.073 C 
BRANCH  24  26
HETATM   26  C   UNL     1     -42.412  57.179 -52.396  1.00  0.00     0.092 A 
HETATM   27  C   UNL     1     -43.050  56.084 -51.609  1.00  0.00     0.261 A 
HETATM   28  O   UNL     1     -43.863  56.317 -50.719  1.00  0.00    -0.267 OA
HETATM   29  N   UNL     1     -42.707  54.799 -51.924  1.00  0.00    -0.322 N 
HETATM   30  C   UNL     1     -41.808  54.465 -52.940  1.00  0.00     0.048 A 
HETATM   31  H   UNL     1     -43.159  54.074 -51.382  1.00  0.00     0.169 HD
HETATM   32  C   UNL     1     -41.191  55.484 -53.677  1.00  0.00     0.025 A 
HETATM   33  C   UNL     1     -41.552  53.119 -53.211  1.00  0.00     0.030 A 
HETATM   34  C   UNL     1     -40.310  55.126 -54.705  1.00  0.00     0.016 A 
HETATM   35  C   UNL     1     -41.503  56.887 -53.347  1.00  0.00     0.096 A 
HETATM   36  C   UNL     1     -40.055  53.782 -54.985  1.00  0.00     0.001 A 
HETATM   37  C   UNL     1     -40.673  52.780 -54.238  1.00  0.00     0.002 A 
BRANCH  35  38
HETATM   38  O   UNL     1     -40.831  57.831 -54.105  1.00  0.00    -0.359 OA
HETATM   39  H   UNL     1     -41.425  58.578 -54.326  1.00  0.00     0.218 HD
ENDBRANCH  35  38
ENDBRANCH  24  26
ENDBRANCH   2  23
TORSDOF 9
ENDMDL
MODEL 9
REMARK VINA RESULT:      -7.8     16.146     18.835
REMARK  9 active torsions:
REMARK  status: ('A' for Active; 'I' for Inactive)
REMARK    1  A    between atoms: C_2  and  C_3 
REMARK    2  A    between atoms: C_3  and  C_4 
REMARK    3  A    between atoms: C_4  and  C_5 
REMARK    4  A    between atoms: C_5  and  N_6 
REMARK    5  A    between atoms: C_9  and  C_10 
REMARK       I    between atoms: C_10  and  N_11 
REMARK    6  A    between atoms: N_11  and  N_12 
REMARK    7  A    between atoms: C_13  and  C_14 
REMARK    8  A    between atoms: C_24  and  O_25 
REMARK    9  A    between atoms: C_28  and  O_29 
ROOT
HETATM    1  C   UNL     1     -36.183  41.432 -53.345  1.00  0.00     0.280 C 
HETATM    2  N   UNL     1     -36.688  40.714 -54.422  1.00  0.00    -0.242 N 
HETATM    3  O   UNL     1     -35.964  42.635 -53.314  1.00  0.00    -0.266 OA
HETATM    4  H   UNL     1     -36.740  39.700 -54.370  1.00  0.00     0.192 HD
ENDROOT
BRANCH   1   5
HETATM    5  C   UNL     1     -35.840  40.550 -52.207  1.00  0.00     0.135 A 
HETATM    6  C   UNL     1     -34.445  40.074 -52.060  1.00  0.00     0.266 A 
HETATM    7  N   UNL     1     -34.143  39.279 -50.953  1.00  0.00    -0.313 N 
HETATM    8  O   UNL     1     -33.599  40.415 -52.885  1.00  0.00    -0.267 OA
HETATM    9  C   UNL     1     -35.127  38.966 -49.959  1.00  0.00     0.050 A 
HETATM   10  C   UNL     1     -36.448  39.427 -50.135  1.00  0.00     0.025 A 
HETATM   11  C   UNL     1     -34.826  38.223 -48.805  1.00  0.00     0.031 A 
HETATM   12  C   UNL     1     -36.792  40.225 -51.319  1.00  0.00     0.099 A 
HETATM   13  C   UNL     1     -37.426  39.123 -49.169  1.00  0.00     0.016 A 
HETATM   14  C   UNL     1     -37.110  38.377 -48.037  1.00  0.00     0.001 A 
HETATM   15  C   UNL     1     -35.809  37.931 -47.855  1.00  0.00     0.002 A 
BRANCH   7  16
HETATM   16  C   UNL     1     -32.772  38.772 -50.869  1.00  0.00     0.132 C 
BRANCH  16  17
HETATM   17  C   UNL     1     -31.760  39.777 -50.300  1.00  0.00     0.020 C 
BRANCH  17  18
HETATM   18  C   UNL     1     -32.021  40.176 -48.849  1.00  0.00     0.001 C 
BRANCH  18  19
HETATM   19  C   UNL     1     -31.310  39.222 -47.886  1.00  0.00    -0.004 C 
HETATM   20  C   UNL     1     -30.618  39.973 -46.761  1.00  0.00     0.005 C 
ENDBRANCH  18  19
ENDBRANCH  17  18
ENDBRANCH  16  17
ENDBRANCH   7  16
BRANCH  12  21
HETATM   21  O   UNL     1     -38.118  40.615 -51.413  1.00  0.00    -0.359 OA
HETATM   22  H   UNL     1     -38.666  39.872 -51.734  1.00  0.00     0.218 HD
ENDBRANCH  12  21
ENDBRANCH   1   5
BRANCH   2  23
HETATM   23  N   UNL     1     -37.102  41.371 -55.542  1.00  0.00    -0.176 NA
HETATM   24  C   UNL     1     -36.454  41.232 -56.660  1.00  0.00     0.069 C 
HETATM   25  C   UNL     1     -36.975  42.035 -57.834  1.00  0.00     0.073 C 
BRANCH  24  26
HETATM   26  C   UNL     1     -35.269  40.360 -56.923  1.00  0.00     0.092 A 
HETATM   27  C   UNL     1     -35.423  39.131 -57.755  1.00  0.00     0.261 A 
HETATM   28  O   UNL     1     -36.499  38.823 -58.258  1.00  0.00    -0.267 OA
HETATM   29  N   UNL     1     -34.312  38.360 -57.952  1.00  0.00    -0.322 N 
HETATM   30  C   UNL     1     -33.053  38.667 -57.429  1.00  0.00     0.048 A 
HETATM   31  H   UNL     1     -34.440  37.536 -58.526  1.00  0.00     0.169 HD
HETATM   32  C   UNL     1     -32.898  39.810 -56.634  1.00  0.00     0.025 A 
HETATM   33  C   UNL     1     -31.970  37.835 -57.719  1.00  0.00     0.030 A 
HETATM   34  C   UNL     1     -31.624  40.112 -56.137  1.00  0.00     0.016 A 
HETATM   35  C   UNL     1     -34.078  40.653 -56.364  1.00  0.00     0.096 A 
HETATM   36  C   UNL     1     -30.535  39.286 -56.430  1.00  0.00     0.001 A 
HETATM   37  C   UNL     1     -30.708  38.149 -57.217  1.00  0.00     0.002 A 
BRANCH  35  38
HETATM   38  O   UNL     1     -33.843  41.747 -55.550  1.00  0.00    -0.359 OA
HETATM   39  H   UNL     1     -34.687  42.185 -55.312  1.00  0.00     0.218 HD
ENDBRANCH  35  38
ENDBRANCH  24  26
ENDBRANCH   2  23
TORSDOF 9
ENDMDL
MODEL 10
REMARK VINA RESULT:      -7.8      2.598      8.086
REMARK  9 active torsions:
REMARK  status: ('A' for Active; 'I' for Inactive)
REMARK    1  A    between atoms: C_2  and  C_3 
REMARK    2  A    between atoms: C_3  and  C_4 
REMARK    3  A    between atoms: C_4  and  C_5 
REMARK    4  A    between atoms: C_5  and  N_6 
REMARK    5  A    between atoms: C_9  and  C_10 
REMARK       I    between atoms: C_10  and  N_11 
REMARK    6  A    between atoms: N_11  and  N_12 
REMARK    7  A    between atoms: C_13  and  C_14 
REMARK    8  A    between atoms: C_24  and  O_25 
REMARK    9  A    between atoms: C_28  and  O_29 
ROOT
HETATM    1  C   UNL     1     -43.275  55.747 -54.467  1.00  0.00     0.280 C 
HETATM    2  N   UNL     1     -42.118  56.136 -53.803  1.00  0.00    -0.242 N 
HETATM    3  O   UNL     1     -43.988  54.794 -54.185  1.00  0.00    -0.266 OA
HETATM    4  H   UNL     1     -41.550  56.888 -54.183  1.00  0.00     0.192 HD
ENDROOT
BRANCH   1   5
HETATM    5  C   UNL     1     -43.536  56.586 -55.658  1.00  0.00     0.135 A 
HETATM    6  C   UNL     1     -44.522  57.688 -55.563  1.00  0.00     0.266 A 
HETATM    7  N   UNL     1     -44.715  58.488 -56.690  1.00  0.00    -0.313 N 
HETATM    8  O   UNL     1     -45.108  57.884 -54.499  1.00  0.00    -0.267 OA
HETATM    9  C   UNL     1     -43.957  58.292 -57.890  1.00  0.00     0.050 A 
HETATM   10  C   UNL     1     -43.034  57.229 -57.952  1.00  0.00     0.025 A 
HETATM   11  C   UNL     1     -44.090  59.128 -59.013  1.00  0.00     0.031 A 
HETATM   12  C   UNL     1     -42.854  56.349 -56.789  1.00  0.00     0.099 A 
HETATM   13  C   UNL     1     -42.287  57.022 -59.127  1.00  0.00     0.016 A 
HETATM   14  C   UNL     1     -42.440  57.856 -60.231  1.00  0.00     0.001 A 
HETATM   15  C   UNL     1     -43.339  58.910 -60.171  1.00  0.00     0.002 A 
BRANCH   7  16
HETATM   16  C   UNL     1     -45.741  59.528 -56.584  1.00  0.00     0.132 C 
BRANCH  16  17
HETATM   17  C   UNL     1     -45.199  60.913 -56.206  1.00  0.00     0.020 C 
BRANCH  17  18
HETATM   18  C   UNL     1     -45.281  61.232 -54.714  1.00  0.00     0.001 C 
BRANCH  18  19
HETATM   19  C   UNL     1     -43.940  61.760 -54.197  1.00  0.00    -0.004 C 
HETATM   20  C   UNL     1     -42.854  60.701 -54.271  1.00  0.00     0.005 C 
ENDBRANCH  18  19
ENDBRANCH  17  18
ENDBRANCH  16  17
ENDBRANCH   7  16
BRANCH  12  21
HETATM   21  O   UNL     1     -41.940  55.321 -56.953  1.00  0.00    -0.359 OA
HETATM   22  H   UNL     1     -41.858  55.089 -57.898  1.00  0.00     0.218 HD
ENDBRANCH  12  21
ENDBRANCH   1   5
BRANCH   2  23
HETATM   23  N   UNL     1     -41.749  55.503 -52.654  1.00  0.00    -0.176 NA
HETATM   24  C   UNL     1     -41.861  56.108 -51.509  1.00  0.00     0.069 C 
HETATM   25  C   UNL     1     -41.387  55.330 -50.299  1.00  0.00     0.073 C 
BRANCH  24  26
HETATM   26  C   UNL     1     -42.417  57.471 -51.249  1.00  0.00     0.092 A 
HETATM   27  C   UNL     1     -41.511  58.566 -50.794  1.00  0.00     0.261 A 
HETATM   28  O   UNL     1     -40.306  58.389 -50.649  1.00  0.00    -0.267 OA
HETATM   29  N   UNL     1     -42.073  59.789 -50.554  1.00  0.00    -0.322 N 
HETATM   30  C   UNL     1     -43.432  60.063 -50.723  1.00  0.00     0.048 A 
HETATM   31  H   UNL     1     -41.437  60.518 -50.255  1.00  0.00     0.169 HD
HETATM   32  C   UNL     1     -44.296  59.040 -51.136  1.00  0.00     0.025 A 
HETATM   33  C   UNL     1     -43.903  61.357 -50.489  1.00  0.00     0.030 A 
HETATM   34  C   UNL     1     -45.651  59.342 -51.320  1.00  0.00     0.016 A 
HETATM   35  C   UNL     1     -43.740  57.694 -51.371  1.00  0.00     0.096 A 
HETATM   36  C   UNL     1     -46.127  60.636 -51.094  1.00  0.00     0.001 A 
HETATM   37  C   UNL     1     -45.255  61.641 -50.677  1.00  0.00     0.002 A 
BRANCH  35  38
HETATM   38  O   UNL     1     -44.665  56.737 -51.751  1.00  0.00    -0.359 OA
HETATM   39  H   UNL     1     -45.364  57.138 -52.308  1.00  0.00     0.218 HD
ENDBRANCH  35  38
ENDBRANCH  24  26
ENDBRANCH   2  23
TORSDOF 9
ENDMDL
