MODEL 1
REMARK VINA RESULT:      -8.4      0.000      0.000
REMARK  3 active torsions:
REMARK  status: ('A' for Active; 'I' for Inactive)
REMARK    1  A    between atoms: C_11  and  N_12 
REMARK       I    between atoms: N_12  and  C_13 
REMARK    2  A    between atoms: C_13  and  C_14 
REMARK    3  A    between atoms: C_15  and  C_16 
ROOT
HETATM    1  N   UNL     1     -42.777  55.563 -52.284  1.00  0.00    -0.352 N 
HETATM    2  C   UNL     1     -42.739  54.465 -51.436  1.00  0.00     0.255 C 
HETATM    3  O   UNL     1     -43.684  53.693 -51.327  1.00  0.00    -0.268 OA
HETATM    4  H   UNL     1     -41.873  55.970 -52.488  1.00  0.00     0.163 HD
ENDROOT
BRANCH   2   5
HETATM    5  C   UNL     1     -41.505  54.316 -50.682  1.00  0.00     0.080 A 
HETATM    6  C   UNL     1     -40.385  53.473 -50.979  1.00  0.00     0.107 A 
HETATM    7  N   UNL     1     -39.402  53.651 -50.079  1.00  0.00    -0.173 NA
HETATM    8  N   UNL     1     -39.872  54.567 -49.231  1.00  0.00    -0.288 N 
HETATM    9  H   UNL     1     -39.270  54.864 -48.468  1.00  0.00     0.188 HD
HETATM   10  C   UNL     1     -41.132  54.989 -49.531  1.00  0.00     0.128 A 
BRANCH   6  11
HETATM   11  C   UNL     1     -40.212  52.509 -52.063  1.00  0.00     0.034 A 
HETATM   12  C   UNL     1     -39.865  51.178 -51.811  1.00  0.00     0.129 A 
HETATM   13  F   UNL     1     -39.650  50.750 -50.557  1.00  0.00    -0.205 F 
HETATM   14  C   UNL     1     -39.704  50.264 -52.853  1.00  0.00     0.043 A 
HETATM   15  C   UNL     1     -39.876  50.680 -54.172  1.00  0.00     0.003 A 
HETATM   16  C   UNL     1     -40.199  52.009 -54.444  1.00  0.00     0.001 A 
HETATM   17  C   UNL     1     -40.364  52.919 -53.396  1.00  0.00     0.017 A 
ENDBRANCH   6  11
ENDBRANCH   2   5
BRANCH   1  18
HETATM   18  C   UNL     1     -43.877  55.775 -53.210  1.00  0.00     0.089 C 
HETATM   19  C   UNL     1     -43.607  55.146 -54.582  1.00  0.00     0.063 C 
HETATM   20  C   UNL     1     -42.644  55.927 -55.493  1.00  0.00     0.121 C 
HETATM   21  N   UNL     1     -43.014  57.392 -55.511  1.00  0.00    -0.059 N 
HETATM   22  C   UNL     1     -41.167  55.760 -55.118  1.00  0.00     0.046 C 
HETATM   23  C   UNL     1     -42.810  55.428 -56.945  1.00  0.00     0.046 C 
HETATM   24  C   UNL     1     -43.355  58.111 -54.221  1.00  0.00     0.121 C 
HETATM   25  H   UNL     1     -43.831  57.492 -56.131  1.00  0.00     0.279 HD
HETATM   26  H   UNL     1     -42.271  57.920 -55.992  1.00  0.00     0.279 HD
HETATM   27  C   UNL     1     -42.076  58.526 -53.491  1.00  0.00     0.046 C 
HETATM   28  C   UNL     1     -44.086  59.404 -54.641  1.00  0.00     0.046 C 
HETATM   29  C   UNL     1     -44.306  57.241 -53.391  1.00  0.00     0.063 C 
ENDBRANCH   1  18
TORSDOF 3
ENDMDL
MODEL 2
REMARK VINA RESULT:      -8.3      2.057      2.786
REMARK  3 active torsions:
REMARK  status: ('A' for Active; 'I' for Inactive)
REMARK    1  A    between atoms: C_11  and  N_12 
REMARK       I    between atoms: N_12  and  C_13 
REMARK    2  A    between atoms: C_13  and  C_14 
REMARK    3  A    between atoms: C_15  and  C_16 
ROOT
HETATM    1  N   UNL     1     -42.412  57.091 -50.993  1.00  0.00    -0.352 N 
HETATM    2  C   UNL     1     -42.690  55.772 -50.659  1.00  0.00     0.255 C 
HETATM    3  O   UNL     1     -43.808  55.288 -50.793  1.00  0.00    -0.268 OA
HETATM    4  H   UNL     1     -41.426  57.303 -51.088  1.00  0.00     0.163 HD
ENDROOT
BRANCH   2   5
HETATM    5  C   UNL     1     -41.563  55.025 -50.126  1.00  0.00     0.080 A 
HETATM    6  C   UNL     1     -40.598  54.247 -50.846  1.00  0.00     0.107 A 
HETATM    7  N   UNL     1     -39.668  53.750 -50.013  1.00  0.00    -0.173 NA
HETATM    8  N   UNL     1     -40.022  54.183 -48.802  1.00  0.00    -0.288 N 
HETATM    9  H   UNL     1     -39.433  53.930 -48.013  1.00  0.00     0.188 HD
HETATM   10  C   UNL     1     -41.158  54.936 -48.804  1.00  0.00     0.128 A 
BRANCH   6  11
HETATM   11  C   UNL     1     -40.528  53.951 -52.275  1.00  0.00     0.034 A 
HETATM   12  C   UNL     1     -40.317  52.651 -52.744  1.00  0.00     0.129 A 
HETATM   13  F   UNL     1     -40.143  51.631 -51.887  1.00  0.00    -0.205 F 
HETATM   14  C   UNL     1     -40.252  52.377 -54.110  1.00  0.00     0.043 A 
HETATM   15  C   UNL     1     -40.385  53.415 -55.031  1.00  0.00     0.003 A 
HETATM   16  C   UNL     1     -40.572  54.722 -54.582  1.00  0.00     0.001 A 
HETATM   17  C   UNL     1     -40.641  54.989 -53.212  1.00  0.00     0.017 A 
ENDBRANCH   6  11
ENDBRANCH   2   5
BRANCH   1  18
HETATM   18  C   UNL     1     -43.388  57.930 -51.669  1.00  0.00     0.089 C 
HETATM   19  C   UNL     1     -43.036  58.151 -53.144  1.00  0.00     0.063 C 
HETATM   20  C   UNL     1     -41.919  59.173 -53.415  1.00  0.00     0.121 C 
HETATM   21  N   UNL     1     -42.152  60.429 -52.606  1.00  0.00    -0.059 N 
HETATM   22  C   UNL     1     -40.509  58.631 -53.153  1.00  0.00     0.046 C 
HETATM   23  C   UNL     1     -41.979  59.604 -54.896  1.00  0.00     0.046 C 
HETATM   24  C   UNL     1     -42.558  60.336 -51.149  1.00  0.00     0.121 C 
HETATM   25  H   UNL     1     -42.889  60.967 -53.085  1.00  0.00     0.279 HD
HETATM   26  H   UNL     1     -41.319  61.032 -52.675  1.00  0.00     0.279 HD
HETATM   27  C   UNL     1     -41.328  60.095 -50.270  1.00  0.00     0.046 C 
HETATM   28  C   UNL     1     -43.123  61.724 -50.780  1.00  0.00     0.046 C 
HETATM   29  C   UNL     1     -43.663  59.284 -50.996  1.00  0.00     0.063 C 
ENDBRANCH   1  18
TORSDOF 3
ENDMDL
MODEL 3
REMARK VINA RESULT:      -7.8      3.628      7.464
REMARK  3 active torsions:
REMARK  status: ('A' for Active; 'I' for Inactive)
REMARK    1  A    between atoms: C_11  and  N_12 
REMARK       I    between atoms: N_12  and  C_13 
REMARK    2  A    between atoms: C_13  and  C_14 
REMARK    3  A    between atoms: C_15  and  C_16 
ROOT
HETATM    1  N   UNL     1     -42.905  56.003 -55.609  1.00  0.00    -0.352 N 
HETATM    2  C   UNL     1     -43.669  57.124 -55.904  1.00  0.00     0.255 C 
HETATM    3  O   UNL     1     -44.738  57.348 -55.350  1.00  0.00    -0.268 OA
HETATM    4  H   UNL     1     -41.944  56.052 -55.924  1.00  0.00     0.163 HD
ENDROOT
BRANCH   2   5
HETATM    5  C   UNL     1     -43.110  57.992 -56.928  1.00  0.00     0.080 A 
HETATM    6  C   UNL     1     -43.401  58.004 -58.331  1.00  0.00     0.107 A 
HETATM    7  N   UNL     1     -42.730  58.991 -58.949  1.00  0.00    -0.173 NA
HETATM    8  N   UNL     1     -42.029  59.589 -57.984  1.00  0.00    -0.288 N 
HETATM    9  H   UNL     1     -41.453  60.388 -58.238  1.00  0.00     0.188 HD
HETATM   10  C   UNL     1     -42.202  59.024 -56.757  1.00  0.00     0.128 A 
BRANCH   6  11
HETATM   11  C   UNL     1     -44.271  57.121 -59.105  1.00  0.00     0.034 A 
HETATM   12  C   UNL     1     -43.761  56.033 -59.820  1.00  0.00     0.129 A 
HETATM   13  F   UNL     1     -42.441  55.782 -59.841  1.00  0.00    -0.205 F 
HETATM   14  C   UNL     1     -44.599  55.195 -60.554  1.00  0.00     0.043 A 
HETATM   15  C   UNL     1     -45.970  55.447 -60.593  1.00  0.00     0.003 A 
HETATM   16  C   UNL     1     -46.494  56.541 -59.905  1.00  0.00     0.001 A 
HETATM   17  C   UNL     1     -45.649  57.374 -59.167  1.00  0.00     0.017 A 
ENDBRANCH   6  11
ENDBRANCH   2   5
BRANCH   1  18
HETATM   18  C   UNL     1     -43.249  55.111 -54.513  1.00  0.00     0.089 C 
HETATM   19  C   UNL     1     -43.122  55.798 -53.148  1.00  0.00     0.063 C 
HETATM   20  C   UNL     1     -41.688  55.956 -52.615  1.00  0.00     0.121 C 
HETATM   21  N   UNL     1     -40.930  54.657 -52.763  1.00  0.00    -0.059 N 
HETATM   22  C   UNL     1     -40.908  57.100 -53.271  1.00  0.00     0.046 C 
HETATM   23  C   UNL     1     -41.744  56.245 -51.100  1.00  0.00     0.046 C 
HETATM   24  C   UNL     1     -41.021  53.860 -54.049  1.00  0.00     0.121 C 
HETATM   25  H   UNL     1     -41.243  54.033 -52.005  1.00  0.00     0.279 HD
HETATM   26  H   UNL     1     -39.934  54.823 -52.552  1.00  0.00     0.279 HD
HETATM   27  C   UNL     1     -40.072  54.440 -55.101  1.00  0.00     0.046 C 
HETATM   28  C   UNL     1     -40.514  52.444 -53.703  1.00  0.00     0.046 C 
HETATM   29  C   UNL     1     -42.485  53.777 -54.492  1.00  0.00     0.063 C 
ENDBRANCH   1  18
TORSDOF 3
ENDMDL
MODEL 4
REMARK VINA RESULT:      -7.7      3.339      7.018
REMARK  3 active torsions:
REMARK  status: ('A' for Active; 'I' for Inactive)
REMARK    1  A    between atoms: C_11  and  N_12 
REMARK       I    between atoms: N_12  and  C_13 
REMARK    2  A    between atoms: C_13  and  C_14 
REMARK    3  A    between atoms: C_15  and  C_16 
ROOT
HETATM    1  N   UNL     1     -42.600  56.712 -54.073  1.00  0.00    -0.352 N 
HETATM    2  C   UNL     1     -42.734  57.746 -54.991  1.00  0.00     0.255 C 
HETATM    3  O   UNL     1     -41.812  58.510 -55.250  1.00  0.00    -0.268 OA
HETATM    4  H   UNL     1     -43.320  56.003 -54.130  1.00  0.00     0.163 HD
ENDROOT
BRANCH   2   5
HETATM    5  C   UNL     1     -44.050  57.857 -55.599  1.00  0.00     0.080 A 
HETATM    6  C   UNL     1     -44.380  57.865 -56.994  1.00  0.00     0.107 A 
HETATM    7  N   UNL     1     -45.712  57.926 -57.168  1.00  0.00    -0.173 NA
HETATM    8  N   UNL     1     -46.220  57.962 -55.936  1.00  0.00    -0.288 N 
HETATM    9  H   UNL     1     -47.232  57.994 -55.838  1.00  0.00     0.188 HD
HETATM   10  C   UNL     1     -45.273  57.942 -54.956  1.00  0.00     0.128 A 
BRANCH   6  11
HETATM   11  C   UNL     1     -43.495  57.828 -58.156  1.00  0.00     0.034 A 
HETATM   12  C   UNL     1     -43.103  56.619 -58.740  1.00  0.00     0.129 A 
HETATM   13  F   UNL     1     -43.510  55.446 -58.228  1.00  0.00    -0.205 F 
HETATM   14  C   UNL     1     -42.259  56.594 -59.849  1.00  0.00     0.043 A 
HETATM   15  C   UNL     1     -41.780  57.789 -60.384  1.00  0.00     0.003 A 
HETATM   16  C   UNL     1     -42.141  59.003 -59.800  1.00  0.00     0.001 A 
HETATM   17  C   UNL     1     -42.992  59.023 -58.692  1.00  0.00     0.017 A 
ENDBRANCH   6  11
ENDBRANCH   2   5
BRANCH   1  18
HETATM   18  C   UNL     1     -41.315  56.377 -53.483  1.00  0.00     0.089 C 
HETATM   19  C   UNL     1     -40.584  55.285 -54.274  1.00  0.00     0.063 C 
HETATM   20  C   UNL     1     -41.097  53.851 -54.058  1.00  0.00     0.121 C 
HETATM   21  N   UNL     1     -41.274  53.577 -52.582  1.00  0.00    -0.059 N 
HETATM   22  C   UNL     1     -42.394  53.539 -54.813  1.00  0.00     0.046 C 
HETATM   23  C   UNL     1     -40.026  52.855 -54.550  1.00  0.00     0.046 C 
HETATM   24  C   UNL     1     -41.935  54.606 -51.687  1.00  0.00     0.121 C 
HETATM   25  H   UNL     1     -40.337  53.401 -52.190  1.00  0.00     0.279 HD
HETATM   26  H   UNL     1     -41.765  52.679 -52.465  1.00  0.00     0.279 HD
HETATM   27  C   UNL     1     -43.458  54.512 -51.805  1.00  0.00     0.046 C 
HETATM   28  C   UNL     1     -41.560  54.210 -50.243  1.00  0.00     0.046 C 
HETATM   29  C   UNL     1     -41.359  55.992 -51.995  1.00  0.00     0.063 C 
ENDBRANCH   1  18
TORSDOF 3
ENDMDL
MODEL 5
REMARK VINA RESULT:      -7.7      2.734      6.742
REMARK  3 active torsions:
REMARK  status: ('A' for Active; 'I' for Inactive)
REMARK    1  A    between atoms: C_11  and  N_12 
REMARK       I    between atoms: N_12  and  C_13 
REMARK    2  A    between atoms: C_13  and  C_14 
REMARK    3  A    between atoms: C_15  and  C_16 
ROOT
HETATM    1  N   UNL     1     -42.800  55.812 -54.866  1.00  0.00    -0.352 N 
HETATM    2  C   UNL     1     -43.561  56.973 -54.826  1.00  0.00     0.255 C 
HETATM    3  O   UNL     1     -44.697  56.991 -54.366  1.00  0.00    -0.268 OA
HETATM    4  H   UNL     1     -41.811  55.961 -55.020  1.00  0.00     0.163 HD
ENDROOT
BRANCH   2   5
HETATM    5  C   UNL     1     -42.914  58.148 -55.385  1.00  0.00     0.080 A 
HETATM    6  C   UNL     1     -42.254  59.210 -54.684  1.00  0.00     0.107 A 
HETATM    7  N   UNL     1     -41.725  60.095 -55.547  1.00  0.00    -0.173 NA
HETATM    8  N   UNL     1     -42.038  59.627 -56.757  1.00  0.00    -0.288 N 
HETATM    9  H   UNL     1     -41.714  60.148 -57.568  1.00  0.00     0.188 HD
HETATM   10  C   UNL     1     -42.764  58.475 -56.722  1.00  0.00     0.128 A 
BRANCH   6  11
HETATM   11  C   UNL     1     -42.112  59.423 -53.245  1.00  0.00     0.034 A 
HETATM   12  C   UNL     1     -40.883  59.263 -52.598  1.00  0.00     0.129 A 
HETATM   13  F   UNL     1     -39.793  58.877 -53.281  1.00  0.00    -0.205 F 
HETATM   14  C   UNL     1     -40.758  59.469 -51.225  1.00  0.00     0.043 A 
HETATM   15  C   UNL     1     -41.876  59.829 -50.473  1.00  0.00     0.003 A 
HETATM   16  C   UNL     1     -43.114  59.970 -51.097  1.00  0.00     0.001 A 
HETATM   17  C   UNL     1     -43.233  59.767 -52.475  1.00  0.00     0.017 A 
ENDBRANCH   6  11
ENDBRANCH   2   5
BRANCH   1  18
HETATM   18  C   UNL     1     -43.243  54.586 -54.223  1.00  0.00     0.089 C 
HETATM   19  C   UNL     1     -43.211  54.692 -52.694  1.00  0.00     0.063 C 
HETATM   20  C   UNL     1     -41.820  54.569 -52.049  1.00  0.00     0.121 C 
HETATM   21  N   UNL     1     -41.074  53.392 -52.635  1.00  0.00    -0.059 N 
HETATM   22  C   UNL     1     -40.972  55.841 -52.161  1.00  0.00     0.046 C 
HETATM   23  C   UNL     1     -41.989  54.260 -50.546  1.00  0.00     0.046 C 
HETATM   24  C   UNL     1     -41.079  53.153 -54.131  1.00  0.00     0.121 C 
HETATM   25  H   UNL     1     -41.456  52.541 -52.197  1.00  0.00     0.279 HD
HETATM   26  H   UNL     1     -40.096  53.421 -52.312  1.00  0.00     0.279 HD
HETATM   27  C   UNL     1     -40.042  54.047 -54.815  1.00  0.00     0.046 C 
HETATM   28  C   UNL     1     -40.624  51.691 -54.324  1.00  0.00     0.046 C 
HETATM   29  C   UNL     1     -42.506  53.312 -54.667  1.00  0.00     0.063 C 
ENDBRANCH   1  18
TORSDOF 3
ENDMDL
MODEL 6
REMARK VINA RESULT:      -7.5      2.651      5.496
REMARK  3 active torsions:
REMARK  status: ('A' for Active; 'I' for Inactive)
REMARK    1  A    between atoms: C_11  and  N_12 
REMARK       I    between atoms: N_12  and  C_13 
REMARK    2  A    between atoms: C_13  and  C_14 
REMARK    3  A    between atoms: C_15  and  C_16 
ROOT
HETATM    1  N   UNL     1     -43.239  57.211 -53.384  1.00  0.00    -0.352 N 
HETATM    2  C   UNL     1     -44.179  57.160 -54.405  1.00  0.00     0.255 C 
HETATM    3  O   UNL     1     -45.384  57.160 -54.181  1.00  0.00    -0.268 OA
HETATM    4  H   UNL     1     -42.306  57.465 -53.683  1.00  0.00     0.163 HD
ENDROOT
BRANCH   2   5
HETATM    5  C   UNL     1     -43.623  57.087 -55.746  1.00  0.00     0.080 A 
HETATM    6  C   UNL     1     -42.701  56.123 -56.269  1.00  0.00     0.107 A 
HETATM    7  N   UNL     1     -42.461  56.350 -57.572  1.00  0.00    -0.173 NA
HETATM    8  N   UNL     1     -43.194  57.423 -57.876  1.00  0.00    -0.288 N 
HETATM    9  H   UNL     1     -43.171  57.760 -58.835  1.00  0.00     0.188 HD
HETATM   10  C   UNL     1     -43.896  57.918 -56.820  1.00  0.00     0.128 A 
BRANCH   6  11
HETATM   11  C   UNL     1     -42.037  55.012 -55.590  1.00  0.00     0.034 A 
HETATM   12  C   UNL     1     -42.765  53.976 -54.997  1.00  0.00     0.129 A 
HETATM   13  F   UNL     1     -44.108  53.985 -55.011  1.00  0.00    -0.205 F 
HETATM   14  C   UNL     1     -42.123  52.919 -54.353  1.00  0.00     0.043 A 
HETATM   15  C   UNL     1     -40.731  52.896 -54.279  1.00  0.00     0.003 A 
HETATM   16  C   UNL     1     -39.989  53.933 -54.843  1.00  0.00     0.001 A 
HETATM   17  C   UNL     1     -40.638  54.986 -55.493  1.00  0.00     0.017 A 
ENDBRANCH   6  11
ENDBRANCH   2   5
BRANCH   1  18
HETATM   18  C   UNL     1     -43.627  57.428 -52.000  1.00  0.00     0.089 C 
HETATM   19  C   UNL     1     -43.061  58.739 -51.441  1.00  0.00     0.063 C 
HETATM   20  C   UNL     1     -41.572  58.709 -51.056  1.00  0.00     0.121 C 
HETATM   21  N   UNL     1     -41.266  57.471 -50.245  1.00  0.00    -0.059 N 
HETATM   22  C   UNL     1     -40.622  58.803 -52.255  1.00  0.00     0.046 C 
HETATM   23  C   UNL     1     -41.267  59.908 -50.132  1.00  0.00     0.046 C 
HETATM   24  C   UNL     1     -41.816  56.124 -50.670  1.00  0.00     0.121 C 
HETATM   25  H   UNL     1     -41.607  57.641 -49.288  1.00  0.00     0.279 HD
HETATM   26  H   UNL     1     -40.245  57.386 -50.135  1.00  0.00     0.279 HD
HETATM   27  C   UNL     1     -40.945  55.519 -51.773  1.00  0.00     0.046 C 
HETATM   28  C   UNL     1     -41.692  55.210 -49.432  1.00  0.00     0.046 C 
HETATM   29  C   UNL     1     -43.296  56.273 -51.040  1.00  0.00     0.063 C 
ENDBRANCH   1  18
TORSDOF 3
ENDMDL
MODEL 7
REMARK VINA RESULT:      -7.5     14.229     17.181
REMARK  3 active torsions:
REMARK  status: ('A' for Active; 'I' for Inactive)
REMARK    1  A    between atoms: C_11  and  N_12 
REMARK       I    between atoms: N_12  and  C_13 
REMARK    2  A    between atoms: C_13  and  C_14 
REMARK    3  A    between atoms: C_15  and  C_16 
ROOT
HETATM    1  N   UNL     1     -34.429  40.592 -54.864  1.00  0.00    -0.352 N 
HETATM    2  C   UNL     1     -35.191  41.664 -55.308  1.00  0.00     0.255 C 
HETATM    3  O   UNL     1     -34.689  42.635 -55.862  1.00  0.00    -0.268 OA
HETATM    4  H   UNL     1     -34.958  39.752 -54.665  1.00  0.00     0.163 HD
ENDROOT
BRANCH   2   5
HETATM    5  C   UNL     1     -36.617  41.550 -55.051  1.00  0.00     0.080 A 
HETATM    6  C   UNL     1     -37.664  41.267 -55.988  1.00  0.00     0.107 A 
HETATM    7  N   UNL     1     -38.852  41.184 -55.365  1.00  0.00    -0.173 NA
HETATM    8  N   UNL     1     -38.584  41.410 -54.078  1.00  0.00    -0.288 N 
HETATM    9  H   UNL     1     -39.356  41.376 -53.417  1.00  0.00     0.188 HD
HETATM   10  C   UNL     1     -37.267  41.653 -53.832  1.00  0.00     0.128 A 
BRANCH   6  11
HETATM   11  C   UNL     1     -37.588  41.085 -57.436  1.00  0.00     0.034 A 
HETATM   12  C   UNL     1     -37.783  39.833 -58.028  1.00  0.00     0.129 A 
HETATM   13  F   UNL     1     -38.021  38.747 -57.275  1.00  0.00    -0.205 F 
HETATM   14  C   UNL     1     -37.709  39.670 -59.411  1.00  0.00     0.043 A 
HETATM   15  C   UNL     1     -37.421  40.765 -60.224  1.00  0.00     0.003 A 
HETATM   16  C   UNL     1     -37.200  42.016 -59.650  1.00  0.00     0.001 A 
HETATM   17  C   UNL     1     -37.281  42.175 -58.264  1.00  0.00     0.017 A 
ENDBRANCH   6  11
ENDBRANCH   2   5
BRANCH   1  18
HETATM   18  C   UNL     1     -33.012  40.484 -55.168  1.00  0.00     0.089 C 
HETATM   19  C   UNL     1     -32.764  39.939 -56.579  1.00  0.00     0.063 C 
HETATM   20  C   UNL     1     -32.951  38.422 -56.748  1.00  0.00     0.121 C 
HETATM   21  N   UNL     1     -32.249  37.682 -55.633  1.00  0.00    -0.059 N 
HETATM   22  C   UNL     1     -34.418  37.986 -56.830  1.00  0.00     0.046 C 
HETATM   23  C   UNL     1     -32.263  37.973 -58.055  1.00  0.00     0.046 C 
HETATM   24  C   UNL     1     -32.376  38.159 -54.200  1.00  0.00     0.121 C 
HETATM   25  H   UNL     1     -31.243  37.677 -55.856  1.00  0.00     0.279 HD
HETATM   26  H   UNL     1     -32.517  36.687 -55.670  1.00  0.00     0.279 HD
HETATM   27  C   UNL     1     -33.691  37.666 -53.591  1.00  0.00     0.046 C 
HETATM   28  C   UNL     1     -31.227  37.478 -53.427  1.00  0.00     0.046 C 
HETATM   29  C   UNL     1     -32.185  39.679 -54.152  1.00  0.00     0.063 C 
ENDBRANCH   1  18
TORSDOF 3
ENDMDL
MODEL 8
REMARK VINA RESULT:      -7.5      3.021      4.644
REMARK  3 active torsions:
REMARK  status: ('A' for Active; 'I' for Inactive)
REMARK    1  A    between atoms: C_11  and  N_12 
REMARK       I    between atoms: N_12  and  C_13 
REMARK    2  A    between atoms: C_13  and  C_14 
REMARK    3  A    between atoms: C_15  and  C_16 
ROOT
HETATM    1  N   UNL     1     -42.528  58.053 -51.916  1.00  0.00    -0.352 N 
HETATM    2  C   UNL     1     -42.045  56.987 -51.169  1.00  0.00     0.255 C 
HETATM    3  O   UNL     1     -40.958  57.028 -50.604  1.00  0.00    -0.268 OA
HETATM    4  H   UNL     1     -43.519  58.014 -52.114  1.00  0.00     0.163 HD
ENDROOT
BRANCH   2   5
HETATM    5  C   UNL     1     -42.917  55.825 -51.125  1.00  0.00     0.080 A 
HETATM    6  C   UNL     1     -42.841  54.635 -51.920  1.00  0.00     0.107 A 
HETATM    7  N   UNL     1     -43.789  53.755 -51.551  1.00  0.00    -0.173 NA
HETATM    8  N   UNL     1     -44.454  54.357 -50.564  1.00  0.00    -0.288 N 
HETATM    9  H   UNL     1     -45.216  53.849 -50.123  1.00  0.00     0.188 HD
HETATM   10  C   UNL     1     -43.988  55.605 -50.277  1.00  0.00     0.128 A 
BRANCH   6  11
HETATM   11  C   UNL     1     -41.925  54.303 -53.008  1.00  0.00     0.034 A 
HETATM   12  C   UNL     1     -41.942  55.003 -54.219  1.00  0.00     0.129 A 
HETATM   13  F   UNL     1     -42.829  55.990 -54.429  1.00  0.00    -0.205 F 
HETATM   14  C   UNL     1     -41.063  54.680 -55.252  1.00  0.00     0.043 A 
HETATM   15  C   UNL     1     -40.156  53.634 -55.088  1.00  0.00     0.003 A 
HETATM   16  C   UNL     1     -40.140  52.909 -53.897  1.00  0.00     0.001 A 
HETATM   17  C   UNL     1     -41.020  53.241 -52.863  1.00  0.00     0.017 A 
ENDBRANCH   6  11
ENDBRANCH   2   5
BRANCH   1  18
HETATM   18  C   UNL     1     -41.846  59.337 -51.945  1.00  0.00     0.089 C 
HETATM   19  C   UNL     1     -42.252  60.232 -50.767  1.00  0.00     0.063 C 
HETATM   20  C   UNL     1     -43.623  60.917 -50.895  1.00  0.00     0.121 C 
HETATM   21  N   UNL     1     -43.771  61.538 -52.265  1.00  0.00    -0.059 N 
HETATM   22  C   UNL     1     -44.807  59.988 -50.605  1.00  0.00     0.046 C 
HETATM   23  C   UNL     1     -43.697  62.085 -49.888  1.00  0.00     0.046 C 
HETATM   24  C   UNL     1     -43.353  60.770 -53.502  1.00  0.00     0.121 C 
HETATM   25  H   UNL     1     -43.229  62.414 -52.263  1.00  0.00     0.279 HD
HETATM   26  H   UNL     1     -44.746  61.849 -52.389  1.00  0.00     0.279 HD
HETATM   27  C   UNL     1     -44.453  59.790 -53.916  1.00  0.00     0.046 C 
HETATM   28  C   UNL     1     -43.225  61.819 -54.626  1.00  0.00     0.046 C 
HETATM   29  C   UNL     1     -41.985  60.122 -53.260  1.00  0.00     0.063 C 
ENDBRANCH   1  18
TORSDOF 3
ENDMDL
MODEL 9
REMARK VINA RESULT:      -7.4      3.006      6.849
REMARK  3 active torsions:
REMARK  status: ('A' for Active; 'I' for Inactive)
REMARK    1  A    between atoms: C_11  and  N_12 
REMARK       I    between atoms: N_12  and  C_13 
REMARK    2  A    between atoms: C_13  and  C_14 
REMARK    3  A    between atoms: C_15  and  C_16 
ROOT
HETATM    1  N   UNL     1     -42.757  55.881 -55.039  1.00  0.00    -0.352 N 
HETATM    2  C   UNL     1     -43.537  57.029 -55.041  1.00  0.00     0.255 C 
HETATM    3  O   UNL     1     -44.700  57.026 -54.656  1.00  0.00    -0.268 OA
HETATM    4  H   UNL     1     -41.762  56.047 -55.127  1.00  0.00     0.163 HD
ENDROOT
BRANCH   2   5
HETATM    5  C   UNL     1     -42.874  58.219 -55.548  1.00  0.00     0.080 A 
HETATM    6  C   UNL     1     -42.191  59.235 -54.803  1.00  0.00     0.107 A 
HETATM    7  N   UNL     1     -41.654  60.151 -55.627  1.00  0.00    -0.173 NA
HETATM    8  N   UNL     1     -41.984  59.747 -56.855  1.00  0.00    -0.288 N 
HETATM    9  H   UNL     1     -41.657  60.300 -57.643  1.00  0.00     0.188 HD
HETATM   10  C   UNL     1     -42.729  58.607 -56.870  1.00  0.00     0.128 A 
BRANCH   6  11
HETATM   11  C   UNL     1     -42.036  59.377 -53.357  1.00  0.00     0.034 A 
HETATM   12  C   UNL     1     -43.127  59.647 -52.526  1.00  0.00     0.129 A 
HETATM   13  F   UNL     1     -44.357  59.815 -53.040  1.00  0.00    -0.205 F 
HETATM   14  C   UNL     1     -42.970  59.780 -51.147  1.00  0.00     0.043 A 
HETATM   15  C   UNL     1     -41.702  59.656 -50.580  1.00  0.00     0.003 A 
HETATM   16  C   UNL     1     -40.598  59.410 -51.395  1.00  0.00     0.001 A 
HETATM   17  C   UNL     1     -40.763  59.273 -52.776  1.00  0.00     0.017 A 
ENDBRANCH   6  11
ENDBRANCH   2   5
BRANCH   1  18
HETATM   18  C   UNL     1     -43.221  54.643 -54.435  1.00  0.00     0.089 C 
HETATM   19  C   UNL     1     -43.260  54.727 -52.904  1.00  0.00     0.063 C 
HETATM   20  C   UNL     1     -41.900  54.604 -52.197  1.00  0.00     0.121 C 
HETATM   21  N   UNL     1     -41.119  53.440 -52.764  1.00  0.00    -0.059 N 
HETATM   22  C   UNL     1     -41.056  55.882 -52.252  1.00  0.00     0.046 C 
HETATM   23  C   UNL     1     -42.136  54.272 -50.708  1.00  0.00     0.046 C 
HETATM   24  C   UNL     1     -41.053  53.222 -54.263  1.00  0.00     0.121 C 
HETATM   25  H   UNL     1     -41.515  52.580 -52.357  1.00  0.00     0.279 HD
HETATM   26  H   UNL     1     -40.157  53.470 -52.396  1.00  0.00     0.279 HD
HETATM   27  C   UNL     1     -39.992  54.133 -54.885  1.00  0.00     0.046 C 
HETATM   28  C   UNL     1     -40.579  51.766 -54.455  1.00  0.00     0.046 C 
HETATM   29  C   UNL     1     -42.455  53.380 -54.862  1.00  0.00     0.063 C 
ENDBRANCH   1  18
TORSDOF 3
ENDMDL
MODEL 10
REMARK VINA RESULT:      -7.4     14.348     16.052
REMARK  3 active torsions:
REMARK  status: ('A' for Active; 'I' for Inactive)
REMARK    1  A    between atoms: C_11  and  N_12 
REMARK       I    between atoms: N_12  and  C_13 
REMARK    2  A    between atoms: C_13  and  C_14 
REMARK    3  A    between atoms: C_15  and  C_16 
ROOT
HETATM    1  N   UNL     1     -35.597  40.635 -54.906  1.00  0.00    -0.352 N 
HETATM    2  C   UNL     1     -35.968  41.550 -53.930  1.00  0.00     0.255 C 
HETATM    3  O   UNL     1     -35.580  42.712 -53.946  1.00  0.00    -0.268 OA
HETATM    4  H   UNL     1     -36.169  39.801 -54.941  1.00  0.00     0.163 HD
ENDROOT
BRANCH   2   5
HETATM    5  C   UNL     1     -36.832  41.018 -52.890  1.00  0.00     0.080 A 
HETATM    6  C   UNL     1     -36.450  40.360 -51.675  1.00  0.00     0.107 A 
HETATM    7  N   UNL     1     -37.531  40.061 -50.934  1.00  0.00    -0.173 NA
HETATM    8  N   UNL     1     -38.570  40.502 -51.645  1.00  0.00    -0.288 N 
HETATM    9  H   UNL     1     -39.500  40.388 -51.252  1.00  0.00     0.188 HD
HETATM   10  C   UNL     1     -38.215  41.068 -52.833  1.00  0.00     0.128 A 
BRANCH   6  11
HETATM   11  C   UNL     1     -35.117  39.999 -51.197  1.00  0.00     0.034 A 
HETATM   12  C   UNL     1     -34.195  40.970 -50.795  1.00  0.00     0.129 A 
HETATM   13  F   UNL     1     -34.499  42.276 -50.865  1.00  0.00    -0.205 F 
HETATM   14  C   UNL     1     -32.926  40.615 -50.339  1.00  0.00     0.043 A 
HETATM   15  C   UNL     1     -32.556  39.272 -50.293  1.00  0.00     0.003 A 
HETATM   16  C   UNL     1     -33.455  38.291 -50.712  1.00  0.00     0.001 A 
HETATM   17  C   UNL     1     -34.727  38.652 -51.163  1.00  0.00     0.017 A 
ENDBRANCH   6  11
ENDBRANCH   2   5
BRANCH   1  18
HETATM   18  C   UNL     1     -34.854  41.039 -56.089  1.00  0.00     0.089 C 
HETATM   19  C   UNL     1     -35.688  41.932 -57.016  1.00  0.00     0.063 C 
HETATM   20  C   UNL     1     -36.732  41.202 -57.878  1.00  0.00     0.121 C 
HETATM   21  N   UNL     1     -36.116  39.985 -58.529  1.00  0.00    -0.059 N 
HETATM   22  C   UNL     1     -37.999  40.807 -57.111  1.00  0.00     0.046 C 
HETATM   23  C   UNL     1     -37.165  42.129 -59.035  1.00  0.00     0.046 C 
HETATM   24  C   UNL     1     -35.228  39.056 -57.725  1.00  0.00     0.121 C 
HETATM   25  H   UNL     1     -35.553  40.317 -59.325  1.00  0.00     0.279 HD
HETATM   26  H   UNL     1     -36.862  39.425 -58.967  1.00  0.00     0.279 HD
HETATM   27  C   UNL     1     -36.081  38.086 -56.904  1.00  0.00     0.046 C 
HETATM   28  C   UNL     1     -34.448  38.219 -58.761  1.00  0.00     0.046 C 
HETATM   29  C   UNL     1     -34.239  39.886 -56.900  1.00  0.00     0.063 C 
ENDBRANCH   1  18
TORSDOF 3
ENDMDL
