MODEL 1
REMARK VINA RESULT:      -9.3      0.000      0.000
REMARK  7 active torsions:
REMARK  status: ('A' for Active; 'I' for Inactive)
REMARK    1  A    between atoms: C_2  and  C_3 
REMARK    2  A    between atoms: C_3  and  C_4 
REMARK    3  A    between atoms: C_7  and  C_8 
REMARK    4  A    between atoms: C_14  and  C_15 
REMARK    5  A    between atoms: C_18  and  O_19 
REMARK    6  A    between atoms: O_19  and  C_20 
REMARK       I    between atoms: C_20  and  N_21 
REMARK    7  A    between atoms: C_33  and  N_34 
ROOT
HETATM    1  C   UNL     1     -41.351  57.724 -51.439  1.00  0.00     0.099 A 
HETATM    2  N   UNL     1     -40.236  58.120 -50.794  1.00  0.00    -0.172 NA
HETATM    3  N   UNL     1     -40.530  59.345 -50.318  1.00  0.00    -0.256 N 
HETATM    4  H   UNL     1     -39.826  59.844 -49.785  1.00  0.00     0.191 HD
HETATM    5  C   UNL     1     -41.778  59.754 -50.651  1.00  0.00     0.175 A 
HETATM    6  C   UNL     1     -42.350  58.736 -51.372  1.00  0.00     0.040 A 
HETATM    7  C   UNL     1     -43.731  58.903 -51.913  1.00  0.00     0.105 A 
HETATM    8  C   UNL     1     -44.324  60.229 -51.451  1.00  0.00     0.067 A 
HETATM    9  C   UNL     1     -45.810  60.419 -51.715  1.00  0.00     0.020 C 
HETATM   10  N   UNL     1     -47.041  60.577 -51.933  1.00  0.00    -0.096 N 
HETATM   11  C   UNL     1     -43.638  61.147 -50.719  1.00  0.00     0.139 A 
HETATM   12  O   UNL     1     -42.300  60.934 -50.335  1.00  0.00    -0.279 OA
ENDROOT
BRANCH   7  13
HETATM   13  C   UNL     1     -43.616  58.780 -53.426  1.00  0.00    -0.044 A 
HETATM   14  C   UNL     1     -44.383  57.809 -54.094  1.00  0.00     0.011 A 
HETATM   15  C   UNL     1     -44.207  57.579 -55.459  1.00  0.00     0.038 A 
HETATM   16  C   UNL     1     -43.276  58.329 -56.172  1.00  0.00     0.081 A 
HETATM   17  C   UNL     1     -42.545  59.334 -55.547  1.00  0.00     0.038 A 
HETATM   18  C   UNL     1     -42.733  59.573 -54.184  1.00  0.00     0.011 A 
BRANCH  16  19
HETATM   19  O   UNL     1     -43.024  57.894 -57.490  1.00  0.00    -0.261 OA
BRANCH  19  20
HETATM   20  C   UNL     1     -43.057  56.556 -57.880  1.00  0.00     0.368 C 
HETATM   21  N   UNL     1     -43.855  56.360 -58.994  1.00  0.00    -0.324 N 
HETATM   22  C   UNL     1     -43.916  55.046 -59.626  1.00  0.00     0.154 C 
HETATM   23  C   UNL     1     -44.466  57.447 -59.761  1.00  0.00     0.154 C 
HETATM   24  C   UNL     1     -45.329  54.748 -60.134  1.00  0.00     0.187 C 
HETATM   25  O   UNL     1     -45.808  55.803 -60.983  1.00  0.00    -0.388 OA
HETATM   26  C   UNL     1     -45.855  57.045 -60.265  1.00  0.00     0.187 C 
HETATM   27  O   UNL     1     -42.463  55.652 -57.304  1.00  0.00    -0.238 OA
ENDBRANCH  19  20
ENDBRANCH  16  19
ENDBRANCH   7  13
BRANCH  11  28
HETATM   28  N   UNL     1     -44.144  62.340 -50.258  1.00  0.00    -0.282 NA
HETATM   29  H   UNL     1     -44.850  62.263 -49.529  1.00  0.00     0.126 HD
HETATM   30  H   UNL     1     -44.428  62.953 -51.018  1.00  0.00     0.126 HD
ENDBRANCH  11  28
BRANCH   1  31
HETATM   31  C   UNL     1     -41.401  56.440 -52.140  1.00  0.00    -0.005 A 
HETATM   32  C   UNL     1     -40.901  56.301 -53.439  1.00  0.00     0.014 A 
HETATM   33  C   UNL     1     -40.879  55.047 -54.060  1.00  0.00     0.008 A 
HETATM   34  C   UNL     1     -41.373  53.913 -53.402  1.00  0.00    -0.058 A 
HETATM   35  C   UNL     1     -41.919  54.063 -52.123  1.00  0.00     0.008 A 
HETATM   36  C   UNL     1     -41.928  55.313 -51.497  1.00  0.00     0.014 A 
BRANCH  34  37
HETATM   37  C   UNL     1     -41.322  52.560 -54.074  1.00  0.00     0.042 C 
BRANCH  37  38
HETATM   38  C   UNL     1     -40.019  51.749 -53.892  1.00  0.00    -0.019 C 
HETATM   39  C   UNL     1     -40.111  50.333 -54.463  1.00  0.00     0.010 C 
HETATM   40  C   UNL     1     -39.539  51.704 -52.441  1.00  0.00     0.010 C 
ENDBRANCH  37  38
ENDBRANCH  34  37
ENDBRANCH   1  31
TORSDOF 7
ENDMDL
MODEL 2
REMARK VINA RESULT:      -8.6      1.555      2.096
REMARK  7 active torsions:
REMARK  status: ('A' for Active; 'I' for Inactive)
REMARK    1  A    between atoms: C_2  and  C_3 
REMARK    2  A    between atoms: C_3  and  C_4 
REMARK    3  A    between atoms: C_7  and  C_8 
REMARK    4  A    between atoms: C_14  and  C_15 
REMARK    5  A    between atoms: C_18  and  O_19 
REMARK    6  A    between atoms: O_19  and  C_20 
REMARK       I    between atoms: C_20  and  N_21 
REMARK    7  A    between atoms: C_33  and  N_34 
ROOT
HETATM    1  C   UNL     1     -41.329  57.681 -51.434  1.00  0.00     0.099 A 
HETATM    2  N   UNL     1     -40.232  58.060 -50.749  1.00  0.00    -0.172 NA
HETATM    3  N   UNL     1     -40.527  59.286 -50.276  1.00  0.00    -0.256 N 
HETATM    4  H   UNL     1     -39.836  59.773 -49.716  1.00  0.00     0.191 HD
HETATM    5  C   UNL     1     -41.758  59.711 -50.649  1.00  0.00     0.175 A 
HETATM    6  C   UNL     1     -42.317  58.705 -51.395  1.00  0.00     0.040 A 
HETATM    7  C   UNL     1     -43.677  58.892 -51.981  1.00  0.00     0.105 A 
HETATM    8  C   UNL     1     -44.269  60.222 -51.532  1.00  0.00     0.067 A 
HETATM    9  C   UNL     1     -45.743  60.432 -51.845  1.00  0.00     0.020 C 
HETATM   10  N   UNL     1     -46.964  60.606 -52.104  1.00  0.00    -0.096 N 
HETATM   11  C   UNL     1     -43.597  61.128 -50.771  1.00  0.00     0.139 A 
HETATM   12  O   UNL     1     -42.277  60.896 -50.344  1.00  0.00    -0.279 OA
ENDROOT
BRANCH   7  13
HETATM   13  C   UNL     1     -43.511  58.776 -53.490  1.00  0.00    -0.044 A 
HETATM   14  C   UNL     1     -44.157  57.729 -54.171  1.00  0.00     0.011 A 
HETATM   15  C   UNL     1     -43.924  57.513 -55.530  1.00  0.00     0.038 A 
HETATM   16  C   UNL     1     -43.058  58.353 -56.225  1.00  0.00     0.081 A 
HETATM   17  C   UNL     1     -42.450  59.430 -55.588  1.00  0.00     0.038 A 
HETATM   18  C   UNL     1     -42.696  59.653 -54.232  1.00  0.00     0.011 A 
BRANCH  16  19
HETATM   19  O   UNL     1     -42.730  57.941 -57.534  1.00  0.00    -0.261 OA
BRANCH  19  20
HETATM   20  C   UNL     1     -43.601  58.047 -58.616  1.00  0.00     0.368 C 
HETATM   21  N   UNL     1     -43.254  59.085 -59.463  1.00  0.00    -0.324 N 
HETATM   22  C   UNL     1     -43.973  59.276 -60.718  1.00  0.00     0.154 C 
HETATM   23  C   UNL     1     -42.032  59.879 -59.320  1.00  0.00     0.154 C 
HETATM   24  C   UNL     1     -44.144  60.765 -61.030  1.00  0.00     0.187 C 
HETATM   25  O   UNL     1     -42.881  61.450 -60.996  1.00  0.00    -0.388 OA
HETATM   26  C   UNL     1     -42.285  61.342 -59.694  1.00  0.00     0.187 C 
HETATM   27  O   UNL     1     -44.570  57.318 -58.799  1.00  0.00    -0.238 OA
ENDBRANCH  19  20
ENDBRANCH  16  19
ENDBRANCH   7  13
BRANCH  11  28
HETATM   28  N   UNL     1     -44.105  62.324 -50.320  1.00  0.00    -0.282 NA
HETATM   29  H   UNL     1     -45.006  62.268 -49.851  1.00  0.00     0.126 HD
HETATM   30  H   UNL     1     -44.079  63.044 -51.038  1.00  0.00     0.126 HD
ENDBRANCH  11  28
BRANCH   1  31
HETATM   31  C   UNL     1     -41.370  56.402 -52.145  1.00  0.00    -0.005 A 
HETATM   32  C   UNL     1     -40.816  56.261 -53.421  1.00  0.00     0.014 A 
HETATM   33  C   UNL     1     -40.788  55.010 -54.048  1.00  0.00     0.008 A 
HETATM   34  C   UNL     1     -41.330  53.882 -53.419  1.00  0.00    -0.058 A 
HETATM   35  C   UNL     1     -41.930  54.035 -52.165  1.00  0.00     0.008 A 
HETATM   36  C   UNL     1     -41.945  55.281 -51.532  1.00  0.00     0.014 A 
BRANCH  34  37
HETATM   37  C   UNL     1     -41.273  52.532 -54.097  1.00  0.00     0.042 C 
BRANCH  37  38
HETATM   38  C   UNL     1     -39.979  51.712 -53.893  1.00  0.00    -0.019 C 
HETATM   39  C   UNL     1     -40.076  50.291 -54.450  1.00  0.00     0.010 C 
HETATM   40  C   UNL     1     -39.514  51.678 -52.436  1.00  0.00     0.010 C 
ENDBRANCH  37  38
ENDBRANCH  34  37
ENDBRANCH   1  31
TORSDOF 7
ENDMDL
MODEL 3
REMARK VINA RESULT:      -8.5      2.112      7.065
REMARK  7 active torsions:
REMARK  status: ('A' for Active; 'I' for Inactive)
REMARK    1  A    between atoms: C_2  and  C_3 
REMARK    2  A    between atoms: C_3  and  C_4 
REMARK    3  A    between atoms: C_7  and  C_8 
REMARK    4  A    between atoms: C_14  and  C_15 
REMARK    5  A    between atoms: C_18  and  O_19 
REMARK    6  A    between atoms: O_19  and  C_20 
REMARK       I    between atoms: C_20  and  N_21 
REMARK    7  A    between atoms: C_33  and  N_34 
ROOT
HETATM    1  C   UNL     1     -42.874  55.247 -56.717  1.00  0.00     0.099 A 
HETATM    2  N   UNL     1     -43.635  54.420 -57.461  1.00  0.00    -0.172 NA
HETATM    3  N   UNL     1     -44.123  55.195 -58.448  1.00  0.00    -0.256 N 
HETATM    4  H   UNL     1     -44.731  54.775 -59.144  1.00  0.00     0.191 HD
HETATM    5  C   UNL     1     -43.720  56.485 -58.353  1.00  0.00     0.175 A 
HETATM    6  C   UNL     1     -42.906  56.566 -57.252  1.00  0.00     0.040 A 
HETATM    7  C   UNL     1     -42.324  57.884 -56.862  1.00  0.00     0.105 A 
HETATM    8  C   UNL     1     -42.694  58.950 -57.887  1.00  0.00     0.067 A 
HETATM    9  C   UNL     1     -41.965  60.278 -57.754  1.00  0.00     0.020 C 
HETATM   10  N   UNL     1     -41.362  61.379 -57.645  1.00  0.00    -0.096 N 
HETATM   11  C   UNL     1     -43.509  58.721 -58.951  1.00  0.00     0.139 A 
HETATM   12  O   UNL     1     -44.086  57.458 -59.180  1.00  0.00    -0.279 OA
ENDROOT
BRANCH   7  13
HETATM   13  C   UNL     1     -42.838  58.181 -55.460  1.00  0.00    -0.044 A 
HETATM   14  C   UNL     1     -41.920  58.260 -54.397  1.00  0.00     0.011 A 
HETATM   15  C   UNL     1     -42.365  58.400 -53.082  1.00  0.00     0.038 A 
HETATM   16  C   UNL     1     -43.730  58.478 -52.818  1.00  0.00     0.081 A 
HETATM   17  C   UNL     1     -44.656  58.459 -53.856  1.00  0.00     0.038 A 
HETATM   18  C   UNL     1     -44.208  58.334 -55.173  1.00  0.00     0.011 A 
BRANCH  16  19
HETATM   19  O   UNL     1     -44.091  58.415 -51.456  1.00  0.00    -0.261 OA
BRANCH  19  20
HETATM   20  C   UNL     1     -45.194  59.077 -50.920  1.00  0.00     0.368 C 
HETATM   21  N   UNL     1     -44.938  60.419 -50.699  1.00  0.00    -0.324 N 
HETATM   22  C   UNL     1     -46.011  61.304 -50.258  1.00  0.00     0.154 C 
HETATM   23  C   UNL     1     -43.710  61.094 -51.120  1.00  0.00     0.154 C 
HETATM   24  C   UNL     1     -45.488  62.346 -49.265  1.00  0.00     0.187 C 
HETATM   25  O   UNL     1     -44.360  63.054 -49.804  1.00  0.00    -0.388 OA
HETATM   26  C   UNL     1     -43.285  62.147 -50.091  1.00  0.00     0.187 C 
HETATM   27  O   UNL     1     -46.265  58.539 -50.660  1.00  0.00    -0.238 OA
ENDBRANCH  19  20
ENDBRANCH  16  19
ENDBRANCH   7  13
BRANCH  11  28
HETATM   28  N   UNL     1     -43.844  59.646 -59.913  1.00  0.00    -0.282 NA
HETATM   29  H   UNL     1     -43.699  59.348 -60.875  1.00  0.00     0.126 HD
HETATM   30  H   UNL     1     -43.442  60.560 -59.720  1.00  0.00     0.126 HD
ENDBRANCH  11  28
BRANCH   1  31
HETATM   31  C   UNL     1     -42.205  54.771 -55.506  1.00  0.00    -0.005 A 
HETATM   32  C   UNL     1     -42.930  54.434 -54.359  1.00  0.00     0.014 A 
HETATM   33  C   UNL     1     -42.281  53.899 -53.241  1.00  0.00     0.008 A 
HETATM   34  C   UNL     1     -40.892  53.708 -53.241  1.00  0.00    -0.058 A 
HETATM   35  C   UNL     1     -40.162  54.094 -54.370  1.00  0.00     0.008 A 
HETATM   36  C   UNL     1     -40.813  54.615 -55.493  1.00  0.00     0.014 A 
BRANCH  34  37
HETATM   37  C   UNL     1     -40.206  53.108 -52.036  1.00  0.00     0.042 C 
BRANCH  37  38
HETATM   38  C   UNL     1     -39.534  51.731 -52.240  1.00  0.00    -0.019 C 
HETATM   39  C   UNL     1     -39.943  51.052 -53.547  1.00  0.00     0.010 C 
HETATM   40  C   UNL     1     -39.746  50.781 -51.060  1.00  0.00     0.010 C 
ENDBRANCH  37  38
ENDBRANCH  34  37
ENDBRANCH   1  31
TORSDOF 7
ENDMDL
MODEL 4
REMARK VINA RESULT:      -8.5      2.382      7.424
REMARK  7 active torsions:
REMARK  status: ('A' for Active; 'I' for Inactive)
REMARK    1  A    between atoms: C_2  and  C_3 
REMARK    2  A    between atoms: C_3  and  C_4 
REMARK    3  A    between atoms: C_7  and  C_8 
REMARK    4  A    between atoms: C_14  and  C_15 
REMARK    5  A    between atoms: C_18  and  O_19 
REMARK    6  A    between atoms: O_19  and  C_20 
REMARK       I    between atoms: C_20  and  N_21 
REMARK    7  A    between atoms: C_33  and  N_34 
ROOT
HETATM    1  C   UNL     1     -42.965  55.202 -56.569  1.00  0.00     0.099 A 
HETATM    2  N   UNL     1     -43.606  54.304 -57.343  1.00  0.00    -0.172 NA
HETATM    3  N   UNL     1     -43.929  54.981 -58.462  1.00  0.00    -0.256 N 
HETATM    4  H   UNL     1     -44.423  54.494 -59.202  1.00  0.00     0.191 HD
HETATM    5  C   UNL     1     -43.539  56.278 -58.423  1.00  0.00     0.175 A 
HETATM    6  C   UNL     1     -42.906  56.466 -57.220  1.00  0.00     0.040 A 
HETATM    7  C   UNL     1     -42.386  57.820 -56.867  1.00  0.00     0.105 A 
HETATM    8  C   UNL     1     -42.586  58.784 -58.030  1.00  0.00     0.067 A 
HETATM    9  C   UNL     1     -41.879  60.126 -57.907  1.00  0.00     0.020 C 
HETATM   10  N   UNL     1     -41.294  61.237 -57.806  1.00  0.00    -0.096 N 
HETATM   11  C   UNL     1     -43.226  58.452 -59.183  1.00  0.00     0.139 A 
HETATM   12  O   UNL     1     -43.766  57.168 -59.383  1.00  0.00    -0.279 OA
ENDROOT
BRANCH   7  13
HETATM   13  C   UNL     1     -43.111  58.238 -55.595  1.00  0.00    -0.044 A 
HETATM   14  C   UNL     1     -44.501  58.449 -55.638  1.00  0.00     0.011 A 
HETATM   15  C   UNL     1     -45.178  58.958 -54.529  1.00  0.00     0.038 A 
HETATM   16  C   UNL     1     -44.475  59.246 -53.362  1.00  0.00     0.081 A 
HETATM   17  C   UNL     1     -43.110  58.993 -53.275  1.00  0.00     0.038 A 
HETATM   18  C   UNL     1     -42.437  58.470 -54.380  1.00  0.00     0.011 A 
BRANCH  16  19
HETATM   19  O   UNL     1     -45.200  59.939 -52.370  1.00  0.00    -0.261 OA
BRANCH  19  20
HETATM   20  C   UNL     1     -45.310  59.506 -51.050  1.00  0.00     0.368 C 
HETATM   21  N   UNL     1     -45.336  60.562 -50.157  1.00  0.00    -0.324 N 
HETATM   22  C   UNL     1     -45.572  60.314 -48.739  1.00  0.00     0.154 C 
HETATM   23  C   UNL     1     -45.395  61.968 -50.560  1.00  0.00     0.154 C 
HETATM   24  C   UNL     1     -44.736  61.258 -47.871  1.00  0.00     0.187 C 
HETATM   25  O   UNL     1     -44.947  62.629 -48.245  1.00  0.00    -0.388 OA
HETATM   26  C   UNL     1     -44.568  62.843 -49.613  1.00  0.00     0.187 C 
HETATM   27  O   UNL     1     -45.366  58.329 -50.710  1.00  0.00    -0.238 OA
ENDBRANCH  19  20
ENDBRANCH  16  19
ENDBRANCH   7  13
BRANCH  11  28
HETATM   28  N   UNL     1     -43.401  59.282 -60.266  1.00  0.00    -0.282 NA
HETATM   29  H   UNL     1     -42.576  59.802 -60.556  1.00  0.00     0.126 HD
HETATM   30  H   UNL     1     -44.223  59.873 -60.165  1.00  0.00     0.126 HD
ENDBRANCH  11  28
BRANCH   1  31
HETATM   31  C   UNL     1     -42.496  54.844 -55.230  1.00  0.00    -0.005 A 
HETATM   32  C   UNL     1     -41.135  54.673 -54.957  1.00  0.00     0.014 A 
HETATM   33  C   UNL     1     -40.700  54.417 -53.652  1.00  0.00     0.008 A 
HETATM   34  C   UNL     1     -41.618  54.310 -52.599  1.00  0.00    -0.058 A 
HETATM   35  C   UNL     1     -42.982  54.431 -52.882  1.00  0.00     0.008 A 
HETATM   36  C   UNL     1     -43.416  54.701 -54.183  1.00  0.00     0.014 A 
BRANCH  34  37
HETATM   37  C   UNL     1     -41.133  54.057 -51.190  1.00  0.00     0.042 C 
BRANCH  37  38
HETATM   38  C   UNL     1     -41.506  55.119 -50.131  1.00  0.00    -0.019 C 
HETATM   39  C   UNL     1     -41.068  56.532 -50.519  1.00  0.00     0.010 C 
HETATM   40  C   UNL     1     -40.996  54.773 -48.731  1.00  0.00     0.010 C 
ENDBRANCH  37  38
ENDBRANCH  34  37
ENDBRANCH   1  31
TORSDOF 7
ENDMDL
MODEL 5
REMARK VINA RESULT:      -8.2      2.959      8.119
REMARK  7 active torsions:
REMARK  status: ('A' for Active; 'I' for Inactive)
REMARK    1  A    between atoms: C_2  and  C_3 
REMARK    2  A    between atoms: C_3  and  C_4 
REMARK    3  A    between atoms: C_7  and  C_8 
REMARK    4  A    between atoms: C_14  and  C_15 
REMARK    5  A    between atoms: C_18  and  O_19 
REMARK    6  A    between atoms: O_19  and  C_20 
REMARK       I    between atoms: C_20  and  N_21 
REMARK    7  A    between atoms: C_33  and  N_34 
ROOT
HETATM    1  C   UNL     1     -42.761  59.460 -55.868  1.00  0.00     0.099 A 
HETATM    2  N   UNL     1     -41.890  60.451 -56.146  1.00  0.00    -0.172 NA
HETATM    3  N   UNL     1     -41.415  60.159 -57.372  1.00  0.00    -0.256 N 
HETATM    4  H   UNL     1     -40.735  60.782 -57.793  1.00  0.00     0.191 HD
HETATM    5  C   UNL     1     -41.931  59.013 -57.877  1.00  0.00     0.175 A 
HETATM    6  C   UNL     1     -42.811  58.527 -56.942  1.00  0.00     0.040 A 
HETATM    7  C   UNL     1     -43.524  57.242 -57.200  1.00  0.00     0.105 A 
HETATM    8  C   UNL     1     -43.188  56.720 -58.593  1.00  0.00     0.067 A 
HETATM    9  C   UNL     1     -44.034  55.557 -59.086  1.00  0.00     0.020 C 
HETATM   10  N   UNL     1     -44.734  54.592 -59.496  1.00  0.00    -0.096 N 
HETATM   11  C   UNL     1     -42.297  57.320 -59.427  1.00  0.00     0.139 A 
HETATM   12  O   UNL     1     -41.603  58.485 -59.051  1.00  0.00    -0.279 OA
ENDROOT
BRANCH   7  13
HETATM   13  C   UNL     1     -43.117  56.295 -56.079  1.00  0.00    -0.044 A 
HETATM   14  C   UNL     1     -41.880  55.631 -56.160  1.00  0.00     0.011 A 
HETATM   15  C   UNL     1     -41.531  54.660 -55.221  1.00  0.00     0.038 A 
HETATM   16  C   UNL     1     -42.409  54.354 -54.183  1.00  0.00     0.081 A 
HETATM   17  C   UNL     1     -43.613  55.037 -54.049  1.00  0.00     0.038 A 
HETATM   18  C   UNL     1     -43.954  56.019 -54.981  1.00  0.00     0.011 A 
BRANCH  16  19
HETATM   19  O   UNL     1     -42.065  53.229 -53.406  1.00  0.00    -0.261 OA
BRANCH  19  20
HETATM   20  C   UNL     1     -40.855  53.101 -52.726  1.00  0.00     0.368 C 
HETATM   21  N   UNL     1     -40.951  53.529 -51.413  1.00  0.00    -0.324 N 
HETATM   22  C   UNL     1     -39.821  53.358 -50.505  1.00  0.00     0.154 C 
HETATM   23  C   UNL     1     -42.207  53.922 -50.773  1.00  0.00     0.154 C 
HETATM   24  C   UNL     1     -39.701  54.548 -49.550  1.00  0.00     0.187 C 
HETATM   25  O   UNL     1     -40.941  54.791 -48.866  1.00  0.00    -0.388 OA
HETATM   26  C   UNL     1     -41.985  55.088 -49.805  1.00  0.00     0.187 C 
HETATM   27  O   UNL     1     -39.821  52.674 -53.226  1.00  0.00    -0.238 OA
ENDBRANCH  19  20
ENDBRANCH  16  19
ENDBRANCH   7  13
BRANCH  11  28
HETATM   28  N   UNL     1     -41.989  56.899 -60.700  1.00  0.00    -0.282 NA
HETATM   29  H   UNL     1     -41.943  57.632 -61.404  1.00  0.00     0.126 HD
HETATM   30  H   UNL     1     -42.561  56.109 -60.990  1.00  0.00     0.126 HD
ENDBRANCH  11  28
BRANCH   1  31
HETATM   31  C   UNL     1     -43.455  59.405 -54.580  1.00  0.00    -0.005 A 
HETATM   32  C   UNL     1     -42.774  59.089 -53.401  1.00  0.00     0.014 A 
HETATM   33  C   UNL     1     -43.436  59.126 -52.168  1.00  0.00     0.008 A 
HETATM   34  C   UNL     1     -44.795  59.461 -52.095  1.00  0.00    -0.058 A 
HETATM   35  C   UNL     1     -45.486  59.726 -53.281  1.00  0.00     0.008 A 
HETATM   36  C   UNL     1     -44.821  59.704 -54.511  1.00  0.00     0.014 A 
BRANCH  34  37
HETATM   37  C   UNL     1     -45.493  59.520 -50.756  1.00  0.00     0.042 C 
BRANCH  37  38
HETATM   38  C   UNL     1     -45.377  60.849 -49.975  1.00  0.00    -0.019 C 
HETATM   39  C   UNL     1     -45.502  60.668 -48.462  1.00  0.00     0.010 C 
HETATM   40  C   UNL     1     -46.357  61.917 -50.463  1.00  0.00     0.010 C 
ENDBRANCH  37  38
ENDBRANCH  34  37
ENDBRANCH   1  31
TORSDOF 7
ENDMDL
MODEL 6
REMARK VINA RESULT:      -8.2      2.699      6.719
REMARK  7 active torsions:
REMARK  status: ('A' for Active; 'I' for Inactive)
REMARK    1  A    between atoms: C_2  and  C_3 
REMARK    2  A    between atoms: C_3  and  C_4 
REMARK    3  A    between atoms: C_7  and  C_8 
REMARK    4  A    between atoms: C_14  and  C_15 
REMARK    5  A    between atoms: C_18  and  O_19 
REMARK    6  A    between atoms: O_19  and  C_20 
REMARK       I    between atoms: C_20  and  N_21 
REMARK    7  A    between atoms: C_33  and  N_34 
ROOT
HETATM    1  C   UNL     1     -44.321  60.045 -54.506  1.00  0.00     0.099 A 
HETATM    2  N   UNL     1     -45.597  60.476 -54.436  1.00  0.00    -0.172 NA
HETATM    3  N   UNL     1     -45.798  60.750 -53.133  1.00  0.00    -0.256 N 
HETATM    4  H   UNL     1     -46.704  61.099 -52.841  1.00  0.00     0.191 HD
HETATM    5  C   UNL     1     -44.710  60.492 -52.367  1.00  0.00     0.175 A 
HETATM    6  C   UNL     1     -43.728  60.040 -53.211  1.00  0.00     0.040 A 
HETATM    7  C   UNL     1     -42.403  59.639 -52.652  1.00  0.00     0.105 A 
HETATM    8  C   UNL     1     -42.356  59.915 -51.154  1.00  0.00     0.067 A 
HETATM    9  C   UNL     1     -40.988  59.792 -50.500  1.00  0.00     0.020 C 
HETATM   10  N   UNL     1     -39.855  59.690 -49.958  1.00  0.00    -0.096 N 
HETATM   11  C   UNL     1     -43.414  60.383 -50.440  1.00  0.00     0.139 A 
HETATM   12  O   UNL     1     -44.657  60.644 -51.048  1.00  0.00    -0.279 OA
ENDROOT
BRANCH   7  13
HETATM   13  C   UNL     1     -42.216  58.170 -53.008  1.00  0.00    -0.044 A 
HETATM   14  C   UNL     1     -43.152  57.228 -52.545  1.00  0.00     0.011 A 
HETATM   15  C   UNL     1     -42.944  55.863 -52.739  1.00  0.00     0.038 A 
HETATM   16  C   UNL     1     -41.806  55.426 -53.414  1.00  0.00     0.081 A 
HETATM   17  C   UNL     1     -40.894  56.339 -53.932  1.00  0.00     0.038 A 
HETATM   18  C   UNL     1     -41.111  57.706 -53.749  1.00  0.00     0.011 A 
BRANCH  16  19
HETATM   19  O   UNL     1     -41.579  54.034 -53.387  1.00  0.00    -0.261 OA
BRANCH  19  20
HETATM   20  C   UNL     1     -40.814  53.396 -52.412  1.00  0.00     0.368 C 
HETATM   21  N   UNL     1     -40.273  52.208 -52.873  1.00  0.00    -0.324 N 
HETATM   22  C   UNL     1     -39.340  51.459 -52.038  1.00  0.00     0.154 C 
HETATM   23  C   UNL     1     -40.367  51.754 -54.261  1.00  0.00     0.154 C 
HETATM   24  C   UNL     1     -39.551  49.951 -52.198  1.00  0.00     0.187 C 
HETATM   25  O   UNL     1     -39.501  49.566 -53.582  1.00  0.00    -0.388 OA
HETATM   26  C   UNL     1     -40.531  50.233 -54.327  1.00  0.00     0.187 C 
HETATM   27  O   UNL     1     -40.645  53.823 -51.276  1.00  0.00    -0.238 OA
ENDBRANCH  19  20
ENDBRANCH  16  19
ENDBRANCH   7  13
BRANCH  11  28
HETATM   28  N   UNL     1     -43.404  60.673 -49.095  1.00  0.00    -0.282 NA
HETATM   29  H   UNL     1     -44.315  60.854 -48.680  1.00  0.00     0.126 HD
HETATM   30  H   UNL     1     -42.718  61.388 -48.864  1.00  0.00     0.126 HD
ENDBRANCH  11  28
BRANCH   1  31
HETATM   31  C   UNL     1     -43.743  59.601 -55.774  1.00  0.00    -0.005 A 
HETATM   32  C   UNL     1     -42.801  60.377 -56.456  1.00  0.00     0.014 A 
HETATM   33  C   UNL     1     -42.196  59.896 -57.622  1.00  0.00     0.008 A 
HETATM   34  C   UNL     1     -42.534  58.638 -58.139  1.00  0.00    -0.058 A 
HETATM   35  C   UNL     1     -43.514  57.885 -57.484  1.00  0.00     0.008 A 
HETATM   36  C   UNL     1     -44.108  58.359 -56.311  1.00  0.00     0.014 A 
BRANCH  34  37
HETATM   37  C   UNL     1     -41.856  58.119 -59.386  1.00  0.00     0.042 C 
BRANCH  37  38
HETATM   38  C   UNL     1     -42.427  58.609 -60.736  1.00  0.00    -0.019 C 
HETATM   39  C   UNL     1     -41.755  59.886 -61.243  1.00  0.00     0.010 C 
HETATM   40  C   UNL     1     -43.946  58.782 -60.716  1.00  0.00     0.010 C 
ENDBRANCH  37  38
ENDBRANCH  34  37
ENDBRANCH   1  31
TORSDOF 7
ENDMDL
MODEL 7
REMARK VINA RESULT:      -7.9      2.297      3.026
REMARK  7 active torsions:
REMARK  status: ('A' for Active; 'I' for Inactive)
REMARK    1  A    between atoms: C_2  and  C_3 
REMARK    2  A    between atoms: C_3  and  C_4 
REMARK    3  A    between atoms: C_7  and  C_8 
REMARK    4  A    between atoms: C_14  and  C_15 
REMARK    5  A    between atoms: C_18  and  O_19 
REMARK    6  A    between atoms: O_19  and  C_20 
REMARK       I    between atoms: C_20  and  N_21 
REMARK    7  A    between atoms: C_33  and  N_34 
ROOT
HETATM    1  C   UNL     1     -41.850  57.857 -51.248  1.00  0.00     0.099 A 
HETATM    2  N   UNL     1     -40.937  58.116 -50.291  1.00  0.00    -0.172 NA
HETATM    3  N   UNL     1     -41.252  59.343 -49.835  1.00  0.00    -0.256 N 
HETATM    4  H   UNL     1     -40.691  59.748 -49.094  1.00  0.00     0.191 HD
HETATM    5  C   UNL     1     -42.316  59.885 -50.476  1.00  0.00     0.175 A 
HETATM    6  C   UNL     1     -42.740  58.959 -51.395  1.00  0.00     0.040 A 
HETATM    7  C   UNL     1     -43.891  59.282 -52.289  1.00  0.00     0.105 A 
HETATM    8  C   UNL     1     -44.480  60.640 -51.923  1.00  0.00     0.067 A 
HETATM    9  C   UNL     1     -45.808  60.984 -52.579  1.00  0.00     0.020 C 
HETATM   10  N   UNL     1     -46.909  61.271 -53.123  1.00  0.00    -0.096 N 
HETATM   11  C   UNL     1     -43.958  61.455 -50.968  1.00  0.00     0.139 A 
HETATM   12  O   UNL     1     -42.808  61.097 -50.240  1.00  0.00    -0.279 OA
ENDROOT
BRANCH   7  13
HETATM   13  C   UNL     1     -43.359  59.212 -53.714  1.00  0.00    -0.044 A 
HETATM   14  C   UNL     1     -42.448  60.189 -54.153  1.00  0.00     0.011 A 
HETATM   15  C   UNL     1     -42.041  60.234 -55.487  1.00  0.00     0.038 A 
HETATM   16  C   UNL     1     -42.527  59.292 -56.390  1.00  0.00     0.081 A 
HETATM   17  C   UNL     1     -43.384  58.281 -55.969  1.00  0.00     0.038 A 
HETATM   18  C   UNL     1     -43.779  58.229 -54.631  1.00  0.00     0.011 A 
BRANCH  16  19
HETATM   19  O   UNL     1     -42.222  59.535 -57.746  1.00  0.00    -0.261 OA
BRANCH  19  20
HETATM   20  C   UNL     1     -41.729  60.749 -58.220  1.00  0.00     0.368 C 
HETATM   21  N   UNL     1     -42.659  61.418 -58.998  1.00  0.00    -0.324 N 
HETATM   22  C   UNL     1     -42.372  62.764 -59.482  1.00  0.00     0.154 C 
HETATM   23  C   UNL     1     -44.043  60.976 -59.174  1.00  0.00     0.154 C 
HETATM   24  C   UNL     1     -42.928  62.969 -60.893  1.00  0.00     0.187 C 
HETATM   25  O   UNL     1     -44.325  62.635 -60.953  1.00  0.00    -0.388 OA
HETATM   26  C   UNL     1     -44.529  61.259 -60.598  1.00  0.00     0.187 C 
HETATM   27  O   UNL     1     -40.603  61.177 -57.991  1.00  0.00    -0.238 OA
ENDBRANCH  19  20
ENDBRANCH  16  19
ENDBRANCH   7  13
BRANCH  11  28
HETATM   28  N   UNL     1     -44.476  62.671 -50.588  1.00  0.00    -0.282 NA
HETATM   29  H   UNL     1     -45.481  62.774 -50.702  1.00  0.00     0.126 HD
HETATM   30  H   UNL     1     -43.953  63.449 -50.983  1.00  0.00     0.126 HD
ENDBRANCH  11  28
BRANCH   1  31
HETATM   31  C   UNL     1     -41.803  56.615 -52.021  1.00  0.00    -0.005 A 
HETATM   32  C   UNL     1     -40.964  56.481 -53.131  1.00  0.00     0.014 A 
HETATM   33  C   UNL     1     -40.869  55.258 -53.804  1.00  0.00     0.008 A 
HETATM   34  C   UNL     1     -41.623  54.152 -53.391  1.00  0.00    -0.058 A 
HETATM   35  C   UNL     1     -42.499  54.302 -52.312  1.00  0.00     0.008 A 
HETATM   36  C   UNL     1     -42.584  55.520 -51.630  1.00  0.00     0.014 A 
BRANCH  34  37
HETATM   37  C   UNL     1     -41.493  52.830 -54.112  1.00  0.00     0.042 C 
BRANCH  37  38
HETATM   38  C   UNL     1     -40.187  52.039 -53.873  1.00  0.00    -0.019 C 
HETATM   39  C   UNL     1     -40.232  50.622 -54.445  1.00  0.00     0.010 C 
HETATM   40  C   UNL     1     -39.770  52.003 -52.402  1.00  0.00     0.010 C 
ENDBRANCH  37  38
ENDBRANCH  34  37
ENDBRANCH   1  31
TORSDOF 7
ENDMDL
MODEL 8
REMARK VINA RESULT:      -7.7      3.219      7.738
REMARK  7 active torsions:
REMARK  status: ('A' for Active; 'I' for Inactive)
REMARK    1  A    between atoms: C_2  and  C_3 
REMARK    2  A    between atoms: C_3  and  C_4 
REMARK    3  A    between atoms: C_7  and  C_8 
REMARK    4  A    between atoms: C_14  and  C_15 
REMARK    5  A    between atoms: C_18  and  O_19 
REMARK    6  A    between atoms: O_19  and  C_20 
REMARK       I    between atoms: C_20  and  N_21 
REMARK    7  A    between atoms: C_33  and  N_34 
ROOT
HETATM    1  C   UNL     1     -42.372  60.640 -56.340  1.00  0.00     0.099 A 
HETATM    2  N   UNL     1     -41.328  61.249 -56.936  1.00  0.00    -0.172 NA
HETATM    3  N   UNL     1     -41.441  60.932 -58.240  1.00  0.00    -0.256 N 
HETATM    4  H   UNL     1     -40.752  61.292 -58.892  1.00  0.00     0.191 HD
HETATM    5  C   UNL     1     -42.502  60.130 -58.496  1.00  0.00     0.175 A 
HETATM    6  C   UNL     1     -43.138  59.918 -57.299  1.00  0.00     0.040 A 
HETATM    7  C   UNL     1     -44.341  59.036 -57.250  1.00  0.00     0.105 A 
HETATM    8  C   UNL     1     -44.720  58.579 -58.654  1.00  0.00     0.067 A 
HETATM    9  C   UNL     1     -46.067  57.885 -58.785  1.00  0.00     0.020 C 
HETATM   10  N   UNL     1     -47.183  57.310 -58.894  1.00  0.00    -0.096 N 
HETATM   11  C   UNL     1     -43.997  58.881 -59.766  1.00  0.00     0.139 A 
HETATM   12  O   UNL     1     -42.818  59.647 -59.693  1.00  0.00    -0.279 OA
ENDROOT
BRANCH   7  13
HETATM   13  C   UNL     1     -43.994  57.891 -56.309  1.00  0.00    -0.044 A 
HETATM   14  C   UNL     1     -43.038  56.941 -56.710  1.00  0.00     0.011 A 
HETATM   15  C   UNL     1     -42.790  55.809 -55.933  1.00  0.00     0.038 A 
HETATM   16  C   UNL     1     -43.483  55.624 -54.740  1.00  0.00     0.081 A 
HETATM   17  C   UNL     1     -44.393  56.576 -54.292  1.00  0.00     0.038 A 
HETATM   18  C   UNL     1     -44.629  57.716 -55.064  1.00  0.00     0.011 A 
BRANCH  16  19
HETATM   19  O   UNL     1     -43.316  54.364 -54.127  1.00  0.00    -0.261 OA
BRANCH  19  20
HETATM   20  C   UNL     1     -42.649  54.176 -52.919  1.00  0.00     0.368 C 
HETATM   21  N   UNL     1     -41.483  53.447 -53.078  1.00  0.00    -0.324 N 
HETATM   22  C   UNL     1     -40.583  53.254 -51.946  1.00  0.00     0.154 C 
HETATM   23  C   UNL     1     -40.939  53.053 -54.378  1.00  0.00     0.154 C 
HETATM   24  C   UNL     1     -39.958  51.857 -51.975  1.00  0.00     0.187 C 
HETATM   25  O   UNL     1     -39.333  51.595 -53.242  1.00  0.00    -0.388 OA
HETATM   26  C   UNL     1     -40.297  51.664 -54.303  1.00  0.00     0.187 C 
HETATM   27  O   UNL     1     -43.045  54.593 -51.836  1.00  0.00    -0.238 OA
ENDBRANCH  19  20
ENDBRANCH  16  19
ENDBRANCH   7  13
BRANCH  11  28
HETATM   28  N   UNL     1     -44.319  58.514 -61.051  1.00  0.00    -0.282 NA
HETATM   29  H   UNL     1     -44.774  57.610 -61.147  1.00  0.00     0.126 HD
HETATM   30  H   UNL     1     -43.535  58.631 -61.689  1.00  0.00     0.126 HD
ENDBRANCH  11  28
BRANCH   1  31
HETATM   31  C   UNL     1     -42.562  60.714 -54.891  1.00  0.00    -0.005 A 
HETATM   32  C   UNL     1     -41.843  59.890 -54.020  1.00  0.00     0.014 A 
HETATM   33  C   UNL     1     -41.976  60.036 -52.635  1.00  0.00     0.008 A 
HETATM   34  C   UNL     1     -42.842  60.995 -52.095  1.00  0.00    -0.058 A 
HETATM   35  C   UNL     1     -43.599  61.784 -52.967  1.00  0.00     0.008 A 
HETATM   36  C   UNL     1     -43.456  61.648 -54.351  1.00  0.00     0.014 A 
BRANCH  34  37
HETATM   37  C   UNL     1     -42.959  61.159 -50.596  1.00  0.00     0.042 C 
BRANCH  37  38
HETATM   38  C   UNL     1     -43.734  62.398 -50.096  1.00  0.00    -0.019 C 
HETATM   39  C   UNL     1     -42.859  63.648 -49.985  1.00  0.00     0.010 C 
HETATM   40  C   UNL     1     -44.473  62.151 -48.780  1.00  0.00     0.010 C 
ENDBRANCH  37  38
ENDBRANCH  34  37
ENDBRANCH   1  31
TORSDOF 7
ENDMDL
MODEL 9
REMARK VINA RESULT:      -7.6      1.474      2.095
REMARK  7 active torsions:
REMARK  status: ('A' for Active; 'I' for Inactive)
REMARK    1  A    between atoms: C_2  and  C_3 
REMARK    2  A    between atoms: C_3  and  C_4 
REMARK    3  A    between atoms: C_7  and  C_8 
REMARK    4  A    between atoms: C_14  and  C_15 
REMARK    5  A    between atoms: C_18  and  O_19 
REMARK    6  A    between atoms: O_19  and  C_20 
REMARK       I    between atoms: C_20  and  N_21 
REMARK    7  A    between atoms: C_33  and  N_34 
ROOT
HETATM    1  C   UNL     1     -42.789  59.573 -51.204  1.00  0.00     0.099 A 
HETATM    2  N   UNL     1     -41.801  60.164 -50.504  1.00  0.00    -0.172 NA
HETATM    3  N   UNL     1     -42.242  61.416 -50.275  1.00  0.00    -0.256 N 
HETATM    4  H   UNL     1     -41.652  62.053 -49.750  1.00  0.00     0.191 HD
HETATM    5  C   UNL     1     -43.460  61.652 -50.817  1.00  0.00     0.175 A 
HETATM    6  C   UNL     1     -43.858  60.488 -51.424  1.00  0.00     0.040 A 
HETATM    7  C   UNL     1     -45.163  60.442 -52.146  1.00  0.00     0.105 A 
HETATM    8  C   UNL     1     -45.905  61.764 -51.983  1.00  0.00     0.067 A 
HETATM    9  C   UNL     1     -47.352  61.774 -52.450  1.00  0.00     0.020 C 
HETATM   10  N   UNL     1     -48.552  61.783 -52.837  1.00  0.00    -0.096 N 
HETATM   11  C   UNL     1     -45.389  62.842 -51.335  1.00  0.00     0.139 A 
HETATM   12  O   UNL     1     -44.103  62.815 -50.764  1.00  0.00    -0.279 OA
ENDROOT
BRANCH   7  13
HETATM   13  C   UNL     1     -44.839  60.099 -53.594  1.00  0.00    -0.044 A 
HETATM   14  C   UNL     1     -45.188  58.830 -54.091  1.00  0.00     0.011 A 
HETATM   15  C   UNL     1     -44.793  58.433 -55.368  1.00  0.00     0.038 A 
HETATM   16  C   UNL     1     -44.059  59.305 -56.167  1.00  0.00     0.081 A 
HETATM   17  C   UNL     1     -43.749  60.586 -55.722  1.00  0.00     0.038 A 
HETATM   18  C   UNL     1     -44.159  60.988 -54.448  1.00  0.00     0.011 A 
BRANCH  16  19
HETATM   19  O   UNL     1     -43.534  58.750 -57.353  1.00  0.00    -0.261 OA
BRANCH  19  20
HETATM   20  C   UNL     1     -43.073  57.439 -57.452  1.00  0.00     0.368 C 
HETATM   21  N   UNL     1     -43.641  56.768 -58.521  1.00  0.00    -0.324 N 
HETATM   22  C   UNL     1     -43.189  55.423 -58.863  1.00  0.00     0.154 C 
HETATM   23  C   UNL     1     -44.503  57.406 -59.517  1.00  0.00     0.154 C 
HETATM   24  C   UNL     1     -44.359  54.557 -59.336  1.00  0.00     0.187 C 
HETATM   25  O   UNL     1     -45.080  55.196 -60.402  1.00  0.00    -0.388 OA
HETATM   26  C   UNL     1     -45.616  56.453 -59.965  1.00  0.00     0.187 C 
HETATM   27  O   UNL     1     -42.269  56.927 -56.680  1.00  0.00    -0.238 OA
ENDBRANCH  19  20
ENDBRANCH  16  19
ENDBRANCH   7  13
BRANCH  11  28
HETATM   28  N   UNL     1     -46.036  64.041 -51.140  1.00  0.00    -0.282 NA
HETATM   29  H   UNL     1     -45.625  64.842 -51.614  1.00  0.00     0.126 HD
HETATM   30  H   UNL     1     -46.222  64.218 -50.155  1.00  0.00     0.126 HD
ENDBRANCH  11  28
BRANCH   1  31
HETATM   31  C   UNL     1     -42.654  58.198 -51.686  1.00  0.00    -0.005 A 
HETATM   32  C   UNL     1     -41.642  57.837 -52.580  1.00  0.00     0.014 A 
HETATM   33  C   UNL     1     -41.476  56.501 -52.962  1.00  0.00     0.008 A 
HETATM   34  C   UNL     1     -42.330  55.504 -52.470  1.00  0.00    -0.058 A 
HETATM   35  C   UNL     1     -43.373  55.874 -51.616  1.00  0.00     0.008 A 
HETATM   36  C   UNL     1     -43.530  57.207 -51.223  1.00  0.00     0.014 A 
BRANCH  34  37
HETATM   37  C   UNL     1     -42.125  54.061 -52.872  1.00  0.00     0.042 C 
BRANCH  37  38
HETATM   38  C   UNL     1     -41.690  53.806 -54.332  1.00  0.00    -0.019 C 
HETATM   39  C   UNL     1     -42.848  53.899 -55.327  1.00  0.00     0.010 C 
HETATM   40  C   UNL     1     -40.942  52.485 -54.513  1.00  0.00     0.010 C 
ENDBRANCH  37  38
ENDBRANCH  34  37
ENDBRANCH   1  31
TORSDOF 7
ENDMDL
MODEL 10
REMARK VINA RESULT:      -7.4     17.093     20.068
REMARK  7 active torsions:
REMARK  status: ('A' for Active; 'I' for Inactive)
REMARK    1  A    between atoms: C_2  and  C_3 
REMARK    2  A    between atoms: C_3  and  C_4 
REMARK    3  A    between atoms: C_7  and  C_8 
REMARK    4  A    between atoms: C_14  and  C_15 
REMARK    5  A    between atoms: C_18  and  O_19 
REMARK    6  A    between atoms: O_19  and  C_20 
REMARK       I    between atoms: C_20  and  N_21 
REMARK    7  A    between atoms: C_33  and  N_34 
ROOT
HETATM    1  C   UNL     1     -34.707  38.168 -57.259  1.00  0.00     0.099 A 
HETATM    2  N   UNL     1     -34.727  36.851 -57.546  1.00  0.00    -0.172 NA
HETATM    3  N   UNL     1     -35.536  36.743 -58.617  1.00  0.00    -0.256 N 
HETATM    4  H   UNL     1     -35.698  35.825 -59.016  1.00  0.00     0.191 HD
HETATM    5  C   UNL     1     -36.048  37.933 -59.011  1.00  0.00     0.175 A 
HETATM    6  C   UNL     1     -35.536  38.886 -58.167  1.00  0.00     0.040 A 
HETATM    7  C   UNL     1     -35.946  40.312 -58.331  1.00  0.00     0.105 A 
HETATM    8  C   UNL     1     -36.847  40.467 -59.551  1.00  0.00     0.067 A 
HETATM    9  C   UNL     1     -37.134  41.896 -59.985  1.00  0.00     0.020 C 
HETATM   10  N   UNL     1     -37.373  43.079 -60.346  1.00  0.00    -0.096 N 
HETATM   11  C   UNL     1     -37.268  39.423 -60.314  1.00  0.00     0.139 A 
HETATM   12  O   UNL     1     -36.899  38.097 -60.019  1.00  0.00    -0.279 OA
ENDROOT
BRANCH   7  13
HETATM   13  C   UNL     1     -36.613  40.718 -57.024  1.00  0.00    -0.044 A 
HETATM   14  C   UNL     1     -35.923  41.566 -56.139  1.00  0.00     0.011 A 
HETATM   15  C   UNL     1     -36.445  41.854 -54.878  1.00  0.00     0.038 A 
HETATM   16  C   UNL     1     -37.669  41.311 -54.495  1.00  0.00     0.081 A 
HETATM   17  C   UNL     1     -38.398  40.516 -55.373  1.00  0.00     0.038 A 
HETATM   18  C   UNL     1     -37.881  40.241 -56.641  1.00  0.00     0.011 A 
BRANCH  16  19
HETATM   19  O   UNL     1     -38.019  41.491 -53.141  1.00  0.00    -0.261 OA
BRANCH  19  20
HETATM   20  C   UNL     1     -38.923  40.676 -52.463  1.00  0.00     0.368 C 
HETATM   21  N   UNL     1     -38.284  39.750 -51.657  1.00  0.00    -0.324 N 
HETATM   22  C   UNL     1     -39.064  38.890 -50.773  1.00  0.00     0.154 C 
HETATM   23  C   UNL     1     -36.839  39.731 -51.426  1.00  0.00     0.154 C 
HETATM   24  C   UNL     1     -38.453  37.488 -50.694  1.00  0.00     0.187 C 
HETATM   25  O   UNL     1     -37.063  37.548 -50.337  1.00  0.00    -0.388 OA
HETATM   26  C   UNL     1     -36.323  38.293 -51.317  1.00  0.00     0.187 C 
HETATM   27  O   UNL     1     -40.142  40.754 -52.571  1.00  0.00    -0.238 OA
ENDBRANCH  19  20
ENDBRANCH  16  19
ENDBRANCH   7  13
BRANCH  11  28
HETATM   28  N   UNL     1     -38.055  39.523 -61.438  1.00  0.00    -0.282 NA
HETATM   29  H   UNL     1     -37.755  40.213 -62.122  1.00  0.00     0.126 HD
HETATM   30  H   UNL     1     -39.043  39.602 -61.206  1.00  0.00     0.126 HD
ENDBRANCH  11  28
BRANCH   1  31
HETATM   31  C   UNL     1     -33.960  38.679 -56.109  1.00  0.00    -0.005 A 
HETATM   32  C   UNL     1     -32.890  39.564 -56.272  1.00  0.00     0.014 A 
HETATM   33  C   UNL     1     -32.245  40.109 -55.156  1.00  0.00     0.008 A 
HETATM   34  C   UNL     1     -32.646  39.766 -53.858  1.00  0.00    -0.058 A 
HETATM   35  C   UNL     1     -33.683  38.842 -53.697  1.00  0.00     0.008 A 
HETATM   36  C   UNL     1     -34.337  38.309 -54.812  1.00  0.00     0.014 A 
BRANCH  34  37
HETATM   37  C   UNL     1     -31.956  40.380 -52.661  1.00  0.00     0.042 C 
BRANCH  37  38
HETATM   38  C   UNL     1     -32.632  40.162 -51.288  1.00  0.00    -0.019 C 
HETATM   39  C   UNL     1     -33.568  41.305 -50.894  1.00  0.00     0.010 C 
HETATM   40  C   UNL     1     -31.631  39.885 -50.165  1.00  0.00     0.010 C 
ENDBRANCH  37  38
ENDBRANCH  34  37
ENDBRANCH   1  31
TORSDOF 7
ENDMDL
