MODEL 1
REMARK VINA RESULT:      -8.3      0.000      0.000
REMARK  3 active torsions:
REMARK  status: ('A' for Active; 'I' for Inactive)
REMARK    1  A    between atoms: C_4  and  N_5 
REMARK       I    between atoms: N_5  and  C_6 
REMARK    2  A    between atoms: C_6  and  C_7 
REMARK    3  A    between atoms: C_7  and  C_8 
ROOT
HETATM    1  C   UNL     1     -42.363  55.928 -50.757  1.00  0.00     0.286 C 
HETATM    2  N   UNL     1     -41.267  56.260 -51.769  1.00  0.00    -0.056 N 
HETATM    3  H   UNL     1     -41.019  57.247 -51.624  1.00  0.00     0.278 HD
HETATM    4  H   UNL     1     -40.405  55.749 -51.484  1.00  0.00     0.278 HD
HETATM    5  C   UNL     1     -41.569  56.064 -53.226  1.00  0.00     0.209 C 
HETATM    6  C   UNL     1     -42.937  56.705 -53.557  1.00  0.00     0.115 C 
HETATM    7  N   UNL     1     -43.982  56.316 -52.615  1.00  0.00    -0.353 N 
HETATM    8  C   UNL     1     -43.783  56.233 -51.261  1.00  0.00     0.249 C 
HETATM    9  O   UNL     1     -44.739  56.304 -50.495  1.00  0.00    -0.271 OA
HETATM   10  C   UNL     1     -41.472  54.588 -53.610  1.00  0.00     0.035 C 
HETATM   11  C   UNL     1     -41.863  54.374 -55.070  1.00  0.00     0.002 C 
HETATM   12  C   UNL     1     -43.259  54.924 -55.352  1.00  0.00     0.002 C 
HETATM   13  C   UNL     1     -43.357  56.408 -55.001  1.00  0.00     0.027 C 
HETATM   14  H   UNL     1     -44.945  56.562 -52.844  1.00  0.00     0.163 HD
ENDROOT
BRANCH   1  15
HETATM   15  C   UNL     1     -42.335  54.472 -50.265  1.00  0.00     0.146 C 
BRANCH  15  16
HETATM   16  C   UNL     1     -41.252  54.209 -49.258  1.00  0.00     0.224 C 
HETATM   17  N   UNL     1     -40.402  53.156 -49.357  1.00  0.00    -0.327 N 
HETATM   18  H   UNL     1     -39.784  53.102 -48.550  1.00  0.00     0.169 HD
HETATM   19  O   UNL     1     -41.109  55.003 -48.317  1.00  0.00    -0.273 OA
BRANCH  17  20
HETATM   20  C   UNL     1     -40.188  52.149 -50.322  1.00  0.00     0.035 A 
HETATM   21  C   UNL     1     -39.906  52.353 -51.674  1.00  0.00     0.036 A 
HETATM   22  C   UNL     1     -39.690  51.269 -52.544  1.00  0.00    -0.060 A 
HETATM   23  C   UNL     1     -39.365  51.494 -53.993  1.00  0.00     0.048 C 
HETATM   24  C   UNL     1     -39.749  49.965 -52.046  1.00  0.00     0.007 A 
HETATM   25  C   UNL     1     -40.022  49.746 -50.701  1.00  0.00     0.003 A 
HETATM   26  C   UNL     1     -40.236  50.830 -49.847  1.00  0.00     0.029 A 
ENDBRANCH  17  20
ENDBRANCH  15  16
ENDBRANCH   1  15
TORSDOF 3
ENDMDL
MODEL 2
REMARK VINA RESULT:      -8.0      1.519      2.289
REMARK  3 active torsions:
REMARK  status: ('A' for Active; 'I' for Inactive)
REMARK    1  A    between atoms: C_4  and  N_5 
REMARK       I    between atoms: N_5  and  C_6 
REMARK    2  A    between atoms: C_6  and  C_7 
REMARK    3  A    between atoms: C_7  and  C_8 
ROOT
HETATM    1  C   UNL     1     -41.524  56.154 -49.770  1.00  0.00     0.286 C 
HETATM    2  N   UNL     1     -41.519  57.619 -50.204  1.00  0.00    -0.056 N 
HETATM    3  H   UNL     1     -42.081  58.134 -49.514  1.00  0.00     0.278 HD
HETATM    4  H   UNL     1     -40.556  57.991 -50.057  1.00  0.00     0.278 HD
HETATM    5  C   UNL     1     -42.037  57.951 -51.572  1.00  0.00     0.209 C 
HETATM    6  C   UNL     1     -43.393  57.241 -51.792  1.00  0.00     0.115 C 
HETATM    7  N   UNL     1     -43.351  55.826 -51.436  1.00  0.00    -0.353 N 
HETATM    8  C   UNL     1     -42.713  55.350 -50.319  1.00  0.00     0.249 C 
HETATM    9  O   UNL     1     -43.031  54.263 -49.848  1.00  0.00    -0.271 OA
HETATM   10  C   UNL     1     -40.994  57.634 -52.643  1.00  0.00     0.035 C 
HETATM   11  C   UNL     1     -41.549  57.888 -54.042  1.00  0.00     0.002 C 
HETATM   12  C   UNL     1     -42.835  57.099 -54.276  1.00  0.00     0.002 C 
HETATM   13  C   UNL     1     -43.896  57.433 -53.228  1.00  0.00     0.027 C 
HETATM   14  H   UNL     1     -44.148  55.246 -51.696  1.00  0.00     0.163 HD
ENDROOT
BRANCH   1  15
HETATM   15  C   UNL     1     -40.233  55.397 -50.121  1.00  0.00     0.146 C 
BRANCH  15  16
HETATM   16  C   UNL     1     -40.160  54.032 -49.498  1.00  0.00     0.224 C 
HETATM   17  N   UNL     1     -40.166  52.892 -50.235  1.00  0.00    -0.327 N 
HETATM   18  H   UNL     1     -40.180  52.067 -49.639  1.00  0.00     0.169 HD
HETATM   19  O   UNL     1     -40.060  53.944 -48.266  1.00  0.00    -0.273 OA
BRANCH  17  20
HETATM   20  C   UNL     1     -40.144  52.611 -51.617  1.00  0.00     0.035 A 
HETATM   21  C   UNL     1     -40.509  53.489 -52.640  1.00  0.00     0.036 A 
HETATM   22  C   UNL     1     -40.428  53.105 -53.991  1.00  0.00    -0.060 A 
HETATM   23  C   UNL     1     -40.800  54.059 -55.089  1.00  0.00     0.048 C 
HETATM   24  C   UNL     1     -39.965  51.828 -54.317  1.00  0.00     0.007 A 
HETATM   25  C   UNL     1     -39.592  50.945 -53.310  1.00  0.00     0.003 A 
HETATM   26  C   UNL     1     -39.678  51.337 -51.973  1.00  0.00     0.029 A 
ENDBRANCH  17  20
ENDBRANCH  15  16
ENDBRANCH   1  15
TORSDOF 3
ENDMDL
MODEL 3
REMARK VINA RESULT:      -7.9      2.009      2.826
REMARK  3 active torsions:
REMARK  status: ('A' for Active; 'I' for Inactive)
REMARK    1  A    between atoms: C_4  and  N_5 
REMARK       I    between atoms: N_5  and  C_6 
REMARK    2  A    between atoms: C_6  and  C_7 
REMARK    3  A    between atoms: C_7  and  C_8 
ROOT
HETATM    1  C   UNL     1     -43.039  54.618 -53.186  1.00  0.00     0.286 C 
HETATM    2  N   UNL     1     -43.711  55.663 -52.296  1.00  0.00    -0.056 N 
HETATM    3  H   UNL     1     -44.598  55.253 -51.977  1.00  0.00     0.278 HD
HETATM    4  H   UNL     1     -43.151  55.741 -51.420  1.00  0.00     0.278 HD
HETATM    5  C   UNL     1     -44.004  57.010 -52.887  1.00  0.00     0.209 C 
HETATM    6  C   UNL     1     -44.691  56.828 -54.260  1.00  0.00     0.115 C 
HETATM    7  N   UNL     1     -43.990  55.878 -55.118  1.00  0.00    -0.353 N 
HETATM    8  C   UNL     1     -43.466  54.696 -54.661  1.00  0.00     0.249 C 
HETATM    9  O   UNL     1     -43.259  53.774 -55.444  1.00  0.00    -0.271 OA
HETATM   10  C   UNL     1     -42.742  57.870 -52.938  1.00  0.00     0.035 C 
HETATM   11  C   UNL     1     -43.017  59.209 -53.619  1.00  0.00     0.002 C 
HETATM   12  C   UNL     1     -43.601  59.006 -55.014  1.00  0.00     0.002 C 
HETATM   13  C   UNL     1     -44.882  58.174 -54.970  1.00  0.00     0.027 C 
HETATM   14  H   UNL     1     -44.278  55.814 -56.094  1.00  0.00     0.163 HD
ENDROOT
BRANCH   1  15
HETATM   15  C   UNL     1     -41.503  54.649 -53.132  1.00  0.00     0.146 C 
BRANCH  15  16
HETATM   16  C   UNL     1     -40.961  54.661 -51.731  1.00  0.00     0.224 C 
HETATM   17  N   UNL     1     -40.446  53.554 -51.139  1.00  0.00    -0.327 N 
HETATM   18  H   UNL     1     -40.193  53.738 -50.170  1.00  0.00     0.169 HD
HETATM   19  O   UNL     1     -40.956  55.730 -51.103  1.00  0.00    -0.273 OA
BRANCH  17  20
HETATM   20  C   UNL     1     -40.179  52.238 -51.570  1.00  0.00     0.035 A 
HETATM   21  C   UNL     1     -39.997  51.828 -52.893  1.00  0.00     0.036 A 
HETATM   22  C   UNL     1     -39.715  50.485 -53.206  1.00  0.00    -0.060 A 
HETATM   23  C   UNL     1     -39.498  50.052 -54.627  1.00  0.00     0.048 C 
HETATM   24  C   UNL     1     -39.606  49.548 -52.176  1.00  0.00     0.007 A 
HETATM   25  C   UNL     1     -39.779  49.942 -50.854  1.00  0.00     0.003 A 
HETATM   26  C   UNL     1     -40.059  51.276 -50.556  1.00  0.00     0.029 A 
ENDBRANCH  17  20
ENDBRANCH  15  16
ENDBRANCH   1  15
TORSDOF 3
ENDMDL
MODEL 4
REMARK VINA RESULT:      -7.6      2.974      4.755
REMARK  3 active torsions:
REMARK  status: ('A' for Active; 'I' for Inactive)
REMARK    1  A    between atoms: C_4  and  N_5 
REMARK       I    between atoms: N_5  and  C_6 
REMARK    2  A    between atoms: C_6  and  C_7 
REMARK    3  A    between atoms: C_7  and  C_8 
ROOT
HETATM    1  C   UNL     1     -42.629  57.428 -54.417  1.00  0.00     0.286 C 
HETATM    2  N   UNL     1     -43.325  57.218 -53.073  1.00  0.00    -0.056 N 
HETATM    3  H   UNL     1     -44.284  57.574 -53.178  1.00  0.00     0.278 HD
HETATM    4  H   UNL     1     -43.460  56.194 -52.942  1.00  0.00     0.278 HD
HETATM    5  C   UNL     1     -42.720  57.857 -51.858  1.00  0.00     0.209 C 
HETATM    6  C   UNL     1     -42.394  59.337 -52.166  1.00  0.00     0.115 C 
HETATM    7  N   UNL     1     -41.667  59.503 -53.420  1.00  0.00    -0.353 N 
HETATM    8  C   UNL     1     -41.971  58.809 -54.564  1.00  0.00     0.249 C 
HETATM    9  O   UNL     1     -41.629  59.250 -55.657  1.00  0.00    -0.271 OA
HETATM   10  C   UNL     1     -41.521  57.053 -51.358  1.00  0.00     0.035 C 
HETATM   11  C   UNL     1     -40.850  57.746 -50.175  1.00  0.00     0.002 C 
HETATM   12  C   UNL     1     -40.444  59.173 -50.531  1.00  0.00     0.002 C 
HETATM   13  C   UNL     1     -41.643  59.996 -51.002  1.00  0.00     0.027 C 
HETATM   14  H   UNL     1     -41.273  60.421 -53.625  1.00  0.00     0.163 HD
ENDROOT
BRANCH   1  15
HETATM   15  C   UNL     1     -41.572  56.360 -54.744  1.00  0.00     0.146 C 
BRANCH  15  16
HETATM   16  C   UNL     1     -42.141  55.161 -55.447  1.00  0.00     0.224 C 
HETATM   17  N   UNL     1     -41.855  53.889 -55.069  1.00  0.00    -0.327 N 
HETATM   18  H   UNL     1     -42.275  53.212 -55.702  1.00  0.00     0.169 HD
HETATM   19  O   UNL     1     -42.928  55.340 -56.388  1.00  0.00    -0.273 OA
BRANCH  17  20
HETATM   20  C   UNL     1     -41.128  53.316 -54.005  1.00  0.00     0.035 A 
HETATM   21  C   UNL     1     -41.159  53.730 -52.671  1.00  0.00     0.036 A 
HETATM   22  C   UNL     1     -40.403  53.069 -51.686  1.00  0.00    -0.060 A 
HETATM   23  C   UNL     1     -40.458  53.502 -50.249  1.00  0.00     0.048 C 
HETATM   24  C   UNL     1     -39.614  51.973 -52.045  1.00  0.00     0.007 A 
HETATM   25  C   UNL     1     -39.577  51.546 -53.368  1.00  0.00     0.003 A 
HETATM   26  C   UNL     1     -40.331  52.211 -54.336  1.00  0.00     0.029 A 
ENDBRANCH  17  20
ENDBRANCH  15  16
ENDBRANCH   1  15
TORSDOF 3
ENDMDL
MODEL 5
REMARK VINA RESULT:      -7.5     13.818     16.060
REMARK  3 active torsions:
REMARK  status: ('A' for Active; 'I' for Inactive)
REMARK    1  A    between atoms: C_4  and  N_5 
REMARK       I    between atoms: N_5  and  C_6 
REMARK    2  A    between atoms: C_6  and  C_7 
REMARK    3  A    between atoms: C_7  and  C_8 
ROOT
HETATM    1  C   UNL     1     -34.778  41.293 -53.832  1.00  0.00     0.286 C 
HETATM    2  N   UNL     1     -34.745  41.949 -52.452  1.00  0.00    -0.056 N 
HETATM    3  H   UNL     1     -34.311  42.873 -52.574  1.00  0.00     0.278 HD
HETATM    4  H   UNL     1     -35.726  42.175 -52.184  1.00  0.00     0.278 HD
HETATM    5  C   UNL     1     -34.021  41.235 -51.349  1.00  0.00     0.209 C 
HETATM    6  C   UNL     1     -32.632  40.782 -51.856  1.00  0.00     0.115 C 
HETATM    7  N   UNL     1     -32.700  40.097 -53.143  1.00  0.00    -0.353 N 
HETATM    8  C   UNL     1     -33.499  40.514 -54.177  1.00  0.00     0.249 C 
HETATM    9  O   UNL     1     -33.237  40.178 -55.328  1.00  0.00    -0.271 OA
HETATM   10  C   UNL     1     -34.871  40.098 -50.784  1.00  0.00     0.035 C 
HETATM   11  C   UNL     1     -34.104  39.314 -49.722  1.00  0.00     0.002 C 
HETATM   12  C   UNL     1     -32.781  38.789 -50.274  1.00  0.00     0.002 C 
HETATM   13  C   UNL     1     -31.909  39.923 -50.812  1.00  0.00     0.027 C 
HETATM   14  H   UNL     1     -31.859  39.626 -53.477  1.00  0.00     0.163 HD
ENDROOT
BRANCH   1  15
HETATM   15  C   UNL     1     -35.979  40.358 -54.048  1.00  0.00     0.146 C 
BRANCH  15  16
HETATM   16  C   UNL     1     -37.302  41.064 -53.953  1.00  0.00     0.224 C 
HETATM   17  N   UNL     1     -38.001  41.454 -55.048  1.00  0.00    -0.327 N 
HETATM   18  H   UNL     1     -38.835  41.976 -54.788  1.00  0.00     0.169 HD
HETATM   19  O   UNL     1     -37.788  41.269 -52.831  1.00  0.00    -0.273 OA
BRANCH  17  20
HETATM   20  C   UNL     1     -37.830  41.287 -56.439  1.00  0.00     0.035 A 
HETATM   21  C   UNL     1     -38.359  40.252 -57.213  1.00  0.00     0.036 A 
HETATM   22  C   UNL     1     -38.139  40.196 -58.601  1.00  0.00    -0.060 A 
HETATM   23  C   UNL     1     -38.729  39.094 -59.433  1.00  0.00     0.048 C 
HETATM   24  C   UNL     1     -37.388  41.199 -59.219  1.00  0.00     0.007 A 
HETATM   25  C   UNL     1     -36.860  42.238 -58.462  1.00  0.00     0.003 A 
HETATM   26  C   UNL     1     -37.084  42.282 -57.085  1.00  0.00     0.029 A 
ENDBRANCH  17  20
ENDBRANCH  15  16
ENDBRANCH   1  15
TORSDOF 3
ENDMDL
MODEL 6
REMARK VINA RESULT:      -7.4      2.531      4.396
REMARK  3 active torsions:
REMARK  status: ('A' for Active; 'I' for Inactive)
REMARK    1  A    between atoms: C_4  and  N_5 
REMARK       I    between atoms: N_5  and  C_6 
REMARK    2  A    between atoms: C_6  and  C_7 
REMARK    3  A    between atoms: C_7  and  C_8 
ROOT
HETATM    1  C   UNL     1     -43.652  56.374 -53.830  1.00  0.00     0.286 C 
HETATM    2  N   UNL     1     -44.376  56.506 -52.490  1.00  0.00    -0.056 N 
HETATM    3  H   UNL     1     -44.839  57.424 -52.493  1.00  0.00     0.278 HD
HETATM    4  H   UNL     1     -45.171  55.833 -52.491  1.00  0.00     0.278 HD
HETATM    5  C   UNL     1     -43.561  56.398 -51.235  1.00  0.00     0.209 C 
HETATM    6  C   UNL     1     -42.309  57.297 -51.357  1.00  0.00     0.115 C 
HETATM    7  N   UNL     1     -41.597  57.101 -52.616  1.00  0.00    -0.353 N 
HETATM    8  C   UNL     1     -42.230  56.958 -53.825  1.00  0.00     0.249 C 
HETATM    9  O   UNL     1     -41.626  57.199 -54.866  1.00  0.00    -0.271 OA
HETATM   10  C   UNL     1     -43.241  54.938 -50.915  1.00  0.00     0.035 C 
HETATM   11  C   UNL     1     -42.340  54.829 -49.688  1.00  0.00     0.002 C 
HETATM   12  C   UNL     1     -41.062  55.644 -49.870  1.00  0.00     0.002 C 
HETATM   13  C   UNL     1     -41.370  57.113 -50.159  1.00  0.00     0.027 C 
HETATM   14  H   UNL     1     -40.679  57.533 -52.716  1.00  0.00     0.163 HD
ENDROOT
BRANCH   1  15
HETATM   15  C   UNL     1     -43.574  54.932 -54.355  1.00  0.00     0.146 C 
BRANCH  15  16
HETATM   16  C   UNL     1     -42.634  54.776 -55.516  1.00  0.00     0.224 C 
HETATM   17  N   UNL     1     -41.488  54.053 -55.436  1.00  0.00    -0.327 N 
HETATM   18  H   UNL     1     -40.949  54.118 -56.296  1.00  0.00     0.169 HD
HETATM   19  O   UNL     1     -42.931  55.302 -56.598  1.00  0.00    -0.273 OA
BRANCH  17  20
HETATM   20  C   UNL     1     -40.903  53.238 -54.444  1.00  0.00     0.035 A 
HETATM   21  C   UNL     1     -40.580  51.886 -54.575  1.00  0.00     0.036 A 
HETATM   22  C   UNL     1     -39.979  51.176 -53.520  1.00  0.00    -0.060 A 
HETATM   23  C   UNL     1     -39.612  49.728 -53.674  1.00  0.00     0.048 C 
HETATM   24  C   UNL     1     -39.691  51.836 -52.323  1.00  0.00     0.007 A 
HETATM   25  C   UNL     1     -40.002  53.183 -52.179  1.00  0.00     0.003 A 
HETATM   26  C   UNL     1     -40.599  53.877 -53.232  1.00  0.00     0.029 A 
ENDBRANCH  17  20
ENDBRANCH  15  16
ENDBRANCH   1  15
TORSDOF 3
ENDMDL
MODEL 7
REMARK VINA RESULT:      -7.2     14.133     15.492
REMARK  3 active torsions:
REMARK  status: ('A' for Active; 'I' for Inactive)
REMARK    1  A    between atoms: C_4  and  N_5 
REMARK       I    between atoms: N_5  and  C_6 
REMARK    2  A    between atoms: C_6  and  C_7 
REMARK    3  A    between atoms: C_7  and  C_8 
ROOT
HETATM    1  C   UNL     1     -36.598  39.974 -55.298  1.00  0.00     0.286 C 
HETATM    2  N   UNL     1     -37.689  40.944 -55.753  1.00  0.00    -0.056 N 
HETATM    3  H   UNL     1     -38.545  40.684 -55.247  1.00  0.00     0.278 HD
HETATM    4  H   UNL     1     -37.457  41.885 -55.370  1.00  0.00     0.278 HD
HETATM    5  C   UNL     1     -38.011  41.007 -57.217  1.00  0.00     0.209 C 
HETATM    6  C   UNL     1     -38.186  39.572 -57.765  1.00  0.00     0.115 C 
HETATM    7  N   UNL     1     -37.095  38.684 -57.375  1.00  0.00    -0.353 N 
HETATM    8  C   UNL     1     -36.544  38.676 -56.119  1.00  0.00     0.249 C 
HETATM    9  O   UNL     1     -35.942  37.684 -55.720  1.00  0.00    -0.271 OA
HETATM   10  C   UNL     1     -36.969  41.832 -57.970  1.00  0.00     0.035 C 
HETATM   11  C   UNL     1     -37.244  41.826 -59.472  1.00  0.00     0.002 C 
HETATM   12  C   UNL     1     -37.313  40.400 -60.013  1.00  0.00     0.002 C 
HETATM   13  C   UNL     1     -38.375  39.576 -59.287  1.00  0.00     0.027 C 
HETATM   14  H   UNL     1     -37.044  37.768 -57.819  1.00  0.00     0.163 HD
ENDROOT
BRANCH   1  15
HETATM   15  C   UNL     1     -35.188  40.587 -55.282  1.00  0.00     0.146 C 
BRANCH  15  16
HETATM   16  C   UNL     1     -35.155  41.977 -54.712  1.00  0.00     0.224 C 
HETATM   17  N   UNL     1     -35.100  42.217 -53.377  1.00  0.00    -0.327 N 
HETATM   18  H   UNL     1     -35.154  43.214 -53.179  1.00  0.00     0.169 HD
HETATM   19  O   UNL     1     -35.145  42.940 -55.491  1.00  0.00    -0.273 OA
BRANCH  17  20
HETATM   20  C   UNL     1     -34.975  41.402 -52.233  1.00  0.00     0.035 A 
HETATM   21  C   UNL     1     -33.789  41.114 -51.554  1.00  0.00     0.036 A 
HETATM   22  C   UNL     1     -33.787  40.301 -50.406  1.00  0.00    -0.060 A 
HETATM   23  C   UNL     1     -32.512  40.012 -49.667  1.00  0.00     0.048 C 
HETATM   24  C   UNL     1     -34.992  39.779 -49.931  1.00  0.00     0.007 A 
HETATM   25  C   UNL     1     -36.182  40.062 -50.592  1.00  0.00     0.003 A 
HETATM   26  C   UNL     1     -36.172  40.870 -51.730  1.00  0.00     0.029 A 
ENDBRANCH  17  20
ENDBRANCH  15  16
ENDBRANCH   1  15
TORSDOF 3
ENDMDL
MODEL 8
REMARK VINA RESULT:      -7.2      3.271      7.121
REMARK  3 active torsions:
REMARK  status: ('A' for Active; 'I' for Inactive)
REMARK    1  A    between atoms: C_4  and  N_5 
REMARK       I    between atoms: N_5  and  C_6 
REMARK    2  A    between atoms: C_6  and  C_7 
REMARK    3  A    between atoms: C_7  and  C_8 
ROOT
HETATM    1  C   UNL     1     -42.692  56.528 -53.916  1.00  0.00     0.286 C 
HETATM    2  N   UNL     1     -43.545  55.710 -52.946  1.00  0.00    -0.056 N 
HETATM    3  H   UNL     1     -44.333  56.308 -52.669  1.00  0.00     0.278 HD
HETATM    4  H   UNL     1     -44.000  54.946 -53.489  1.00  0.00     0.278 HD
HETATM    5  C   UNL     1     -42.892  55.189 -51.700  1.00  0.00     0.209 C 
HETATM    6  C   UNL     1     -42.099  56.330 -51.021  1.00  0.00     0.115 C 
HETATM    7  N   UNL     1     -41.240  57.050 -51.956  1.00  0.00    -0.353 N 
HETATM    8  C   UNL     1     -41.632  57.398 -53.224  1.00  0.00     0.249 C 
HETATM    9  O   UNL     1     -41.068  58.319 -53.808  1.00  0.00    -0.271 OA
HETATM   10  C   UNL     1     -42.051  53.949 -52.001  1.00  0.00     0.035 C 
HETATM   11  C   UNL     1     -41.316  53.467 -50.753  1.00  0.00     0.002 C 
HETATM   12  C   UNL     1     -40.459  54.581 -50.156  1.00  0.00     0.002 C 
HETATM   13  C   UNL     1     -41.297  55.814 -49.821  1.00  0.00     0.027 C 
HETATM   14  H   UNL     1     -40.566  57.711 -51.571  1.00  0.00     0.163 HD
ENDROOT
BRANCH   1  15
HETATM   15  C   UNL     1     -41.989  55.683 -54.990  1.00  0.00     0.146 C 
BRANCH  15  16
HETATM   16  C   UNL     1     -42.945  54.916 -55.859  1.00  0.00     0.224 C 
HETATM   17  N   UNL     1     -43.278  55.320 -57.112  1.00  0.00    -0.327 N 
HETATM   18  H   UNL     1     -43.987  54.715 -57.519  1.00  0.00     0.169 HD
HETATM   19  O   UNL     1     -43.425  53.858 -55.428  1.00  0.00    -0.273 OA
BRANCH  17  20
HETATM   20  C   UNL     1     -42.852  56.367 -57.956  1.00  0.00     0.035 A 
HETATM   21  C   UNL     1     -42.516  57.662 -57.555  1.00  0.00     0.036 A 
HETATM   22  C   UNL     1     -42.084  58.623 -58.486  1.00  0.00    -0.060 A 
HETATM   23  C   UNL     1     -41.702  60.008 -58.047  1.00  0.00     0.048 C 
HETATM   24  C   UNL     1     -41.977  58.275 -59.835  1.00  0.00     0.007 A 
HETATM   25  C   UNL     1     -42.302  56.988 -60.249  1.00  0.00     0.003 A 
HETATM   26  C   UNL     1     -42.731  56.043 -59.315  1.00  0.00     0.029 A 
ENDBRANCH  17  20
ENDBRANCH  15  16
ENDBRANCH   1  15
TORSDOF 3
ENDMDL
MODEL 9
REMARK VINA RESULT:      -7.1     13.615     15.764
REMARK  3 active torsions:
REMARK  status: ('A' for Active; 'I' for Inactive)
REMARK    1  A    between atoms: C_4  and  N_5 
REMARK       I    between atoms: N_5  and  C_6 
REMARK    2  A    between atoms: C_6  and  C_7 
REMARK    3  A    between atoms: C_7  and  C_8 
ROOT
HETATM    1  C   UNL     1     -36.125  40.475 -52.125  1.00  0.00     0.286 C 
HETATM    2  N   UNL     1     -35.266  39.345 -51.558  1.00  0.00    -0.056 N 
HETATM    3  H   UNL     1     -35.058  39.592 -50.583  1.00  0.00     0.278 HD
HETATM    4  H   UNL     1     -35.869  38.500 -51.471  1.00  0.00     0.278 HD
HETATM    5  C   UNL     1     -33.970  39.030 -52.247  1.00  0.00     0.209 C 
HETATM    6  C   UNL     1     -33.190  40.342 -52.494  1.00  0.00     0.115 C 
HETATM    7  N   UNL     1     -34.016  41.382 -53.100  1.00  0.00    -0.353 N 
HETATM    8  C   UNL     1     -35.309  41.634 -52.719  1.00  0.00     0.249 C 
HETATM    9  O   UNL     1     -35.813  42.730 -52.947  1.00  0.00    -0.271 OA
HETATM   10  C   UNL     1     -34.210  38.209 -53.513  1.00  0.00     0.035 C 
HETATM   11  C   UNL     1     -32.904  37.961 -54.262  1.00  0.00     0.002 C 
HETATM   12  C   UNL     1     -32.198  39.276 -54.586  1.00  0.00     0.002 C 
HETATM   13  C   UNL     1     -31.924  40.090 -53.322  1.00  0.00     0.027 C 
HETATM   14  H   UNL     1     -33.549  42.222 -53.442  1.00  0.00     0.163 HD
ENDROOT
BRANCH   1  15
HETATM   15  C   UNL     1     -37.139  40.014 -53.184  1.00  0.00     0.146 C 
BRANCH  15  16
HETATM   16  C   UNL     1     -38.245  41.004 -53.414  1.00  0.00     0.224 C 
HETATM   17  N   UNL     1     -38.477  41.572 -54.624  1.00  0.00    -0.327 N 
HETATM   18  H   UNL     1     -39.219  42.266 -54.571  1.00  0.00     0.169 HD
HETATM   19  O   UNL     1     -38.995  41.289 -52.469  1.00  0.00    -0.273 OA
BRANCH  17  20
HETATM   20  C   UNL     1     -37.930  41.404 -55.914  1.00  0.00     0.035 A 
HETATM   21  C   UNL     1     -38.419  40.555 -56.909  1.00  0.00     0.036 A 
HETATM   22  C   UNL     1     -37.801  40.482 -58.171  1.00  0.00    -0.060 A 
HETATM   23  C   UNL     1     -38.343  39.585 -59.246  1.00  0.00     0.048 C 
HETATM   24  C   UNL     1     -36.685  41.279 -58.438  1.00  0.00     0.007 A 
HETATM   25  C   UNL     1     -36.191  42.133 -57.459  1.00  0.00     0.003 A 
HETATM   26  C   UNL     1     -36.811  42.196 -56.210  1.00  0.00     0.029 A 
ENDBRANCH  17  20
ENDBRANCH  15  16
ENDBRANCH   1  15
TORSDOF 3
ENDMDL
MODEL 10
REMARK VINA RESULT:      -7.0      3.814      7.639
REMARK  3 active torsions:
REMARK  status: ('A' for Active; 'I' for Inactive)
REMARK    1  A    between atoms: C_4  and  N_5 
REMARK       I    between atoms: N_5  and  C_6 
REMARK    2  A    between atoms: C_6  and  C_7 
REMARK    3  A    between atoms: C_7  and  C_8 
ROOT
HETATM    1  C   UNL     1     -43.390  56.470 -55.401  1.00  0.00     0.286 C 
HETATM    2  N   UNL     1     -43.613  54.960 -55.476  1.00  0.00    -0.056 N 
HETATM    3  H   UNL     1     -44.623  54.804 -55.363  1.00  0.00     0.278 HD
HETATM    4  H   UNL     1     -43.429  54.660 -56.456  1.00  0.00     0.278 HD
HETATM    5  C   UNL     1     -42.892  54.091 -54.487  1.00  0.00     0.209 C 
HETATM    6  C   UNL     1     -43.068  54.676 -53.067  1.00  0.00     0.115 C 
HETATM    7  N   UNL     1     -42.781  56.106 -53.009  1.00  0.00    -0.353 N 
HETATM    8  C   UNL     1     -43.190  56.996 -53.971  1.00  0.00     0.249 C 
HETATM    9  O   UNL     1     -43.288  58.188 -53.700  1.00  0.00    -0.271 OA
HETATM   10  C   UNL     1     -41.433  53.893 -54.896  1.00  0.00     0.035 C 
HETATM   11  C   UNL     1     -40.675  53.082 -53.849  1.00  0.00     0.002 C 
HETATM   12  C   UNL     1     -40.776  53.732 -52.471  1.00  0.00     0.002 C 
HETATM   13  C   UNL     1     -42.231  53.905 -52.039  1.00  0.00     0.027 C 
HETATM   14  H   UNL     1     -42.717  56.542 -52.090  1.00  0.00     0.163 HD
ENDROOT
BRANCH   1  15
HETATM   15  C   UNL     1     -42.218  56.969 -56.262  1.00  0.00     0.146 C 
BRANCH  15  16
HETATM   16  C   UNL     1     -42.546  58.209 -57.044  1.00  0.00     0.224 C 
HETATM   17  N   UNL     1     -43.293  58.182 -58.176  1.00  0.00    -0.327 N 
HETATM   18  H   UNL     1     -43.351  59.103 -58.603  1.00  0.00     0.169 HD
HETATM   19  O   UNL     1     -42.144  59.303 -56.622  1.00  0.00    -0.273 OA
BRANCH  17  20
HETATM   20  C   UNL     1     -44.001  57.175 -58.867  1.00  0.00     0.035 A 
HETATM   21  C   UNL     1     -45.322  57.258 -59.312  1.00  0.00     0.036 A 
HETATM   22  C   UNL     1     -45.922  56.195 -60.011  1.00  0.00    -0.060 A 
HETATM   23  C   UNL     1     -47.336  56.297 -60.508  1.00  0.00     0.048 C 
HETATM   24  C   UNL     1     -45.182  55.040 -60.273  1.00  0.00     0.007 A 
HETATM   25  C   UNL     1     -43.864  54.945 -59.841  1.00  0.00     0.003 A 
HETATM   26  C   UNL     1     -43.280  56.006 -59.148  1.00  0.00     0.029 A 
ENDBRANCH  17  20
ENDBRANCH  15  16
ENDBRANCH   1  15
TORSDOF 3
ENDMDL
