MODEL 1
REMARK VINA RESULT:      -8.3      0.000      0.000
REMARK  8 active torsions:
REMARK  status: ('A' for Active; 'I' for Inactive)
REMARK    1  A    between atoms: C_2  and  C_3 
REMARK    2  A    between atoms: C_3  and  C_4 
REMARK    3  A    between atoms: C_7  and  C_8 
REMARK    4  A    between atoms: C_8  and  N_9 
REMARK    5  A    between atoms: C_8  and  C_26 
REMARK    6  A    between atoms: N_9  and  C_12 
REMARK    7  A    between atoms: C_12  and  C_13 
REMARK       I    between atoms: C_13  and  N_14 
REMARK    8  A    between atoms: N_14  and  C_15 
ROOT
HETATM    1  N   UNL     1     -40.932  58.432 -53.965  1.00  0.00    -0.054 N 
HETATM    2  H   UNL     1     -40.042  58.832 -53.636  1.00  0.00     0.278 HD
HETATM    3  H   UNL     1     -40.663  57.886 -54.794  1.00  0.00     0.278 HD
ENDROOT
BRANCH   1   4
HETATM    4  C   UNL     1     -41.457  57.513 -52.909  1.00  0.00     0.259 C 
BRANCH   4   5
HETATM    5  C   UNL     1     -41.331  56.061 -53.345  1.00  0.00    -0.023 A 
HETATM    6  C   UNL     1     -41.220  55.056 -52.366  1.00  0.00     0.010 A 
HETATM    7  C   UNL     1     -41.052  53.718 -52.726  1.00  0.00     0.007 A 
HETATM    8  C   UNL     1     -40.980  53.348 -54.072  1.00  0.00    -0.058 A 
HETATM    9  C   UNL     1     -41.093  54.337 -55.054  1.00  0.00     0.007 A 
HETATM   10  C   UNL     1     -41.261  55.677 -54.696  1.00  0.00     0.010 A 
BRANCH   8  11
HETATM   11  C   UNL     1     -40.822  51.897 -54.459  1.00  0.00     0.038 C 
BRANCH  11  12
HETATM   12  C   UNL     1     -39.714  51.215 -53.655  1.00  0.00     0.000 C 
HETATM   13  C   UNL     1     -39.388  49.839 -54.216  1.00  0.00     0.005 C 
ENDBRANCH  11  12
ENDBRANCH   8  11
ENDBRANCH   4   5
BRANCH   4  14
HETATM   14  C   UNL     1     -42.804  57.937 -52.351  1.00  0.00     0.017 A 
HETATM   15  S   UNL     1     -42.873  59.208 -51.180  1.00  0.00    -0.104 SA
HETATM   16  C   UNL     1     -44.567  59.080 -51.026  1.00  0.00     0.050 A 
HETATM   17  C   UNL     1     -45.080  58.072 -51.809  1.00  0.00     0.008 A 
HETATM   18  C   UNL     1     -44.066  57.400 -52.552  1.00  0.00     0.017 A 
ENDBRANCH   4  14
ENDBRANCH   1   4
BRANCH   1  19
HETATM   19  C   UNL     1     -41.790  59.574 -54.439  1.00  0.00     0.336 C 
BRANCH  19  20
HETATM   20  C   UNL     1     -42.241  59.309 -55.877  1.00  0.00     0.248 C 
HETATM   21  N   UNL     1     -43.320  58.456 -55.988  1.00  0.00    -0.326 N 
HETATM   22  H   UNL     1     -43.777  58.138 -55.140  1.00  0.00     0.169 HD
HETATM   23  O   UNL     1     -41.624  59.863 -56.785  1.00  0.00    -0.271 OA
BRANCH  21  24
HETATM   24  C   UNL     1     -43.902  57.975 -57.186  1.00  0.00     0.037 A 
HETATM   25  C   UNL     1     -43.406  56.879 -57.903  1.00  0.00     0.061 A 
HETATM   26  C   UNL     1     -44.091  56.510 -59.039  1.00  0.00     0.065 A 
HETATM   27  C   UNL     1     -45.228  57.183 -59.481  1.00  0.00     0.063 A 
HETATM   28  N   UNL     1     -43.841  55.469 -59.927  1.00  0.00    -0.306 N 
HETATM   29  N   UNL     1     -45.675  56.560 -60.638  1.00  0.00    -0.307 N 
HETATM   30  C   UNL     1     -45.739  58.263 -58.808  1.00  0.00     0.034 A 
HETATM   31  C   UNL     1     -44.821  55.486 -60.930  1.00  0.00     0.325 A 
HETATM   32  H   UNL     1     -46.475  56.802 -61.201  1.00  0.00     0.170 HD
HETATM   33  O   UNL     1     -44.913  54.717 -61.868  1.00  0.00    -0.247 OA
HETATM   34  C   UNL     1     -45.063  58.657 -57.645  1.00  0.00     0.032 A 
HETATM   35  H   UNL     1     -43.098  54.792 -59.892  1.00  0.00     0.170 HD
ENDBRANCH  21  24
ENDBRANCH  19  20
ENDBRANCH   1  19
TORSDOF 8
ENDMDL
MODEL 2
REMARK VINA RESULT:      -8.2      4.082      6.936
REMARK  8 active torsions:
REMARK  status: ('A' for Active; 'I' for Inactive)
REMARK    1  A    between atoms: C_2  and  C_3 
REMARK    2  A    between atoms: C_3  and  C_4 
REMARK    3  A    between atoms: C_7  and  C_8 
REMARK    4  A    between atoms: C_8  and  N_9 
REMARK    5  A    between atoms: C_8  and  C_26 
REMARK    6  A    between atoms: N_9  and  C_12 
REMARK    7  A    between atoms: C_12  and  C_13 
REMARK       I    between atoms: C_13  and  N_14 
REMARK    8  A    between atoms: N_14  and  C_15 
ROOT
HETATM    1  N   UNL     1     -41.426  53.670 -51.722  1.00  0.00    -0.054 N 
HETATM    2  H   UNL     1     -42.402  53.901 -51.954  1.00  0.00     0.278 HD
HETATM    3  H   UNL     1     -41.503  52.789 -51.196  1.00  0.00     0.278 HD
ENDROOT
BRANCH   1   4
HETATM    4  C   UNL     1     -40.681  53.428 -52.996  1.00  0.00     0.259 C 
BRANCH   4   5
HETATM    5  C   UNL     1     -41.372  54.114 -54.165  1.00  0.00    -0.023 A 
HETATM    6  C   UNL     1     -40.781  55.256 -54.738  1.00  0.00     0.010 A 
HETATM    7  C   UNL     1     -41.408  55.944 -55.778  1.00  0.00     0.007 A 
HETATM    8  C   UNL     1     -42.645  55.516 -56.268  1.00  0.00    -0.058 A 
HETATM    9  C   UNL     1     -43.240  54.381 -55.709  1.00  0.00     0.007 A 
HETATM   10  C   UNL     1     -42.615  53.692 -54.667  1.00  0.00     0.010 A 
BRANCH   8  11
HETATM   11  C   UNL     1     -43.310  56.248 -57.410  1.00  0.00     0.038 C 
BRANCH  11  12
HETATM   12  C   UNL     1     -42.921  55.654 -58.765  1.00  0.00     0.000 C 
HETATM   13  C   UNL     1     -44.104  54.970 -59.432  1.00  0.00     0.005 C 
ENDBRANCH  11  12
ENDBRANCH   8  11
ENDBRANCH   4   5
BRANCH   4  14
HETATM   14  C   UNL     1     -40.286  51.976 -53.201  1.00  0.00     0.017 A 
HETATM   15  S   UNL     1     -39.623  51.084 -51.877  1.00  0.00    -0.104 SA
HETATM   16  C   UNL     1     -39.414  49.681 -52.825  1.00  0.00     0.050 A 
HETATM   17  C   UNL     1     -39.796  49.882 -54.131  1.00  0.00     0.008 A 
HETATM   18  C   UNL     1     -40.274  51.206 -54.353  1.00  0.00     0.017 A 
ENDBRANCH   4  14
ENDBRANCH   1   4
BRANCH   1  19
HETATM   19  C   UNL     1     -40.929  54.722 -50.768  1.00  0.00     0.336 C 
BRANCH  19  20
HETATM   20  C   UNL     1     -41.559  56.070 -51.123  1.00  0.00     0.248 C 
HETATM   21  N   UNL     1     -42.875  55.995 -51.530  1.00  0.00    -0.326 N 
HETATM   22  H   UNL     1     -43.345  55.096 -51.491  1.00  0.00     0.169 HD
HETATM   23  O   UNL     1     -40.861  57.078 -51.018  1.00  0.00    -0.271 OA
BRANCH  21  24
HETATM   24  C   UNL     1     -43.684  57.063 -51.988  1.00  0.00     0.037 A 
HETATM   25  C   UNL     1     -44.505  57.829 -51.150  1.00  0.00     0.061 A 
HETATM   26  C   UNL     1     -45.217  58.853 -51.735  1.00  0.00     0.065 A 
HETATM   27  C   UNL     1     -45.147  59.132 -53.097  1.00  0.00     0.063 A 
HETATM   28  N   UNL     1     -46.086  59.771 -51.156  1.00  0.00    -0.306 N 
HETATM   29  N   UNL     1     -45.972  60.218 -53.357  1.00  0.00    -0.307 N 
HETATM   30  C   UNL     1     -44.359  58.401 -53.948  1.00  0.00     0.034 A 
HETATM   31  C   UNL     1     -46.566  60.631 -52.155  1.00  0.00     0.325 A 
HETATM   32  H   UNL     1     -46.141  60.668 -54.242  1.00  0.00     0.170 HD
HETATM   33  O   UNL     1     -47.341  61.556 -52.006  1.00  0.00    -0.247 OA
HETATM   34  C   UNL     1     -43.619  57.355 -53.378  1.00  0.00     0.032 A 
HETATM   35  H   UNL     1     -46.352  59.846 -50.188  1.00  0.00     0.170 HD
ENDBRANCH  21  24
ENDBRANCH  19  20
ENDBRANCH   1  19
TORSDOF 8
ENDMDL
MODEL 3
REMARK VINA RESULT:      -8.1      1.577      2.287
REMARK  8 active torsions:
REMARK  status: ('A' for Active; 'I' for Inactive)
REMARK    1  A    between atoms: C_2  and  C_3 
REMARK    2  A    between atoms: C_3  and  C_4 
REMARK    3  A    between atoms: C_7  and  C_8 
REMARK    4  A    between atoms: C_8  and  N_9 
REMARK    5  A    between atoms: C_8  and  C_26 
REMARK    6  A    between atoms: N_9  and  C_12 
REMARK    7  A    between atoms: C_12  and  C_13 
REMARK       I    between atoms: C_13  and  N_14 
REMARK    8  A    between atoms: N_14  and  C_15 
ROOT
HETATM    1  N   UNL     1     -42.203  58.333 -54.382  1.00  0.00    -0.054 N 
HETATM    2  H   UNL     1     -42.590  57.539 -54.911  1.00  0.00     0.278 HD
HETATM    3  H   UNL     1     -42.966  58.596 -53.745  1.00  0.00     0.278 HD
ENDROOT
BRANCH   1   4
HETATM    4  C   UNL     1     -41.034  57.846 -53.588  1.00  0.00     0.259 C 
BRANCH   4   5
HETATM    5  C   UNL     1     -40.983  56.325 -53.576  1.00  0.00    -0.023 A 
HETATM    6  C   UNL     1     -40.584  55.642 -54.740  1.00  0.00     0.010 A 
HETATM    7  C   UNL     1     -40.574  54.247 -54.785  1.00  0.00     0.007 A 
HETATM    8  C   UNL     1     -40.970  53.496 -53.674  1.00  0.00    -0.058 A 
HETATM    9  C   UNL     1     -41.365  54.165 -52.510  1.00  0.00     0.007 A 
HETATM   10  C   UNL     1     -41.377  55.561 -52.463  1.00  0.00     0.010 A 
BRANCH   8  11
HETATM   11  C   UNL     1     -40.935  51.987 -53.717  1.00  0.00     0.038 C 
BRANCH  11  12
HETATM   12  C   UNL     1     -39.520  51.461 -53.963  1.00  0.00     0.000 C 
HETATM   13  C   UNL     1     -39.521  49.963 -54.217  1.00  0.00     0.005 C 
ENDBRANCH  11  12
ENDBRANCH   8  11
ENDBRANCH   4   5
BRANCH   4  14
HETATM   14  C   UNL     1     -40.882  58.538 -52.244  1.00  0.00     0.017 A 
HETATM   15  S   UNL     1     -42.275  59.227 -51.486  1.00  0.00    -0.104 SA
HETATM   16  C   UNL     1     -41.365  59.803 -50.163  1.00  0.00     0.050 A 
HETATM   17  C   UNL     1     -40.026  59.523 -50.298  1.00  0.00     0.008 A 
HETATM   18  C   UNL     1     -39.744  58.818 -51.505  1.00  0.00     0.017 A 
ENDBRANCH   4  14
ENDBRANCH   1   4
BRANCH   1  19
HETATM   19  C   UNL     1     -42.012  59.469 -55.350  1.00  0.00     0.336 C 
BRANCH  19  20
HETATM   20  C   UNL     1     -42.495  59.043 -56.738  1.00  0.00     0.248 C 
HETATM   21  N   UNL     1     -43.475  58.072 -56.726  1.00  0.00    -0.326 N 
HETATM   22  H   UNL     1     -43.854  57.774 -55.834  1.00  0.00     0.169 HD
HETATM   23  O   UNL     1     -41.987  59.587 -57.717  1.00  0.00    -0.271 OA
BRANCH  21  24
HETATM   24  C   UNL     1     -44.053  57.436 -57.852  1.00  0.00     0.037 A 
HETATM   25  C   UNL     1     -45.302  57.784 -58.383  1.00  0.00     0.061 A 
HETATM   26  C   UNL     1     -45.724  57.094 -59.498  1.00  0.00     0.065 A 
HETATM   27  C   UNL     1     -44.965  56.087 -60.088  1.00  0.00     0.063 A 
HETATM   28  N   UNL     1     -46.895  57.233 -60.235  1.00  0.00    -0.306 N 
HETATM   29  N   UNL     1     -45.667  55.605 -61.185  1.00  0.00    -0.307 N 
HETATM   30  C   UNL     1     -43.741  55.716 -59.594  1.00  0.00     0.034 A 
HETATM   31  C   UNL     1     -46.874  56.311 -61.292  1.00  0.00     0.325 A 
HETATM   32  H   UNL     1     -45.391  54.877 -61.824  1.00  0.00     0.170 HD
HETATM   33  O   UNL     1     -47.734  56.158 -62.139  1.00  0.00    -0.247 OA
HETATM   34  C   UNL     1     -43.285  56.406 -58.462  1.00  0.00     0.032 A 
HETATM   35  H   UNL     1     -47.653  57.875 -60.077  1.00  0.00     0.170 HD
ENDBRANCH  21  24
ENDBRANCH  19  20
ENDBRANCH   1  19
TORSDOF 8
ENDMDL
MODEL 4
REMARK VINA RESULT:      -8.1      2.251      3.099
REMARK  8 active torsions:
REMARK  status: ('A' for Active; 'I' for Inactive)
REMARK    1  A    between atoms: C_2  and  C_3 
REMARK    2  A    between atoms: C_3  and  C_4 
REMARK    3  A    between atoms: C_7  and  C_8 
REMARK    4  A    between atoms: C_8  and  N_9 
REMARK    5  A    between atoms: C_8  and  C_26 
REMARK    6  A    between atoms: N_9  and  C_12 
REMARK    7  A    between atoms: C_12  and  C_13 
REMARK       I    between atoms: C_13  and  N_14 
REMARK    8  A    between atoms: N_14  and  C_15 
ROOT
HETATM    1  N   UNL     1     -43.292  56.913 -50.654  1.00  0.00    -0.054 N 
HETATM    2  H   UNL     1     -43.329  55.948 -50.298  1.00  0.00     0.278 HD
HETATM    3  H   UNL     1     -43.176  57.481 -49.804  1.00  0.00     0.278 HD
ENDROOT
BRANCH   1   4
HETATM    4  C   UNL     1     -42.080  57.053 -51.518  1.00  0.00     0.259 C 
BRANCH   4   5
HETATM    5  C   UNL     1     -41.455  55.694 -51.796  1.00  0.00    -0.023 A 
HETATM    6  C   UNL     1     -41.201  55.314 -53.127  1.00  0.00     0.010 A 
HETATM    7  C   UNL     1     -40.675  54.056 -53.427  1.00  0.00     0.007 A 
HETATM    8  C   UNL     1     -40.398  53.140 -52.407  1.00  0.00    -0.058 A 
HETATM    9  C   UNL     1     -40.643  53.508 -51.080  1.00  0.00     0.007 A 
HETATM   10  C   UNL     1     -41.170  54.766 -50.779  1.00  0.00     0.010 A 
BRANCH   8  11
HETATM   11  C   UNL     1     -39.807  51.789 -52.732  1.00  0.00     0.038 C 
BRANCH  11  12
HETATM   12  C   UNL     1     -40.010  51.422 -54.203  1.00  0.00     0.000 C 
HETATM   13  C   UNL     1     -40.025  49.915 -54.402  1.00  0.00     0.005 C 
ENDBRANCH  11  12
ENDBRANCH   8  11
ENDBRANCH   4   5
BRANCH   4  14
HETATM   14  C   UNL     1     -41.136  58.152 -51.065  1.00  0.00     0.017 A 
HETATM   15  S   UNL     1     -41.789  59.647 -50.492  1.00  0.00    -0.104 SA
HETATM   16  C   UNL     1     -40.241  60.317 -50.239  1.00  0.00     0.050 A 
HETATM   17  C   UNL     1     -39.239  59.453 -50.615  1.00  0.00     0.008 A 
HETATM   18  C   UNL     1     -39.752  58.219 -51.111  1.00  0.00     0.017 A 
ENDBRANCH   4  14
ENDBRANCH   1   4
BRANCH   1  19
HETATM   19  C   UNL     1     -44.646  57.234 -51.228  1.00  0.00     0.336 C 
BRANCH  19  20
HETATM   20  C   UNL     1     -44.479  57.786 -52.646  1.00  0.00     0.248 C 
HETATM   21  N   UNL     1     -44.569  56.836 -53.642  1.00  0.00    -0.326 N 
HETATM   22  H   UNL     1     -44.812  55.885 -53.385  1.00  0.00     0.169 HD
HETATM   23  O   UNL     1     -44.286  58.994 -52.775  1.00  0.00    -0.271 OA
BRANCH  21  24
HETATM   24  C   UNL     1     -44.382  57.041 -55.030  1.00  0.00     0.037 A 
HETATM   25  C   UNL     1     -43.358  56.438 -55.772  1.00  0.00     0.061 A 
HETATM   26  C   UNL     1     -43.315  56.713 -57.121  1.00  0.00     0.065 A 
HETATM   27  C   UNL     1     -44.234  57.554 -57.744  1.00  0.00     0.063 A 
HETATM   28  N   UNL     1     -42.433  56.251 -58.092  1.00  0.00    -0.306 N 
HETATM   29  N   UNL     1     -43.917  57.612 -59.095  1.00  0.00    -0.307 N 
HETATM   30  C   UNL     1     -45.246  58.165 -57.050  1.00  0.00     0.034 A 
HETATM   31  C   UNL     1     -42.796  56.802 -59.330  1.00  0.00     0.325 A 
HETATM   32  H   UNL     1     -44.389  58.129 -59.819  1.00  0.00     0.170 HD
HETATM   33  O   UNL     1     -42.246  56.612 -60.398  1.00  0.00    -0.247 OA
HETATM   34  C   UNL     1     -45.315  57.899 -55.675  1.00  0.00     0.032 A 
HETATM   35  H   UNL     1     -41.655  55.624 -57.973  1.00  0.00     0.170 HD
ENDBRANCH  21  24
ENDBRANCH  19  20
ENDBRANCH   1  19
TORSDOF 8
ENDMDL
MODEL 5
REMARK VINA RESULT:      -7.9      1.867      2.301
REMARK  8 active torsions:
REMARK  status: ('A' for Active; 'I' for Inactive)
REMARK    1  A    between atoms: C_2  and  C_3 
REMARK    2  A    between atoms: C_3  and  C_4 
REMARK    3  A    between atoms: C_7  and  C_8 
REMARK    4  A    between atoms: C_8  and  N_9 
REMARK    5  A    between atoms: C_8  and  C_26 
REMARK    6  A    between atoms: N_9  and  C_12 
REMARK    7  A    between atoms: C_12  and  C_13 
REMARK       I    between atoms: C_13  and  N_14 
REMARK    8  A    between atoms: N_14  and  C_15 
ROOT
HETATM    1  N   UNL     1     -43.310  57.443 -52.505  1.00  0.00    -0.054 N 
HETATM    2  H   UNL     1     -43.694  56.488 -52.521  1.00  0.00     0.278 HD
HETATM    3  H   UNL     1     -43.499  57.765 -51.546  1.00  0.00     0.278 HD
ENDROOT
BRANCH   1   4
HETATM    4  C   UNL     1     -41.834  57.364 -52.724  1.00  0.00     0.259 C 
BRANCH   4   5
HETATM    5  C   UNL     1     -41.379  55.915 -52.824  1.00  0.00    -0.023 A 
HETATM    6  C   UNL     1     -41.225  55.160 -51.647  1.00  0.00     0.010 A 
HETATM    7  C   UNL     1     -40.762  53.844 -51.693  1.00  0.00     0.007 A 
HETATM    8  C   UNL     1     -40.430  53.250 -52.914  1.00  0.00    -0.058 A 
HETATM    9  C   UNL     1     -40.582  53.989 -54.091  1.00  0.00     0.007 A 
HETATM   10  C   UNL     1     -41.045  55.307 -54.047  1.00  0.00     0.010 A 
BRANCH   8  11
HETATM   11  C   UNL     1     -39.952  51.818 -52.964  1.00  0.00     0.038 C 
BRANCH  11  12
HETATM   12  C   UNL     1     -40.100  51.221 -54.364  1.00  0.00     0.000 C 
HETATM   13  C   UNL     1     -39.643  49.771 -54.400  1.00  0.00     0.005 C 
ENDBRANCH  11  12
ENDBRANCH   8  11
ENDBRANCH   4   5
BRANCH   4  14
HETATM   14  C   UNL     1     -41.033  58.261 -51.797  1.00  0.00     0.017 A 
HETATM   15  S   UNL     1     -39.463  58.796 -52.284  1.00  0.00    -0.104 SA
HETATM   16  C   UNL     1     -39.214  59.646 -50.826  1.00  0.00     0.050 A 
HETATM   17  C   UNL     1     -40.273  59.503 -49.961  1.00  0.00     0.008 A 
HETATM   18  C   UNL     1     -41.308  58.689 -50.508  1.00  0.00     0.017 A 
ENDBRANCH   4  14
ENDBRANCH   1   4
BRANCH   1  19
HETATM   19  C   UNL     1     -44.147  58.281 -53.433  1.00  0.00     0.336 C 
BRANCH  19  20
HETATM   20  C   UNL     1     -44.506  57.462 -54.674  1.00  0.00     0.248 C 
HETATM   21  N   UNL     1     -44.547  58.190 -55.845  1.00  0.00    -0.326 N 
HETATM   22  H   UNL     1     -44.269  59.166 -55.821  1.00  0.00     0.169 HD
HETATM   23  O   UNL     1     -44.719  56.259 -54.529  1.00  0.00    -0.271 OA
BRANCH  21  24
HETATM   24  C   UNL     1     -44.921  57.717 -57.126  1.00  0.00     0.037 A 
HETATM   25  C   UNL     1     -44.160  56.804 -57.869  1.00  0.00     0.061 A 
HETATM   26  C   UNL     1     -44.663  56.415 -59.090  1.00  0.00     0.065 A 
HETATM   27  C   UNL     1     -45.870  56.895 -59.591  1.00  0.00     0.063 A 
HETATM   28  N   UNL     1     -44.139  55.525 -60.022  1.00  0.00    -0.306 N 
HETATM   29  N   UNL     1     -46.088  56.304 -60.829  1.00  0.00    -0.307 N 
HETATM   30  C   UNL     1     -46.639  57.791 -58.895  1.00  0.00     0.034 A 
HETATM   31  C   UNL     1     -45.017  55.444 -61.113  1.00  0.00     0.325 A 
HETATM   32  H   UNL     1     -46.871  56.438 -61.448  1.00  0.00     0.170 HD
HETATM   33  O   UNL     1     -44.877  54.759 -62.108  1.00  0.00    -0.247 OA
HETATM   34  C   UNL     1     -46.153  58.201 -57.646  1.00  0.00     0.032 A 
HETATM   35  H   UNL     1     -43.281  55.002 -59.963  1.00  0.00     0.170 HD
ENDBRANCH  21  24
ENDBRANCH  19  20
ENDBRANCH   1  19
TORSDOF 8
ENDMDL
MODEL 6
REMARK VINA RESULT:      -7.8      2.689      3.873
REMARK  8 active torsions:
REMARK  status: ('A' for Active; 'I' for Inactive)
REMARK    1  A    between atoms: C_2  and  C_3 
REMARK    2  A    between atoms: C_3  and  C_4 
REMARK    3  A    between atoms: C_7  and  C_8 
REMARK    4  A    between atoms: C_8  and  N_9 
REMARK    5  A    between atoms: C_8  and  C_26 
REMARK    6  A    between atoms: N_9  and  C_12 
REMARK    7  A    between atoms: C_12  and  C_13 
REMARK       I    between atoms: C_13  and  N_14 
REMARK    8  A    between atoms: N_14  and  C_15 
ROOT
HETATM    1  N   UNL     1     -43.654  55.623 -56.944  1.00  0.00    -0.054 N 
HETATM    2  H   UNL     1     -44.088  54.824 -56.462  1.00  0.00     0.278 HD
HETATM    3  H   UNL     1     -44.434  56.280 -57.079  1.00  0.00     0.278 HD
ENDROOT
BRANCH   1   4
HETATM    4  C   UNL     1     -42.640  56.233 -56.029  1.00  0.00     0.259 C 
BRANCH   4   5
HETATM    5  C   UNL     1     -41.983  55.168 -55.163  1.00  0.00    -0.023 A 
HETATM    6  C   UNL     1     -40.763  54.602 -55.578  1.00  0.00     0.010 A 
HETATM    7  C   UNL     1     -40.154  53.587 -54.837  1.00  0.00     0.007 A 
HETATM    8  C   UNL     1     -40.751  53.103 -53.670  1.00  0.00    -0.058 A 
HETATM    9  C   UNL     1     -41.962  53.660 -53.246  1.00  0.00     0.007 A 
HETATM   10  C   UNL     1     -42.573  54.676 -53.986  1.00  0.00     0.010 A 
BRANCH   8  11
HETATM   11  C   UNL     1     -40.079  52.022 -52.858  1.00  0.00     0.038 C 
BRANCH  11  12
HETATM   12  C   UNL     1     -39.339  51.023 -53.750  1.00  0.00     0.000 C 
HETATM   13  C   UNL     1     -40.291  49.994 -54.339  1.00  0.00     0.005 C 
ENDBRANCH  11  12
ENDBRANCH   8  11
ENDBRANCH   4   5
BRANCH   4  14
HETATM   14  C   UNL     1     -43.140  57.475 -55.312  1.00  0.00     0.017 A 
HETATM   15  S   UNL     1     -44.838  57.686 -55.068  1.00  0.00    -0.104 SA
HETATM   16  C   UNL     1     -44.620  59.196 -54.305  1.00  0.00     0.050 A 
HETATM   17  C   UNL     1     -43.296  59.565 -54.264  1.00  0.00     0.008 A 
HETATM   18  C   UNL     1     -42.448  58.588 -54.864  1.00  0.00     0.017 A 
ENDBRANCH   4  14
ENDBRANCH   1   4
BRANCH   1  19
HETATM   19  C   UNL     1     -43.224  55.149 -58.306  1.00  0.00     0.336 C 
BRANCH  19  20
HETATM   20  C   UNL     1     -43.919  55.989 -59.380  1.00  0.00     0.248 C 
HETATM   21  N   UNL     1     -45.243  56.273 -59.113  1.00  0.00    -0.326 N 
HETATM   22  H   UNL     1     -45.631  55.986 -58.220  1.00  0.00     0.169 HD
HETATM   23  O   UNL     1     -43.260  56.332 -60.359  1.00  0.00    -0.271 OA
BRANCH  21  24
HETATM   24  C   UNL     1     -46.150  56.960 -59.955  1.00  0.00     0.037 A 
HETATM   25  C   UNL     1     -47.035  56.318 -60.830  1.00  0.00     0.061 A 
HETATM   26  C   UNL     1     -47.877  57.118 -61.570  1.00  0.00     0.065 A 
HETATM   27  C   UNL     1     -47.865  58.507 -61.477  1.00  0.00     0.063 A 
HETATM   28  N   UNL     1     -48.853  56.761 -62.494  1.00  0.00    -0.306 N 
HETATM   29  N   UNL     1     -48.831  59.006 -62.342  1.00  0.00    -0.307 N 
HETATM   30  C   UNL     1     -47.010  59.170 -60.635  1.00  0.00     0.034 A 
HETATM   31  C   UNL     1     -49.459  57.928 -62.984  1.00  0.00     0.325 A 
HETATM   32  H   UNL     1     -49.075  59.968 -62.506  1.00  0.00     0.170 HD
HETATM   33  O   UNL     1     -50.356  57.992 -63.803  1.00  0.00    -0.247 OA
HETATM   34  C   UNL     1     -46.145  58.380 -59.866  1.00  0.00     0.032 A 
HETATM   35  H   UNL     1     -49.118  55.836 -62.788  1.00  0.00     0.170 HD
ENDBRANCH  21  24
ENDBRANCH  19  20
ENDBRANCH   1  19
TORSDOF 8
ENDMDL
MODEL 7
REMARK VINA RESULT:      -7.8      4.397      7.682
REMARK  8 active torsions:
REMARK  status: ('A' for Active; 'I' for Inactive)
REMARK    1  A    between atoms: C_2  and  C_3 
REMARK    2  A    between atoms: C_3  and  C_4 
REMARK    3  A    between atoms: C_7  and  C_8 
REMARK    4  A    between atoms: C_8  and  N_9 
REMARK    5  A    between atoms: C_8  and  C_26 
REMARK    6  A    between atoms: N_9  and  C_12 
REMARK    7  A    between atoms: C_12  and  C_13 
REMARK       I    between atoms: C_13  and  N_14 
REMARK    8  A    between atoms: N_14  and  C_15 
ROOT
HETATM    1  N   UNL     1     -40.649  53.257 -51.015  1.00  0.00    -0.054 N 
HETATM    2  H   UNL     1     -41.676  53.311 -50.970  1.00  0.00     0.278 HD
HETATM    3  H   UNL     1     -40.431  52.367 -50.547  1.00  0.00     0.278 HD
ENDROOT
BRANCH   1   4
HETATM    4  C   UNL     1     -40.242  53.180 -52.451  1.00  0.00     0.259 C 
BRANCH   4   5
HETATM    5  C   UNL     1     -41.126  54.071 -53.313  1.00  0.00    -0.023 A 
HETATM    6  C   UNL     1     -40.526  54.960 -54.223  1.00  0.00     0.010 A 
HETATM    7  C   UNL     1     -41.300  55.829 -54.995  1.00  0.00     0.007 A 
HETATM    8  C   UNL     1     -42.692  55.840 -54.870  1.00  0.00    -0.058 A 
HETATM    9  C   UNL     1     -43.300  54.959 -53.971  1.00  0.00     0.007 A 
HETATM   10  C   UNL     1     -42.527  54.089 -53.198  1.00  0.00     0.010 A 
BRANCH   8  11
HETATM   11  C   UNL     1     -43.529  56.764 -55.723  1.00  0.00     0.038 C 
BRANCH  11  12
HETATM   12  C   UNL     1     -43.291  58.233 -55.366  1.00  0.00     0.000 C 
HETATM   13  C   UNL     1     -42.522  58.953 -56.462  1.00  0.00     0.005 C 
ENDBRANCH  11  12
ENDBRANCH   8  11
ENDBRANCH   4   5
BRANCH   4  14
HETATM   14  C   UNL     1     -40.026  51.761 -52.946  1.00  0.00     0.017 A 
HETATM   15  S   UNL     1     -39.497  50.548 -51.833  1.00  0.00    -0.104 SA
HETATM   16  C   UNL     1     -39.449  49.347 -53.043  1.00  0.00     0.050 A 
HETATM   17  C   UNL     1     -39.785  49.849 -54.279  1.00  0.00     0.008 A 
HETATM   18  C   UNL     1     -40.093  51.239 -54.228  1.00  0.00     0.017 A 
ENDBRANCH   4  14
ENDBRANCH   1   4
BRANCH   1  19
HETATM   19  C   UNL     1     -40.101  54.363 -50.154  1.00  0.00     0.336 C 
BRANCH  19  20
HETATM   20  C   UNL     1     -41.112  55.511 -50.097  1.00  0.00     0.248 C 
HETATM   21  N   UNL     1     -40.784  56.598 -50.881  1.00  0.00    -0.326 N 
HETATM   22  H   UNL     1     -39.969  56.536 -51.482  1.00  0.00     0.169 HD
HETATM   23  O   UNL     1     -42.102  55.372 -49.381  1.00  0.00    -0.271 OA
BRANCH  21  24
HETATM   24  C   UNL     1     -41.487  57.824 -50.968  1.00  0.00     0.037 A 
HETATM   25  C   UNL     1     -42.708  57.973 -51.638  1.00  0.00     0.061 A 
HETATM   26  C   UNL     1     -43.288  59.222 -51.617  1.00  0.00     0.065 A 
HETATM   27  C   UNL     1     -42.705  60.308 -50.970  1.00  0.00     0.063 A 
HETATM   28  N   UNL     1     -44.485  59.653 -52.178  1.00  0.00    -0.306 N 
HETATM   29  N   UNL     1     -43.540  61.406 -51.132  1.00  0.00    -0.307 N 
HETATM   30  C   UNL     1     -41.509  60.202 -50.308  1.00  0.00     0.034 A 
HETATM   31  C   UNL     1     -44.658  61.013 -51.883  1.00  0.00     0.325 A 
HETATM   32  H   UNL     1     -43.407  62.341 -50.783  1.00  0.00     0.170 HD
HETATM   33  O   UNL     1     -45.597  61.714 -52.211  1.00  0.00    -0.247 OA
HETATM   34  C   UNL     1     -40.899  58.940 -50.309  1.00  0.00     0.032 A 
HETATM   35  H   UNL     1     -45.149  59.114 -52.708  1.00  0.00     0.170 HD
ENDBRANCH  21  24
ENDBRANCH  19  20
ENDBRANCH   1  19
TORSDOF 8
ENDMDL
MODEL 8
REMARK VINA RESULT:      -7.7      3.691      6.842
REMARK  8 active torsions:
REMARK  status: ('A' for Active; 'I' for Inactive)
REMARK    1  A    between atoms: C_2  and  C_3 
REMARK    2  A    between atoms: C_3  and  C_4 
REMARK    3  A    between atoms: C_7  and  C_8 
REMARK    4  A    between atoms: C_8  and  N_9 
REMARK    5  A    between atoms: C_8  and  C_26 
REMARK    6  A    between atoms: N_9  and  C_12 
REMARK    7  A    between atoms: C_12  and  C_13 
REMARK       I    between atoms: C_13  and  N_14 
REMARK    8  A    between atoms: N_14  and  C_15 
ROOT
HETATM    1  N   UNL     1     -44.705  57.065 -52.293  1.00  0.00    -0.054 N 
HETATM    2  H   UNL     1     -45.680  57.370 -52.166  1.00  0.00     0.278 HD
HETATM    3  H   UNL     1     -44.791  56.199 -52.843  1.00  0.00     0.278 HD
ENDROOT
BRANCH   1   4
HETATM    4  C   UNL     1     -43.986  58.099 -53.098  1.00  0.00     0.259 C 
BRANCH   4   5
HETATM    5  C   UNL     1     -43.724  57.599 -54.512  1.00  0.00    -0.023 A 
HETATM    6  C   UNL     1     -43.477  56.230 -54.721  1.00  0.00     0.010 A 
HETATM    7  C   UNL     1     -43.183  55.740 -55.995  1.00  0.00     0.007 A 
HETATM    8  C   UNL     1     -43.118  56.604 -57.091  1.00  0.00    -0.058 A 
HETATM    9  C   UNL     1     -43.365  57.967 -56.896  1.00  0.00     0.007 A 
HETATM   10  C   UNL     1     -43.659  58.459 -55.622  1.00  0.00     0.010 A 
BRANCH   8  11
HETATM   11  C   UNL     1     -42.823  56.068 -58.472  1.00  0.00     0.038 C 
BRANCH  11  12
HETATM   12  C   UNL     1     -44.095  55.943 -59.313  1.00  0.00     0.000 C 
HETATM   13  C   UNL     1     -44.416  54.489 -59.619  1.00  0.00     0.005 C 
ENDBRANCH  11  12
ENDBRANCH   8  11
ENDBRANCH   4   5
BRANCH   4  14
HETATM   14  C   UNL     1     -42.806  58.722 -52.372  1.00  0.00     0.017 A 
HETATM   15  S   UNL     1     -43.085  60.014 -51.258  1.00  0.00    -0.104 SA
HETATM   16  C   UNL     1     -41.421  60.185 -50.920  1.00  0.00     0.050 A 
HETATM   17  C   UNL     1     -40.655  59.315 -51.659  1.00  0.00     0.008 A 
HETATM   18  C   UNL     1     -41.447  58.491 -52.510  1.00  0.00     0.017 A 
ENDBRANCH   4  14
ENDBRANCH   1   4
BRANCH   1  19
HETATM   19  C   UNL     1     -44.171  56.686 -50.939  1.00  0.00     0.336 C 
BRANCH  19  20
HETATM   20  C   UNL     1     -43.548  55.290 -51.010  1.00  0.00     0.248 C 
HETATM   21  N   UNL     1     -42.331  55.241 -51.659  1.00  0.00    -0.326 N 
HETATM   22  H   UNL     1     -41.908  56.112 -51.964  1.00  0.00     0.169 HD
HETATM   23  O   UNL     1     -44.163  54.357 -50.496  1.00  0.00    -0.271 OA
BRANCH  21  24
HETATM   24  C   UNL     1     -41.565  54.084 -51.940  1.00  0.00     0.037 A 
HETATM   25  C   UNL     1     -41.637  53.380 -53.149  1.00  0.00     0.061 A 
HETATM   26  C   UNL     1     -40.813  52.286 -53.288  1.00  0.00     0.065 A 
HETATM   27  C   UNL     1     -39.939  51.873 -52.286  1.00  0.00     0.063 A 
HETATM   28  N   UNL     1     -40.663  51.421 -54.367  1.00  0.00    -0.306 N 
HETATM   29  N   UNL     1     -39.255  50.755 -52.744  1.00  0.00    -0.307 N 
HETATM   30  C   UNL     1     -39.844  52.534 -51.088  1.00  0.00     0.034 A 
HETATM   31  C   UNL     1     -39.694  50.460 -54.043  1.00  0.00     0.325 A 
HETATM   32  H   UNL     1     -38.552  50.220 -52.261  1.00  0.00     0.170 HD
HETATM   33  O   UNL     1     -39.308  49.551 -54.753  1.00  0.00    -0.247 OA
HETATM   34  C   UNL     1     -40.670  53.655 -50.922  1.00  0.00     0.032 A 
HETATM   35  H   UNL     1     -41.144  51.445 -55.250  1.00  0.00     0.170 HD
ENDBRANCH  21  24
ENDBRANCH  19  20
ENDBRANCH   1  19
TORSDOF 8
ENDMDL
MODEL 9
REMARK VINA RESULT:      -7.7      3.576      6.580
REMARK  8 active torsions:
REMARK  status: ('A' for Active; 'I' for Inactive)
REMARK    1  A    between atoms: C_2  and  C_3 
REMARK    2  A    between atoms: C_3  and  C_4 
REMARK    3  A    between atoms: C_7  and  C_8 
REMARK    4  A    between atoms: C_8  and  N_9 
REMARK    5  A    between atoms: C_8  and  C_26 
REMARK    6  A    between atoms: N_9  and  C_12 
REMARK    7  A    between atoms: C_12  and  C_13 
REMARK       I    between atoms: C_13  and  N_14 
REMARK    8  A    between atoms: N_14  and  C_15 
ROOT
HETATM    1  N   UNL     1     -41.122  54.068 -50.641  1.00  0.00    -0.054 N 
HETATM    2  H   UNL     1     -42.131  54.064 -50.845  1.00  0.00     0.278 HD
HETATM    3  H   UNL     1     -41.031  53.422 -49.846  1.00  0.00     0.278 HD
ENDROOT
BRANCH   1   4
HETATM    4  C   UNL     1     -40.399  53.510 -51.825  1.00  0.00     0.259 C 
BRANCH   4   5
HETATM    5  C   UNL     1     -41.076  53.930 -53.121  1.00  0.00    -0.023 A 
HETATM    6  C   UNL     1     -40.295  54.461 -54.164  1.00  0.00     0.010 A 
HETATM    7  C   UNL     1     -40.885  54.905 -55.348  1.00  0.00     0.007 A 
HETATM    8  C   UNL     1     -42.271  54.840 -55.520  1.00  0.00    -0.058 A 
HETATM    9  C   UNL     1     -43.057  54.311 -54.491  1.00  0.00     0.007 A 
HETATM   10  C   UNL     1     -42.469  53.867 -53.305  1.00  0.00     0.010 A 
BRANCH   8  11
HETATM   11  C   UNL     1     -42.904  55.299 -56.812  1.00  0.00     0.038 C 
BRANCH  11  12
HETATM   12  C   UNL     1     -43.125  56.813 -56.826  1.00  0.00     0.000 C 
HETATM   13  C   UNL     1     -42.506  57.452 -58.059  1.00  0.00     0.005 C 
ENDBRANCH  11  12
ENDBRANCH   8  11
ENDBRANCH   4   5
BRANCH   4  14
HETATM   14  C   UNL     1     -40.057  52.036 -51.687  1.00  0.00     0.017 A 
HETATM   15  S   UNL     1     -39.689  51.117 -53.104  1.00  0.00    -0.104 SA
HETATM   16  C   UNL     1     -39.476  49.680 -52.211  1.00  0.00     0.050 A 
HETATM   17  C   UNL     1     -39.715  49.867 -50.870  1.00  0.00     0.008 A 
HETATM   18  C   UNL     1     -40.072  51.214 -50.572  1.00  0.00     0.017 A 
ENDBRANCH   4  14
ENDBRANCH   1   4
BRANCH   1  19
HETATM   19  C   UNL     1     -40.767  55.444 -50.145  1.00  0.00     0.336 C 
BRANCH  19  20
HETATM   20  C   UNL     1     -41.608  56.485 -50.887  1.00  0.00     0.248 C 
HETATM   21  N   UNL     1     -40.873  57.398 -51.615  1.00  0.00    -0.326 N 
HETATM   22  H   UNL     1     -39.868  57.276 -51.674  1.00  0.00     0.169 HD
HETATM   23  O   UNL     1     -42.832  56.421 -50.778  1.00  0.00    -0.271 OA
BRANCH  21  24
HETATM   24  C   UNL     1     -41.375  58.510 -52.334  1.00  0.00     0.037 A 
HETATM   25  C   UNL     1     -41.400  58.582 -53.733  1.00  0.00     0.061 A 
HETATM   26  C   UNL     1     -41.941  59.718 -54.293  1.00  0.00     0.065 A 
HETATM   27  C   UNL     1     -42.442  60.766 -53.527  1.00  0.00     0.063 A 
HETATM   28  N   UNL     1     -42.107  60.052 -55.633  1.00  0.00    -0.306 N 
HETATM   29  N   UNL     1     -42.914  61.745 -54.391  1.00  0.00    -0.307 N 
HETATM   30  C   UNL     1     -42.430  60.734 -52.156  1.00  0.00     0.034 A 
HETATM   31  C   UNL     1     -42.715  61.314 -55.711  1.00  0.00     0.325 A 
HETATM   32  H   UNL     1     -43.341  62.626 -54.154  1.00  0.00     0.170 HD
HETATM   33  O   UNL     1     -43.013  61.914 -56.726  1.00  0.00    -0.247 OA
HETATM   34  C   UNL     1     -41.889  59.586 -51.559  1.00  0.00     0.032 A 
HETATM   35  H   UNL     1     -41.854  59.509 -56.442  1.00  0.00     0.170 HD
ENDBRANCH  21  24
ENDBRANCH  19  20
ENDBRANCH   1  19
TORSDOF 8
ENDMDL
MODEL 10
REMARK VINA RESULT:      -7.7      4.144      8.929
REMARK  8 active torsions:
REMARK  status: ('A' for Active; 'I' for Inactive)
REMARK    1  A    between atoms: C_2  and  C_3 
REMARK    2  A    between atoms: C_3  and  C_4 
REMARK    3  A    between atoms: C_7  and  C_8 
REMARK    4  A    between atoms: C_8  and  N_9 
REMARK    5  A    between atoms: C_8  and  C_26 
REMARK    6  A    between atoms: N_9  and  C_12 
REMARK    7  A    between atoms: C_12  and  C_13 
REMARK       I    between atoms: C_13  and  N_14 
REMARK    8  A    between atoms: N_14  and  C_15 
ROOT
HETATM    1  N   UNL     1     -42.311  56.098 -58.477  1.00  0.00    -0.054 N 
HETATM    2  H   UNL     1     -41.850  55.323 -58.973  1.00  0.00     0.278 HD
HETATM    3  H   UNL     1     -41.534  56.583 -58.008  1.00  0.00     0.278 HD
ENDROOT
BRANCH   1   4
HETATM    4  C   UNL     1     -42.930  57.007 -59.489  1.00  0.00     0.259 C 
BRANCH   4   5
HETATM    5  C   UNL     1     -42.442  58.437 -59.302  1.00  0.00    -0.023 A 
HETATM    6  C   UNL     1     -42.292  59.265 -60.430  1.00  0.00     0.010 A 
HETATM    7  C   UNL     1     -41.799  60.565 -60.306  1.00  0.00     0.007 A 
HETATM    8  C   UNL     1     -41.435  61.070 -59.054  1.00  0.00    -0.058 A 
HETATM    9  C   UNL     1     -41.583  60.258 -57.926  1.00  0.00     0.007 A 
HETATM   10  C   UNL     1     -42.075  58.956 -58.048  1.00  0.00     0.010 A 
BRANCH   8  11
HETATM   11  C   UNL     1     -40.924  62.485 -58.919  1.00  0.00     0.038 C 
BRANCH  11  12
HETATM   12  C   UNL     1     -39.946  62.843 -60.039  1.00  0.00     0.000 C 
HETATM   13  C   UNL     1     -38.871  63.801 -59.553  1.00  0.00     0.005 C 
ENDBRANCH  11  12
ENDBRANCH   8  11
ENDBRANCH   4   5
BRANCH   4  14
HETATM   14  C   UNL     1     -44.429  56.818 -59.639  1.00  0.00     0.017 A 
HETATM   15  S   UNL     1     -45.025  55.578 -60.685  1.00  0.00    -0.104 SA
HETATM   16  C   UNL     1     -46.651  55.992 -60.377  1.00  0.00     0.050 A 
HETATM   17  C   UNL     1     -46.756  57.072 -59.532  1.00  0.00     0.008 A 
HETATM   18  C   UNL     1     -45.480  57.562 -59.127  1.00  0.00     0.017 A 
ENDBRANCH   4  14
ENDBRANCH   1   4
BRANCH   1  19
HETATM   19  C   UNL     1     -43.177  55.495 -57.404  1.00  0.00     0.336 C 
BRANCH  19  20
HETATM   20  C   UNL     1     -42.406  55.470 -56.082  1.00  0.00     0.248 C 
HETATM   21  N   UNL     1     -42.509  54.285 -55.384  1.00  0.00    -0.326 N 
HETATM   22  H   UNL     1     -43.002  53.509 -55.814  1.00  0.00     0.169 HD
HETATM   23  O   UNL     1     -41.777  56.478 -55.763  1.00  0.00    -0.271 OA
BRANCH  21  24
HETATM   24  C   UNL     1     -41.969  54.003 -54.106  1.00  0.00     0.037 A 
HETATM   25  C   UNL     1     -42.437  54.585 -52.921  1.00  0.00     0.061 A 
HETATM   26  C   UNL     1     -41.829  54.195 -51.748  1.00  0.00     0.065 A 
HETATM   27  C   UNL     1     -40.790  53.269 -51.714  1.00  0.00     0.063 A 
HETATM   28  N   UNL     1     -42.091  54.590 -50.440  1.00  0.00    -0.306 N 
HETATM   29  N   UNL     1     -40.412  53.095 -50.389  1.00  0.00    -0.307 N 
HETATM   30  C   UNL     1     -40.304  52.682 -52.853  1.00  0.00     0.034 A 
HETATM   31  C   UNL     1     -41.216  53.912 -49.580  1.00  0.00     0.325 A 
HETATM   32  H   UNL     1     -39.692  52.491 -50.026  1.00  0.00     0.170 HD
HETATM   33  O   UNL     1     -41.167  54.010 -48.369  1.00  0.00    -0.247 OA
HETATM   34  C   UNL     1     -40.907  53.058 -54.061  1.00  0.00     0.032 A 
HETATM   35  H   UNL     1     -42.785  55.245 -50.119  1.00  0.00     0.170 HD
ENDBRANCH  21  24
ENDBRANCH  19  20
ENDBRANCH   1  19
TORSDOF 8
ENDMDL
