MODEL 1
REMARK VINA RESULT:      -8.4      0.000      0.000
REMARK  7 active torsions:
REMARK  status: ('A' for Active; 'I' for Inactive)
REMARK    1  A    between atoms: O_2  and  C_3 
REMARK    2  A    between atoms: C_6  and  N_7 
REMARK       I    between atoms: N_7  and  C_8 
REMARK    3  A    between atoms: C_8  and  C_9 
REMARK    4  A    between atoms: C_9  and  C_10 
REMARK    5  A    between atoms: C_10  and  N_11 
REMARK    6  A    between atoms: C_10  and  C_20 
REMARK       I    between atoms: N_11  and  C_12 
REMARK    7  A    between atoms: C_12  and  C_13 
ROOT
HETATM    1  C   UNL     1     -42.755  54.424 -53.349  1.00  0.00     0.126 C 
ENDROOT
BRANCH   1   2
HETATM    2  C   UNL     1     -43.122  54.323 -54.827  1.00  0.00     0.133 C 
BRANCH   2   3
HETATM    3  C   UNL     1     -42.538  55.366 -55.768  1.00  0.00     0.224 C 
HETATM    4  N   UNL     1     -43.316  55.748 -56.840  1.00  0.00    -0.326 N 
HETATM    5  H   UNL     1     -44.314  55.571 -56.803  1.00  0.00     0.169 HD
HETATM    6  O   UNL     1     -41.384  55.747 -55.574  1.00  0.00    -0.273 OA
BRANCH   4   7
HETATM    7  C   UNL     1     -42.875  56.490 -57.961  1.00  0.00     0.052 A 
HETATM    8  C   UNL     1     -42.795  56.000 -59.264  1.00  0.00     0.149 A 
HETATM    9  N   UNL     1     -42.419  56.740 -60.341  1.00  0.00    -0.235 NA
HETATM   10  C   UNL     1     -42.101  58.028 -60.109  1.00  0.00     0.163 A 
HETATM   11  C   UNL     1     -42.135  58.609 -58.853  1.00  0.00     0.060 A 
HETATM   12  C   UNL     1     -42.533  57.829 -57.767  1.00  0.00     0.035 A 
BRANCH  10  13
HETATM   13  O   UNL     1     -41.720  58.842 -61.156  1.00  0.00    -0.339 OA
HETATM   14  C   UNL     1     -42.137  60.194 -60.986  1.00  0.00     0.211 C 
ENDBRANCH  10  13
ENDBRANCH   4   7
ENDBRANCH   2   3
ENDBRANCH   1   2
BRANCH   1  15
HETATM   15  N   UNL     1     -42.418  55.786 -52.965  1.00  0.00    -0.348 N 
HETATM   16  C   UNL     1     -42.987  56.370 -51.853  1.00  0.00     0.252 C 
HETATM   17  O   UNL     1     -43.968  55.919 -51.273  1.00  0.00    -0.268 OA
HETATM   18  H   UNL     1     -41.512  56.134 -53.254  1.00  0.00     0.163 HD
BRANCH  16  19
HETATM   19  C   UNL     1     -42.303  57.590 -51.363  1.00  0.00     0.032 A 
HETATM   20  C   UNL     1     -42.976  58.818 -51.309  1.00  0.00     0.017 A 
HETATM   21  C   UNL     1     -42.300  59.957 -50.873  1.00  0.00     0.001 A 
HETATM   22  C   UNL     1     -40.958  59.872 -50.496  1.00  0.00     0.000 A 
HETATM   23  C   UNL     1     -40.292  58.647 -50.541  1.00  0.00     0.001 A 
HETATM   24  C   UNL     1     -40.966  57.501 -50.968  1.00  0.00     0.017 A 
ENDBRANCH  16  19
ENDBRANCH   1  15
BRANCH   1  25
HETATM   25  C   UNL     1     -41.596  53.499 -52.998  1.00  0.00    -0.035 A 
HETATM   26  C   UNL     1     -41.087  53.482 -51.690  1.00  0.00     0.009 A 
HETATM   27  C   UNL     1     -40.028  52.640 -51.347  1.00  0.00     0.001 A 
HETATM   28  C   UNL     1     -39.456  51.810 -52.309  1.00  0.00     0.000 A 
HETATM   29  C   UNL     1     -39.941  51.823 -53.614  1.00  0.00     0.001 A 
HETATM   30  C   UNL     1     -41.002  52.662 -53.958  1.00  0.00     0.009 A 
ENDBRANCH   1  25
TORSDOF 7
ENDMDL
MODEL 2
REMARK VINA RESULT:      -8.2      1.731      4.922
REMARK  7 active torsions:
REMARK  status: ('A' for Active; 'I' for Inactive)
REMARK    1  A    between atoms: O_2  and  C_3 
REMARK    2  A    between atoms: C_6  and  N_7 
REMARK       I    between atoms: N_7  and  C_8 
REMARK    3  A    between atoms: C_8  and  C_9 
REMARK    4  A    between atoms: C_9  and  C_10 
REMARK    5  A    between atoms: C_10  and  N_11 
REMARK    6  A    between atoms: C_10  and  C_20 
REMARK       I    between atoms: N_11  and  C_12 
REMARK    7  A    between atoms: C_12  and  C_13 
ROOT
HETATM    1  C   UNL     1     -41.990  55.517 -54.016  1.00  0.00     0.126 C 
ENDROOT
BRANCH   1   2
HETATM    2  C   UNL     1     -43.463  55.763 -54.334  1.00  0.00     0.133 C 
BRANCH   2   3
HETATM    3  C   UNL     1     -43.786  56.719 -55.471  1.00  0.00     0.224 C 
HETATM    4  N   UNL     1     -43.552  56.269 -56.753  1.00  0.00    -0.326 N 
HETATM    5  H   UNL     1     -43.474  55.270 -56.910  1.00  0.00     0.169 HD
HETATM    6  O   UNL     1     -44.154  57.859 -55.189  1.00  0.00    -0.273 OA
BRANCH   4   7
HETATM    7  C   UNL     1     -43.532  57.068 -57.921  1.00  0.00     0.052 A 
HETATM    8  C   UNL     1     -44.621  57.281 -58.764  1.00  0.00     0.149 A 
HETATM    9  N   UNL     1     -44.602  58.093 -59.854  1.00  0.00    -0.235 NA
HETATM   10  C   UNL     1     -43.440  58.719 -60.122  1.00  0.00     0.163 A 
HETATM   11  C   UNL     1     -42.297  58.568 -59.356  1.00  0.00     0.060 A 
HETATM   12  C   UNL     1     -42.347  57.734 -58.238  1.00  0.00     0.035 A 
BRANCH  10  13
HETATM   13  O   UNL     1     -43.349  59.567 -61.207  1.00  0.00    -0.339 OA
HETATM   14  C   UNL     1     -42.064  60.171 -61.331  1.00  0.00     0.211 C 
ENDBRANCH  10  13
ENDBRANCH   4   7
ENDBRANCH   2   3
ENDBRANCH   1   2
BRANCH   1  15
HETATM   15  N   UNL     1     -41.719  54.114 -53.747  1.00  0.00    -0.348 N 
HETATM   16  C   UNL     1     -40.590  53.501 -54.248  1.00  0.00     0.252 C 
HETATM   17  O   UNL     1     -39.889  53.981 -55.130  1.00  0.00    -0.268 OA
HETATM   18  H   UNL     1     -42.118  53.723 -52.903  1.00  0.00     0.163 HD
BRANCH  16  19
HETATM   19  C   UNL     1     -40.242  52.208 -53.613  1.00  0.00     0.032 A 
HETATM   20  C   UNL     1     -39.905  52.142 -52.256  1.00  0.00     0.017 A 
HETATM   21  C   UNL     1     -39.551  50.916 -51.690  1.00  0.00     0.001 A 
HETATM   22  C   UNL     1     -39.531  49.763 -52.478  1.00  0.00     0.000 A 
HETATM   23  C   UNL     1     -39.877  49.829 -53.828  1.00  0.00     0.001 A 
HETATM   24  C   UNL     1     -40.240  51.051 -54.397  1.00  0.00     0.017 A 
ENDBRANCH  16  19
ENDBRANCH   1  15
BRANCH   1  25
HETATM   25  C   UNL     1     -41.528  56.357 -52.832  1.00  0.00    -0.035 A 
HETATM   26  C   UNL     1     -41.544  55.810 -51.539  1.00  0.00     0.009 A 
HETATM   27  C   UNL     1     -41.122  56.562 -50.441  1.00  0.00     0.001 A 
HETATM   28  C   UNL     1     -40.685  57.872 -50.619  1.00  0.00     0.000 A 
HETATM   29  C   UNL     1     -40.673  58.434 -51.893  1.00  0.00     0.001 A 
HETATM   30  C   UNL     1     -41.092  57.683 -52.992  1.00  0.00     0.009 A 
ENDBRANCH   1  25
TORSDOF 7
ENDMDL
MODEL 3
REMARK VINA RESULT:      -8.2      1.911      2.459
REMARK  7 active torsions:
REMARK  status: ('A' for Active; 'I' for Inactive)
REMARK    1  A    between atoms: O_2  and  C_3 
REMARK    2  A    between atoms: C_6  and  N_7 
REMARK       I    between atoms: N_7  and  C_8 
REMARK    3  A    between atoms: C_8  and  C_9 
REMARK    4  A    between atoms: C_9  and  C_10 
REMARK    5  A    between atoms: C_10  and  N_11 
REMARK    6  A    between atoms: C_10  and  C_20 
REMARK       I    between atoms: N_11  and  C_12 
REMARK    7  A    between atoms: C_12  and  C_13 
ROOT
HETATM    1  C   UNL     1     -41.606  54.788 -53.815  1.00  0.00     0.126 C 
ENDROOT
BRANCH   1   2
HETATM    2  C   UNL     1     -41.279  54.839 -55.305  1.00  0.00     0.133 C 
BRANCH   2   3
HETATM    3  C   UNL     1     -42.447  54.901 -56.278  1.00  0.00     0.224 C 
HETATM    4  N   UNL     1     -42.339  55.783 -57.332  1.00  0.00    -0.326 N 
HETATM    5  H   UNL     1     -41.417  56.117 -57.593  1.00  0.00     0.169 HD
HETATM    6  O   UNL     1     -43.449  54.231 -56.031  1.00  0.00    -0.273 OA
BRANCH   4   7
HETATM    7  C   UNL     1     -43.391  56.186 -58.186  1.00  0.00     0.052 A 
HETATM    8  C   UNL     1     -44.242  57.265 -57.955  1.00  0.00     0.149 A 
HETATM    9  N   UNL     1     -45.216  57.673 -58.810  1.00  0.00    -0.235 NA
HETATM   10  C   UNL     1     -45.356  56.968 -59.949  1.00  0.00     0.163 A 
HETATM   11  C   UNL     1     -44.572  55.873 -60.271  1.00  0.00     0.060 A 
HETATM   12  C   UNL     1     -43.574  55.481 -59.377  1.00  0.00     0.035 A 
BRANCH  10  13
HETATM   13  O   UNL     1     -46.318  57.330 -60.871  1.00  0.00    -0.339 OA
HETATM   14  C   UNL     1     -47.397  56.402 -60.938  1.00  0.00     0.211 C 
ENDBRANCH  10  13
ENDBRANCH   4   7
ENDBRANCH   2   3
ENDBRANCH   1   2
BRANCH   1  15
HETATM   15  N   UNL     1     -41.332  56.055 -53.155  1.00  0.00    -0.348 N 
HETATM   16  C   UNL     1     -42.334  56.980 -52.953  1.00  0.00     0.252 C 
HETATM   17  O   UNL     1     -43.424  56.937 -53.511  1.00  0.00    -0.268 OA
HETATM   18  H   UNL     1     -40.548  56.079 -52.515  1.00  0.00     0.163 HD
BRANCH  16  19
HETATM   19  C   UNL     1     -42.021  58.041 -51.965  1.00  0.00     0.032 A 
HETATM   20  C   UNL     1     -42.952  59.045 -51.671  1.00  0.00     0.017 A 
HETATM   21  C   UNL     1     -42.621  60.048 -50.760  1.00  0.00     0.001 A 
HETATM   22  C   UNL     1     -41.366  60.050 -50.148  1.00  0.00     0.000 A 
HETATM   23  C   UNL     1     -40.443  59.043 -50.435  1.00  0.00     0.001 A 
HETATM   24  C   UNL     1     -40.772  58.031 -51.338  1.00  0.00     0.017 A 
ENDBRANCH  16  19
ENDBRANCH   1  15
BRANCH   1  25
HETATM   25  C   UNL     1     -40.836  53.676 -53.113  1.00  0.00    -0.035 A 
HETATM   26  C   UNL     1     -40.337  52.595 -53.856  1.00  0.00     0.009 A 
HETATM   27  C   UNL     1     -39.626  51.568 -53.232  1.00  0.00     0.001 A 
HETATM   28  C   UNL     1     -39.412  51.604 -51.856  1.00  0.00     0.000 A 
HETATM   29  C   UNL     1     -39.910  52.663 -51.102  1.00  0.00     0.001 A 
HETATM   30  C   UNL     1     -40.618  53.692 -51.725  1.00  0.00     0.009 A 
ENDBRANCH   1  25
TORSDOF 7
ENDMDL
MODEL 4
REMARK VINA RESULT:      -7.8      2.522      7.566
REMARK  7 active torsions:
REMARK  status: ('A' for Active; 'I' for Inactive)
REMARK    1  A    between atoms: O_2  and  C_3 
REMARK    2  A    between atoms: C_6  and  N_7 
REMARK       I    between atoms: N_7  and  C_8 
REMARK    3  A    between atoms: C_8  and  C_9 
REMARK    4  A    between atoms: C_9  and  C_10 
REMARK    5  A    between atoms: C_10  and  N_11 
REMARK    6  A    between atoms: C_10  and  C_20 
REMARK       I    between atoms: N_11  and  C_12 
REMARK    7  A    between atoms: C_12  and  C_13 
ROOT
HETATM    1  C   UNL     1     -42.571  57.164 -55.477  1.00  0.00     0.126 C 
ENDROOT
BRANCH   1   2
HETATM    2  C   UNL     1     -42.122  58.574 -55.103  1.00  0.00     0.133 C 
BRANCH   2   3
HETATM    3  C   UNL     1     -42.963  59.332 -54.089  1.00  0.00     0.224 C 
HETATM    4  N   UNL     1     -42.907  58.902 -52.781  1.00  0.00    -0.326 N 
HETATM    5  H   UNL     1     -42.120  58.331 -52.491  1.00  0.00     0.169 HD
HETATM    6  O   UNL     1     -43.706  60.225 -54.497  1.00  0.00    -0.273 OA
BRANCH   4   7
HETATM    7  C   UNL     1     -43.790  59.285 -51.743  1.00  0.00     0.052 A 
HETATM    8  C   UNL     1     -44.940  58.590 -51.374  1.00  0.00     0.149 A 
HETATM    9  N   UNL     1     -45.752  58.941 -50.342  1.00  0.00    -0.235 NA
HETATM   10  C   UNL     1     -45.405  60.041 -49.646  1.00  0.00     0.163 A 
HETATM   11  C   UNL     1     -44.290  60.809 -49.936  1.00  0.00     0.060 A 
HETATM   12  C   UNL     1     -43.470  60.420 -50.998  1.00  0.00     0.035 A 
BRANCH  10  13
HETATM   13  O   UNL     1     -46.175  60.452 -48.577  1.00  0.00    -0.339 OA
HETATM   14  C   UNL     1     -45.406  61.046 -47.536  1.00  0.00     0.211 C 
ENDBRANCH  10  13
ENDBRANCH   4   7
ENDBRANCH   2   3
ENDBRANCH   1   2
BRANCH   1  15
HETATM   15  N   UNL     1     -41.716  56.147 -54.885  1.00  0.00    -0.348 N 
HETATM   16  C   UNL     1     -42.100  55.475 -53.743  1.00  0.00     0.252 C 
HETATM   17  O   UNL     1     -43.019  55.836 -53.017  1.00  0.00    -0.268 OA
HETATM   18  H   UNL     1     -41.073  55.670 -55.504  1.00  0.00     0.163 HD
BRANCH  16  19
HETATM   19  C   UNL     1     -41.340  54.236 -53.456  1.00  0.00     0.032 A 
HETATM   20  C   UNL     1     -40.986  53.898 -52.143  1.00  0.00     0.017 A 
HETATM   21  C   UNL     1     -40.244  52.741 -51.904  1.00  0.00     0.001 A 
HETATM   22  C   UNL     1     -39.854  51.928 -52.970  1.00  0.00     0.000 A 
HETATM   23  C   UNL     1     -40.215  52.261 -54.277  1.00  0.00     0.001 A 
HETATM   24  C   UNL     1     -40.966  53.412 -54.521  1.00  0.00     0.017 A 
ENDBRANCH  16  19
ENDBRANCH   1  15
BRANCH   1  25
HETATM   25  C   UNL     1     -42.609  56.973 -56.988  1.00  0.00    -0.035 A 
HETATM   26  C   UNL     1     -42.190  58.011 -57.835  1.00  0.00     0.009 A 
HETATM   27  C   UNL     1     -42.214  57.855 -59.222  1.00  0.00     0.001 A 
HETATM   28  C   UNL     1     -42.666  56.662 -59.782  1.00  0.00     0.000 A 
HETATM   29  C   UNL     1     -43.097  55.626 -58.957  1.00  0.00     0.001 A 
HETATM   30  C   UNL     1     -43.070  55.780 -57.570  1.00  0.00     0.009 A 
ENDBRANCH   1  25
TORSDOF 7
ENDMDL
MODEL 5
REMARK VINA RESULT:      -7.8      1.547      2.234
REMARK  7 active torsions:
REMARK  status: ('A' for Active; 'I' for Inactive)
REMARK    1  A    between atoms: O_2  and  C_3 
REMARK    2  A    between atoms: C_6  and  N_7 
REMARK       I    between atoms: N_7  and  C_8 
REMARK    3  A    between atoms: C_8  and  C_9 
REMARK    4  A    between atoms: C_9  and  C_10 
REMARK    5  A    between atoms: C_10  and  N_11 
REMARK    6  A    between atoms: C_10  and  C_20 
REMARK       I    between atoms: N_11  and  C_12 
REMARK    7  A    between atoms: C_12  and  C_13 
ROOT
HETATM    1  C   UNL     1     -42.976  54.784 -53.262  1.00  0.00     0.126 C 
ENDROOT
BRANCH   1   2
HETATM    2  C   UNL     1     -43.592  54.814 -54.658  1.00  0.00     0.133 C 
BRANCH   2   3
HETATM    3  C   UNL     1     -43.656  56.156 -55.369  1.00  0.00     0.224 C 
HETATM    4  N   UNL     1     -42.656  56.433 -56.277  1.00  0.00    -0.326 N 
HETATM    5  H   UNL     1     -42.116  55.661 -56.655  1.00  0.00     0.169 HD
HETATM    6  O   UNL     1     -44.537  56.950 -55.040  1.00  0.00    -0.273 OA
BRANCH   4   7
HETATM    7  C   UNL     1     -42.378  57.699 -56.843  1.00  0.00     0.052 A 
HETATM    8  C   UNL     1     -42.083  58.853 -56.119  1.00  0.00     0.149 A 
HETATM    9  N   UNL     1     -41.767  60.051 -56.678  1.00  0.00    -0.235 NA
HETATM   10  C   UNL     1     -41.751  60.106 -58.024  1.00  0.00     0.163 A 
HETATM   11  C   UNL     1     -42.040  59.023 -58.836  1.00  0.00     0.060 A 
HETATM   12  C   UNL     1     -42.353  57.803 -58.235  1.00  0.00     0.035 A 
BRANCH  10  13
HETATM   13  O   UNL     1     -41.428  61.287 -58.661  1.00  0.00    -0.339 OA
HETATM   14  C   UNL     1     -42.562  61.938 -59.227  1.00  0.00     0.211 C 
ENDBRANCH  10  13
ENDBRANCH   4   7
ENDBRANCH   2   3
ENDBRANCH   1   2
BRANCH   1  15
HETATM   15  N   UNL     1     -42.491  56.094 -52.855  1.00  0.00    -0.348 N 
HETATM   16  C   UNL     1     -42.926  56.678 -51.684  1.00  0.00     0.252 C 
HETATM   17  O   UNL     1     -43.900  56.291 -51.050  1.00  0.00    -0.268 OA
HETATM   18  H   UNL     1     -41.580  56.373 -53.197  1.00  0.00     0.163 HD
BRANCH  16  19
HETATM   19  C   UNL     1     -42.101  57.812 -51.202  1.00  0.00     0.032 A 
HETATM   20  C   UNL     1     -40.758  57.625 -50.852  1.00  0.00     0.017 A 
HETATM   21  C   UNL     1     -40.013  58.702 -50.372  1.00  0.00     0.001 A 
HETATM   22  C   UNL     1     -40.607  59.959 -50.239  1.00  0.00     0.000 A 
HETATM   23  C   UNL     1     -41.943  60.146 -50.597  1.00  0.00     0.001 A 
HETATM   24  C   UNL     1     -42.691  59.074 -51.087  1.00  0.00     0.017 A 
ENDBRANCH  16  19
ENDBRANCH   1  15
BRANCH   1  25
HETATM   25  C   UNL     1     -41.837  53.775 -53.176  1.00  0.00    -0.035 A 
HETATM   26  C   UNL     1     -41.492  53.013 -54.303  1.00  0.00     0.009 A 
HETATM   27  C   UNL     1     -40.450  52.085 -54.245  1.00  0.00     0.001 A 
HETATM   28  C   UNL     1     -39.744  51.901 -53.059  1.00  0.00     0.000 A 
HETATM   29  C   UNL     1     -40.081  52.641 -51.928  1.00  0.00     0.001 A 
HETATM   30  C   UNL     1     -41.121  53.571 -51.984  1.00  0.00     0.009 A 
ENDBRANCH   1  25
TORSDOF 7
ENDMDL
MODEL 6
REMARK VINA RESULT:      -7.5      2.855      7.442
REMARK  7 active torsions:
REMARK  status: ('A' for Active; 'I' for Inactive)
REMARK    1  A    between atoms: O_2  and  C_3 
REMARK    2  A    between atoms: C_6  and  N_7 
REMARK       I    between atoms: N_7  and  C_8 
REMARK    3  A    between atoms: C_8  and  C_9 
REMARK    4  A    between atoms: C_9  and  C_10 
REMARK    5  A    between atoms: C_10  and  N_11 
REMARK    6  A    between atoms: C_10  and  C_20 
REMARK       I    between atoms: N_11  and  C_12 
REMARK    7  A    between atoms: C_12  and  C_13 
ROOT
HETATM    1  C   UNL     1     -41.425  56.072 -54.060  1.00  0.00     0.126 C 
ENDROOT
BRANCH   1   2
HETATM    2  C   UNL     1     -40.487  57.240 -53.769  1.00  0.00     0.133 C 
BRANCH   2   3
HETATM    3  C   UNL     1     -41.081  58.465 -53.092  1.00  0.00     0.224 C 
HETATM    4  N   UNL     1     -41.964  58.243 -52.057  1.00  0.00    -0.326 N 
HETATM    5  H   UNL     1     -41.955  57.339 -51.597  1.00  0.00     0.169 HD
HETATM    6  O   UNL     1     -40.812  59.575 -53.551  1.00  0.00    -0.273 OA
BRANCH   4   7
HETATM    7  C   UNL     1     -42.817  59.209 -51.473  1.00  0.00     0.052 A 
HETATM    8  C   UNL     1     -44.202  59.247 -51.622  1.00  0.00     0.149 A 
HETATM    9  N   UNL     1     -45.016  60.151 -51.014  1.00  0.00    -0.235 NA
HETATM   10  C   UNL     1     -44.421  61.065 -50.223  1.00  0.00     0.163 A 
HETATM   11  C   UNL     1     -43.053  61.122 -50.016  1.00  0.00     0.060 A 
HETATM   12  C   UNL     1     -42.243  60.177 -50.648  1.00  0.00     0.035 A 
BRANCH  10  13
HETATM   13  O   UNL     1     -45.184  62.007 -49.564  1.00  0.00    -0.339 OA
HETATM   14  C   UNL     1     -44.398  62.953 -48.847  1.00  0.00     0.211 C 
ENDBRANCH  10  13
ENDBRANCH   4   7
ENDBRANCH   2   3
ENDBRANCH   1   2
BRANCH   1  15
HETATM   15  N   UNL     1     -40.739  54.792 -53.984  1.00  0.00    -0.348 N 
HETATM   16  C   UNL     1     -40.722  54.064 -52.813  1.00  0.00     0.252 C 
HETATM   17  O   UNL     1     -41.040  54.522 -51.722  1.00  0.00    -0.268 OA
HETATM   18  H   UNL     1     -40.635  54.275 -54.848  1.00  0.00     0.163 HD
BRANCH  16  19
HETATM   19  C   UNL     1     -40.323  52.644 -52.959  1.00  0.00     0.032 A 
HETATM   20  C   UNL     1     -40.447  51.987 -54.190  1.00  0.00     0.017 A 
HETATM   21  C   UNL     1     -40.093  50.642 -54.293  1.00  0.00     0.001 A 
HETATM   22  C   UNL     1     -39.620  49.956 -53.172  1.00  0.00     0.000 A 
HETATM   23  C   UNL     1     -39.488  50.615 -51.949  1.00  0.00     0.001 A 
HETATM   24  C   UNL     1     -39.832  51.963 -51.842  1.00  0.00     0.017 A 
ENDBRANCH  16  19
ENDBRANCH   1  15
BRANCH   1  25
HETATM   25  C   UNL     1     -42.083  56.211 -55.428  1.00  0.00    -0.035 A 
HETATM   26  C   UNL     1     -42.340  57.488 -55.953  1.00  0.00     0.009 A 
HETATM   27  C   UNL     1     -42.939  57.637 -57.205  1.00  0.00     0.001 A 
HETATM   28  C   UNL     1     -43.296  56.512 -57.946  1.00  0.00     0.000 A 
HETATM   29  C   UNL     1     -43.059  55.239 -57.435  1.00  0.00     0.001 A 
HETATM   30  C   UNL     1     -42.458  55.088 -56.184  1.00  0.00     0.009 A 
ENDBRANCH   1  25
TORSDOF 7
ENDMDL
MODEL 7
REMARK VINA RESULT:      -7.5     15.912     18.598
REMARK  7 active torsions:
REMARK  status: ('A' for Active; 'I' for Inactive)
REMARK    1  A    between atoms: O_2  and  C_3 
REMARK    2  A    between atoms: C_6  and  N_7 
REMARK       I    between atoms: N_7  and  C_8 
REMARK    3  A    between atoms: C_8  and  C_9 
REMARK    4  A    between atoms: C_9  and  C_10 
REMARK    5  A    between atoms: C_10  and  N_11 
REMARK    6  A    between atoms: C_10  and  C_20 
REMARK       I    between atoms: N_11  and  C_12 
REMARK    7  A    between atoms: C_12  and  C_13 
ROOT
HETATM    1  C   UNL     1     -36.106  40.108 -51.669  1.00  0.00     0.126 C 
ENDROOT
BRANCH   1   2
HETATM    2  C   UNL     1     -36.923  38.924 -51.159  1.00  0.00     0.133 C 
BRANCH   2   3
HETATM    3  C   UNL     1     -38.432  39.091 -51.088  1.00  0.00     0.224 C 
HETATM    4  N   UNL     1     -39.098  38.373 -50.117  1.00  0.00    -0.326 N 
HETATM    5  H   UNL     1     -38.569  38.019 -49.327  1.00  0.00     0.169 HD
HETATM    6  O   UNL     1     -38.984  39.783 -51.943  1.00  0.00    -0.273 OA
BRANCH   4   7
HETATM    7  C   UNL     1     -40.497  38.178 -50.044  1.00  0.00     0.052 A 
HETATM    8  C   UNL     1     -41.330  38.719 -49.066  1.00  0.00     0.149 A 
HETATM    9  N   UNL     1     -42.681  38.566 -49.037  1.00  0.00    -0.235 NA
HETATM   10  C   UNL     1     -43.229  37.834 -50.026  1.00  0.00     0.163 A 
HETATM   11  C   UNL     1     -42.491  37.244 -51.038  1.00  0.00     0.060 A 
HETATM   12  C   UNL     1     -41.107  37.423 -51.047  1.00  0.00     0.035 A 
BRANCH  10  13
HETATM   13  O   UNL     1     -44.595  37.645 -50.068  1.00  0.00    -0.339 OA
HETATM   14  C   UNL     1     -44.994  36.707 -51.064  1.00  0.00     0.211 C 
ENDBRANCH  10  13
ENDBRANCH   4   7
ENDBRANCH   2   3
ENDBRANCH   1   2
BRANCH   1  15
HETATM   15  N   UNL     1     -36.370  40.386 -53.072  1.00  0.00    -0.348 N 
HETATM   16  C   UNL     1     -36.306  41.673 -53.564  1.00  0.00     0.252 C 
HETATM   17  O   UNL     1     -36.281  42.672 -52.856  1.00  0.00    -0.268 OA
HETATM   18  H   UNL     1     -36.202  39.634 -53.728  1.00  0.00     0.163 HD
BRANCH  16  19
HETATM   19  C   UNL     1     -36.228  41.779 -55.041  1.00  0.00     0.032 A 
HETATM   20  C   UNL     1     -37.392  41.855 -55.817  1.00  0.00     0.017 A 
HETATM   21  C   UNL     1     -37.291  41.923 -57.207  1.00  0.00     0.001 A 
HETATM   22  C   UNL     1     -36.036  41.912 -57.818  1.00  0.00     0.000 A 
HETATM   23  C   UNL     1     -34.877  41.845 -57.043  1.00  0.00     0.001 A 
HETATM   24  C   UNL     1     -34.971  41.786 -55.651  1.00  0.00     0.017 A 
ENDBRANCH  16  19
ENDBRANCH   1  15
BRANCH   1  25
HETATM   25  C   UNL     1     -34.612  39.881 -51.472  1.00  0.00    -0.035 A 
HETATM   26  C   UNL     1     -33.976  40.369 -50.319  1.00  0.00     0.009 A 
HETATM   27  C   UNL     1     -32.609  40.169 -50.119  1.00  0.00     0.001 A 
HETATM   28  C   UNL     1     -31.857  39.486 -51.072  1.00  0.00     0.000 A 
HETATM   29  C   UNL     1     -32.469  39.006 -52.227  1.00  0.00     0.001 A 
HETATM   30  C   UNL     1     -33.837  39.202 -52.427  1.00  0.00     0.009 A 
ENDBRANCH   1  25
TORSDOF 7
ENDMDL
MODEL 8
REMARK VINA RESULT:      -7.3     15.742     18.458
REMARK  7 active torsions:
REMARK  status: ('A' for Active; 'I' for Inactive)
REMARK    1  A    between atoms: O_2  and  C_3 
REMARK    2  A    between atoms: C_6  and  N_7 
REMARK       I    between atoms: N_7  and  C_8 
REMARK    3  A    between atoms: C_8  and  C_9 
REMARK    4  A    between atoms: C_9  and  C_10 
REMARK    5  A    between atoms: C_10  and  N_11 
REMARK    6  A    between atoms: C_10  and  C_20 
REMARK       I    between atoms: N_11  and  C_12 
REMARK    7  A    between atoms: C_12  and  C_13 
ROOT
HETATM    1  C   UNL     1     -36.493  41.671 -55.287  1.00  0.00     0.126 C 
ENDROOT
BRANCH   1   2
HETATM    2  C   UNL     1     -34.999  41.391 -55.152  1.00  0.00     0.133 C 
BRANCH   2   3
HETATM    3  C   UNL     1     -34.545  40.554 -53.967  1.00  0.00     0.224 C 
HETATM    4  N   UNL     1     -34.047  41.232 -52.875  1.00  0.00    -0.326 N 
HETATM    5  H   UNL     1     -34.272  42.216 -52.771  1.00  0.00     0.169 HD
HETATM    6  O   UNL     1     -34.567  39.328 -54.074  1.00  0.00    -0.273 OA
BRANCH   4   7
HETATM    7  C   UNL     1     -33.340  40.656 -51.793  1.00  0.00     0.052 A 
HETATM    8  C   UNL     1     -31.953  40.549 -51.711  1.00  0.00     0.149 A 
HETATM    9  N   UNL     1     -31.283  40.040 -50.642  1.00  0.00    -0.235 NA
HETATM   10  C   UNL     1     -32.032  39.611 -49.608  1.00  0.00     0.163 A 
HETATM   11  C   UNL     1     -33.415  39.661 -49.593  1.00  0.00     0.060 A 
HETATM   12  C   UNL     1     -34.076  40.196 -50.701  1.00  0.00     0.035 A 
BRANCH  10  13
HETATM   13  O   UNL     1     -31.421  39.092 -48.485  1.00  0.00    -0.339 OA
HETATM   14  C   UNL     1     -32.269  38.214 -47.749  1.00  0.00     0.211 C 
ENDBRANCH  10  13
ENDBRANCH   4   7
ENDBRANCH   2   3
ENDBRANCH   1   2
BRANCH   1  15
HETATM   15  N   UNL     1     -37.281  40.869 -54.364  1.00  0.00    -0.348 N 
HETATM   16  C   UNL     1     -37.605  41.344 -53.111  1.00  0.00     0.252 C 
HETATM   17  O   UNL     1     -37.071  42.315 -52.591  1.00  0.00    -0.268 OA
HETATM   18  H   UNL     1     -37.902  40.180 -54.770  1.00  0.00     0.163 HD
BRANCH  16  19
HETATM   19  C   UNL     1     -38.696  40.612 -52.423  1.00  0.00     0.032 A 
HETATM   20  C   UNL     1     -38.411  39.565 -51.537  1.00  0.00     0.017 A 
HETATM   21  C   UNL     1     -39.457  38.873 -50.927  1.00  0.00     0.001 A 
HETATM   22  C   UNL     1     -40.781  39.222 -51.203  1.00  0.00     0.000 A 
HETATM   23  C   UNL     1     -41.063  40.271 -52.078  1.00  0.00     0.001 A 
HETATM   24  C   UNL     1     -40.020  40.974 -52.684  1.00  0.00     0.017 A 
ENDBRANCH  16  19
ENDBRANCH   1  15
BRANCH   1  25
HETATM   25  C   UNL     1     -36.980  41.428 -56.710  1.00  0.00    -0.035 A 
HETATM   26  C   UNL     1     -36.488  42.217 -57.762  1.00  0.00     0.009 A 
HETATM   27  C   UNL     1     -36.920  42.008 -59.073  1.00  0.00     0.001 A 
HETATM   28  C   UNL     1     -37.856  41.014 -59.349  1.00  0.00     0.000 A 
HETATM   29  C   UNL     1     -38.364  40.231 -58.316  1.00  0.00     0.001 A 
HETATM   30  C   UNL     1     -37.931  40.436 -57.005  1.00  0.00     0.009 A 
ENDBRANCH   1  25
TORSDOF 7
ENDMDL
MODEL 9
REMARK VINA RESULT:      -7.2      2.690      8.027
REMARK  7 active torsions:
REMARK  status: ('A' for Active; 'I' for Inactive)
REMARK    1  A    between atoms: O_2  and  C_3 
REMARK    2  A    between atoms: C_6  and  N_7 
REMARK       I    between atoms: N_7  and  C_8 
REMARK    3  A    between atoms: C_8  and  C_9 
REMARK    4  A    between atoms: C_9  and  C_10 
REMARK    5  A    between atoms: C_10  and  N_11 
REMARK    6  A    between atoms: C_10  and  C_20 
REMARK       I    between atoms: N_11  and  C_12 
REMARK    7  A    between atoms: C_12  and  C_13 
ROOT
HETATM    1  C   UNL     1     -43.005  57.735 -57.835  1.00  0.00     0.126 C 
ENDROOT
BRANCH   1   2
HETATM    2  C   UNL     1     -43.631  57.932 -56.457  1.00  0.00     0.133 C 
BRANCH   2   3
HETATM    3  C   UNL     1     -43.255  56.940 -55.367  1.00  0.00     0.224 C 
HETATM    4  N   UNL     1     -41.927  56.582 -55.276  1.00  0.00    -0.326 N 
HETATM    5  H   UNL     1     -41.232  57.185 -55.702  1.00  0.00     0.169 HD
HETATM    6  O   UNL     1     -44.157  56.450 -54.687  1.00  0.00    -0.273 OA
BRANCH   4   7
HETATM    7  C   UNL     1     -41.411  55.500 -54.525  1.00  0.00     0.052 A 
HETATM    8  C   UNL     1     -41.322  55.460 -53.135  1.00  0.00     0.149 A 
HETATM    9  N   UNL     1     -40.871  54.393 -52.424  1.00  0.00    -0.235 NA
HETATM   10  C   UNL     1     -40.483  53.314 -53.132  1.00  0.00     0.163 A 
HETATM   11  C   UNL     1     -40.520  53.254 -54.514  1.00  0.00     0.060 A 
HETATM   12  C   UNL     1     -40.995  54.362 -55.218  1.00  0.00     0.035 A 
BRANCH  10  13
HETATM   13  O   UNL     1     -40.025  52.189 -52.477  1.00  0.00    -0.339 OA
HETATM   14  C   UNL     1     -40.053  52.323 -51.059  1.00  0.00     0.211 C 
ENDBRANCH  10  13
ENDBRANCH   4   7
ENDBRANCH   2   3
ENDBRANCH   1   2
BRANCH   1  15
HETATM   15  N   UNL     1     -42.747  59.002 -58.501  1.00  0.00    -0.348 N 
HETATM   16  C   UNL     1     -41.843  59.904 -57.982  1.00  0.00     0.252 C 
HETATM   17  O   UNL     1     -41.397  59.843 -56.843  1.00  0.00    -0.268 OA
HETATM   18  H   UNL     1     -42.910  59.037 -59.500  1.00  0.00     0.163 HD
BRANCH  16  19
HETATM   19  C   UNL     1     -41.401  60.963 -58.921  1.00  0.00     0.032 A 
HETATM   20  C   UNL     1     -41.793  60.940 -60.265  1.00  0.00     0.017 A 
HETATM   21  C   UNL     1     -41.337  61.932 -61.134  1.00  0.00     0.001 A 
HETATM   22  C   UNL     1     -40.492  62.939 -60.664  1.00  0.00     0.000 A 
HETATM   23  C   UNL     1     -40.110  62.966 -59.322  1.00  0.00     0.001 A 
HETATM   24  C   UNL     1     -40.570  61.982 -58.446  1.00  0.00     0.017 A 
ENDBRANCH  16  19
ENDBRANCH   1  15
BRANCH   1  25
HETATM   25  C   UNL     1     -43.884  56.866 -58.727  1.00  0.00    -0.035 A 
HETATM   26  C   UNL     1     -43.537  55.525 -58.957  1.00  0.00     0.009 A 
HETATM   27  C   UNL     1     -44.330  54.712 -59.769  1.00  0.00     0.001 A 
HETATM   28  C   UNL     1     -45.476  55.230 -60.368  1.00  0.00     0.000 A 
HETATM   29  C   UNL     1     -45.828  56.561 -60.160  1.00  0.00     0.001 A 
HETATM   30  C   UNL     1     -45.038  57.374 -59.346  1.00  0.00     0.009 A 
ENDBRANCH   1  25
TORSDOF 7
ENDMDL
MODEL 10
REMARK VINA RESULT:      -7.2      2.951      7.133
REMARK  7 active torsions:
REMARK  status: ('A' for Active; 'I' for Inactive)
REMARK    1  A    between atoms: O_2  and  C_3 
REMARK    2  A    between atoms: C_6  and  N_7 
REMARK       I    between atoms: N_7  and  C_8 
REMARK    3  A    between atoms: C_8  and  C_9 
REMARK    4  A    between atoms: C_9  and  C_10 
REMARK    5  A    between atoms: C_10  and  N_11 
REMARK    6  A    between atoms: C_10  and  C_20 
REMARK       I    between atoms: N_11  and  C_12 
REMARK    7  A    between atoms: C_12  and  C_13 
ROOT
HETATM    1  C   UNL     1     -43.438  57.597 -56.647  1.00  0.00     0.126 C 
ENDROOT
BRANCH   1   2
HETATM    2  C   UNL     1     -42.478  56.431 -56.868  1.00  0.00     0.133 C 
BRANCH   2   3
HETATM    3  C   UNL     1     -42.336  55.417 -55.744  1.00  0.00     0.224 C 
HETATM    4  N   UNL     1     -41.087  55.279 -55.178  1.00  0.00    -0.326 N 
HETATM    5  H   UNL     1     -40.413  56.028 -55.300  1.00  0.00     0.169 HD
HETATM    6  O   UNL     1     -43.310  54.720 -55.459  1.00  0.00    -0.273 OA
BRANCH   4   7
HETATM    7  C   UNL     1     -40.677  54.232 -54.319  1.00  0.00     0.052 A 
HETATM    8  C   UNL     1     -40.636  54.307 -52.928  1.00  0.00     0.149 A 
HETATM    9  N   UNL     1     -40.290  53.276 -52.113  1.00  0.00    -0.235 NA
HETATM   10  C   UNL     1     -39.961  52.114 -52.711  1.00  0.00     0.163 A 
HETATM   11  C   UNL     1     -39.958  51.937 -54.084  1.00  0.00     0.060 A 
HETATM   12  C   UNL     1     -40.326  53.011 -54.897  1.00  0.00     0.035 A 
BRANCH  10  13
HETATM   13  O   UNL     1     -39.610  51.021 -51.947  1.00  0.00    -0.339 OA
HETATM   14  C   UNL     1     -39.665  49.797 -52.674  1.00  0.00     0.211 C 
ENDBRANCH  10  13
ENDBRANCH   4   7
ENDBRANCH   2   3
ENDBRANCH   1   2
BRANCH   1  15
HETATM   15  N   UNL     1     -43.925  57.648 -55.278  1.00  0.00    -0.348 N 
HETATM   16  C   UNL     1     -43.491  58.624 -54.406  1.00  0.00     0.252 C 
HETATM   17  O   UNL     1     -42.515  59.336 -54.612  1.00  0.00    -0.268 OA
HETATM   18  H   UNL     1     -44.837  57.246 -55.100  1.00  0.00     0.163 HD
BRANCH  16  19
HETATM   19  C   UNL     1     -44.317  58.793 -53.187  1.00  0.00     0.032 A 
HETATM   20  C   UNL     1     -44.309  57.826 -52.174  1.00  0.00     0.017 A 
HETATM   21  C   UNL     1     -45.120  57.995 -51.051  1.00  0.00     0.001 A 
HETATM   22  C   UNL     1     -45.937  59.122 -50.943  1.00  0.00     0.000 A 
HETATM   23  C   UNL     1     -45.937  60.089 -51.949  1.00  0.00     0.001 A 
HETATM   24  C   UNL     1     -45.121  59.930 -53.070  1.00  0.00     0.017 A 
ENDBRANCH  16  19
ENDBRANCH   1  15
BRANCH   1  25
HETATM   25  C   UNL     1     -44.623  57.532 -57.603  1.00  0.00    -0.035 A 
HETATM   26  C   UNL     1     -45.843  58.126 -57.244  1.00  0.00     0.009 A 
HETATM   27  C   UNL     1     -46.940  58.080 -58.107  1.00  0.00     0.001 A 
HETATM   28  C   UNL     1     -46.835  57.432 -59.335  1.00  0.00     0.000 A 
HETATM   29  C   UNL     1     -45.635  56.827 -59.702  1.00  0.00     0.001 A 
HETATM   30  C   UNL     1     -44.537  56.875 -58.842  1.00  0.00     0.009 A 
ENDBRANCH   1  25
TORSDOF 7
ENDMDL
