MODEL 1
REMARK VINA RESULT:      -7.0      0.000      0.000
REMARK  11 active torsions:
REMARK  status: ('A' for Active; 'I' for Inactive)
REMARK    1  A    between atoms: C_5  and  C_6 
REMARK    2  A    between atoms: C_6  and  N_7 
REMARK    3  A    between atoms: N_7  and  C_10 
REMARK    4  A    between atoms: C_10  and  C_11 
REMARK    5  A    between atoms: C_13  and  O_14 
REMARK    6  A    between atoms: C_16  and  O_17 
REMARK    7  A    between atoms: O_17  and  C_18 
REMARK    8  A    between atoms: C_18  and  C_19 
REMARK    9  A    between atoms: C_19  and  O_20 
REMARK   10  A    between atoms: C_19  and  C_21 
REMARK   11  A    between atoms: C_21  and  N_22 
ROOT
HETATM    1  C   UNL     1     -41.775  56.368 -51.045  1.00  0.00    -0.030 A 
HETATM    2  C   UNL     1     -40.917  57.457 -50.818  1.00  0.00     0.048 A 
HETATM    3  C   UNL     1     -40.648  58.382 -51.837  1.00  0.00     0.102 A 
HETATM    4  C   UNL     1     -41.235  58.216 -53.108  1.00  0.00     0.102 A 
HETATM    5  C   UNL     1     -42.062  57.117 -53.346  1.00  0.00     0.040 A 
HETATM    6  C   UNL     1     -42.332  56.201 -52.321  1.00  0.00     0.012 A 
ENDROOT
BRANCH   4   7
HETATM    7  O   UNL     1     -40.953  59.198 -54.019  1.00  0.00    -0.346 OA
BRANCH   7   8
HETATM    8  C   UNL     1     -42.017  59.952 -54.585  1.00  0.00     0.209 C 
BRANCH   8   9
HETATM    9  C   UNL     1     -41.943  59.785 -56.109  1.00  0.00     0.168 C 
BRANCH   9  10
HETATM   10  O   UNL     1     -41.486  60.979 -56.763  1.00  0.00    -0.392 OA
HETATM   11  H   UNL     1     -41.421  61.687 -56.090  1.00  0.00     0.210 HD
ENDBRANCH   9  10
BRANCH   9  12
HETATM   12  C   UNL     1     -43.318  59.423 -56.709  1.00  0.00     0.268 C 
BRANCH  12  13
HETATM   13  N   UNL     1     -43.147  58.227 -57.649  1.00  0.00    -0.067 N 
HETATM   14  H   UNL     1     -42.133  58.237 -57.866  1.00  0.00     0.280 HD
HETATM   15  C   UNL     1     -43.464  56.903 -56.971  1.00  0.00     0.245 C 
HETATM   16  C   UNL     1     -43.060  55.711 -57.836  1.00  0.00     0.101 C 
HETATM   17  S   UNL     1     -43.967  55.680 -59.409  1.00  0.00    -0.166 SA
HETATM   18  C   UNL     1     -43.558  57.354 -59.984  1.00  0.00     0.101 C 
HETATM   19  C   UNL     1     -43.912  58.421 -58.948  1.00  0.00     0.245 C 
ENDBRANCH  12  13
ENDBRANCH   9  12
ENDBRANCH   8   9
ENDBRANCH   7   8
ENDBRANCH   4   7
BRANCH   3  20
HETATM   20  O   UNL     1     -39.830  59.476 -51.703  1.00  0.00    -0.353 OA
HETATM   21  C   UNL     1     -39.134  59.645 -50.474  1.00  0.00     0.210 C 
ENDBRANCH   3  20
BRANCH   1  22
HETATM   22  C   UNL     1     -42.089  55.394 -49.941  1.00  0.00     0.271 C 
BRANCH  22  23
HETATM   23  N   UNL     1     -41.681  54.019 -50.289  1.00  0.00    -0.066 N 
HETATM   24  H   UNL     1     -42.236  53.646 -51.070  1.00  0.00     0.277 HD
HETATM   25  H   UNL     1     -41.888  53.356 -49.523  1.00  0.00     0.277 HD
BRANCH  23  26
HETATM   26  C   UNL     1     -40.226  53.822 -50.606  1.00  0.00     0.293 C 
BRANCH  26  27
HETATM   27  C   UNL     1     -40.061  52.782 -51.678  1.00  0.00     0.077 A 
HETATM   28  C   UNL     1     -39.679  51.484 -51.374  1.00  0.00     0.145 A 
HETATM   29  N   UNL     1     -39.555  50.535 -52.322  1.00  0.00    -0.262 NA
HETATM   30  C   UNL     1     -39.827  50.904 -53.598  1.00  0.00     0.048 A 
HETATM   31  C   UNL     1     -39.697  49.871 -54.674  1.00  0.00     0.072 C 
HETATM   32  C   UNL     1     -40.212  52.205 -53.900  1.00  0.00     0.143 A 
HETATM   33  N   UNL     1     -40.343  53.174 -52.954  1.00  0.00    -0.260 NA
ENDBRANCH  26  27
ENDBRANCH  23  26
ENDBRANCH  22  23
ENDBRANCH   1  22
TORSDOF 11
ENDMDL
MODEL 2
REMARK VINA RESULT:      -6.9      0.983      1.814
REMARK  11 active torsions:
REMARK  status: ('A' for Active; 'I' for Inactive)
REMARK    1  A    between atoms: C_5  and  C_6 
REMARK    2  A    between atoms: C_6  and  N_7 
REMARK    3  A    between atoms: N_7  and  C_10 
REMARK    4  A    between atoms: C_10  and  C_11 
REMARK    5  A    between atoms: C_13  and  O_14 
REMARK    6  A    between atoms: C_16  and  O_17 
REMARK    7  A    between atoms: O_17  and  C_18 
REMARK    8  A    between atoms: C_18  and  C_19 
REMARK    9  A    between atoms: C_19  and  O_20 
REMARK   10  A    between atoms: C_19  and  C_21 
REMARK   11  A    between atoms: C_21  and  N_22 
ROOT
HETATM    1  C   UNL     1     -41.151  56.696 -50.798  1.00  0.00    -0.030 A 
HETATM    2  C   UNL     1     -41.358  56.326 -52.138  1.00  0.00     0.048 A 
HETATM    3  C   UNL     1     -41.293  57.281 -53.163  1.00  0.00     0.102 A 
HETATM    4  C   UNL     1     -41.025  58.629 -52.849  1.00  0.00     0.102 A 
HETATM    5  C   UNL     1     -40.852  59.005 -51.516  1.00  0.00     0.040 A 
HETATM    6  C   UNL     1     -40.912  58.044 -50.499  1.00  0.00     0.012 A 
ENDROOT
BRANCH   4   7
HETATM    7  O   UNL     1     -40.930  59.475 -53.922  1.00  0.00    -0.346 OA
BRANCH   7   8
HETATM    8  C   UNL     1     -42.044  60.285 -54.274  1.00  0.00     0.209 C 
BRANCH   8   9
HETATM    9  C   UNL     1     -42.161  60.272 -55.805  1.00  0.00     0.168 C 
BRANCH   9  10
HETATM   10  O   UNL     1     -42.302  61.594 -56.347  1.00  0.00    -0.392 OA
HETATM   11  H   UNL     1     -43.215  61.899 -56.170  1.00  0.00     0.210 HD
ENDBRANCH   9  10
BRANCH   9  12
HETATM   12  C   UNL     1     -43.375  59.443 -56.275  1.00  0.00     0.268 C 
BRANCH  12  13
HETATM   13  N   UNL     1     -42.886  58.349 -57.227  1.00  0.00    -0.067 N 
HETATM   14  H   UNL     1     -42.002  58.029 -56.790  1.00  0.00     0.280 HD
HETATM   15  C   UNL     1     -43.834  57.160 -57.282  1.00  0.00     0.245 C 
HETATM   16  C   UNL     1     -43.223  55.982 -58.040  1.00  0.00     0.101 C 
HETATM   17  S   UNL     1     -42.870  56.403 -59.771  1.00  0.00    -0.166 SA
HETATM   18  C   UNL     1     -41.850  57.878 -59.482  1.00  0.00     0.101 C 
HETATM   19  C   UNL     1     -42.561  58.906 -58.603  1.00  0.00     0.245 C 
ENDBRANCH  12  13
ENDBRANCH   9  12
ENDBRANCH   8   9
ENDBRANCH   7   8
ENDBRANCH   4   7
BRANCH   3  20
HETATM   20  O   UNL     1     -41.474  57.010 -54.497  1.00  0.00    -0.353 OA
HETATM   21  C   UNL     1     -41.273  55.674 -54.942  1.00  0.00     0.210 C 
ENDBRANCH   3  20
BRANCH   1  22
HETATM   22  C   UNL     1     -41.190  55.664 -49.703  1.00  0.00     0.271 C 
BRANCH  22  23
HETATM   23  N   UNL     1     -41.429  54.308 -50.232  1.00  0.00    -0.066 N 
HETATM   24  H   UNL     1     -41.577  54.320 -51.250  1.00  0.00     0.277 HD
HETATM   25  H   UNL     1     -42.315  53.912 -49.877  1.00  0.00     0.277 HD
BRANCH  23  26
HETATM   26  C   UNL     1     -40.378  53.281 -49.919  1.00  0.00     0.293 C 
BRANCH  26  27
HETATM   27  C   UNL     1     -40.130  52.405 -51.114  1.00  0.00     0.077 A 
HETATM   28  C   UNL     1     -39.786  51.069 -50.974  1.00  0.00     0.145 A 
HETATM   29  N   UNL     1     -39.589  50.266 -52.038  1.00  0.00    -0.262 NA
HETATM   30  C   UNL     1     -39.749  50.822 -53.264  1.00  0.00     0.048 A 
HETATM   31  C   UNL     1     -39.537  49.954 -54.465  1.00  0.00     0.072 C 
HETATM   32  C   UNL     1     -40.098  52.161 -53.402  1.00  0.00     0.143 A 
HETATM   33  N   UNL     1     -40.301  52.985 -52.338  1.00  0.00    -0.260 NA
ENDBRANCH  26  27
ENDBRANCH  23  26
ENDBRANCH  22  23
ENDBRANCH   1  22
TORSDOF 11
ENDMDL
MODEL 3
REMARK VINA RESULT:      -6.9      2.966      4.291
REMARK  11 active torsions:
REMARK  status: ('A' for Active; 'I' for Inactive)
REMARK    1  A    between atoms: C_5  and  C_6 
REMARK    2  A    between atoms: C_6  and  N_7 
REMARK    3  A    between atoms: N_7  and  C_10 
REMARK    4  A    between atoms: C_10  and  C_11 
REMARK    5  A    between atoms: C_13  and  O_14 
REMARK    6  A    between atoms: C_16  and  O_17 
REMARK    7  A    between atoms: O_17  and  C_18 
REMARK    8  A    between atoms: C_18  and  C_19 
REMARK    9  A    between atoms: C_19  and  O_20 
REMARK   10  A    between atoms: C_19  and  C_21 
REMARK   11  A    between atoms: C_21  and  N_22 
ROOT
HETATM    1  C   UNL     1     -42.975  55.555 -51.276  1.00  0.00    -0.030 A 
HETATM    2  C   UNL     1     -42.725  55.241 -52.623  1.00  0.00     0.048 A 
HETATM    3  C   UNL     1     -43.360  55.950 -53.653  1.00  0.00     0.102 A 
HETATM    4  C   UNL     1     -44.267  56.982 -53.338  1.00  0.00     0.102 A 
HETATM    5  C   UNL     1     -44.543  57.273 -52.002  1.00  0.00     0.040 A 
HETATM    6  C   UNL     1     -43.899  56.566 -50.978  1.00  0.00     0.012 A 
ENDROOT
BRANCH   4   7
HETATM    7  O   UNL     1     -44.795  57.648 -54.412  1.00  0.00    -0.346 OA
BRANCH   7   8
HETATM    8  C   UNL     1     -44.820  59.070 -54.408  1.00  0.00     0.209 C 
BRANCH   8   9
HETATM    9  C   UNL     1     -43.847  59.552 -55.493  1.00  0.00     0.168 C 
BRANCH   9  10
HETATM   10  O   UNL     1     -43.286  58.461 -56.240  1.00  0.00    -0.392 OA
HETATM   11  H   UNL     1     -42.552  58.811 -56.785  1.00  0.00     0.210 HD
ENDBRANCH   9  10
BRANCH   9  12
HETATM   12  C   UNL     1     -42.675  60.355 -54.890  1.00  0.00     0.268 C 
BRANCH  12  13
HETATM   13  N   UNL     1     -42.354  59.792 -53.503  1.00  0.00    -0.067 N 
HETATM   14  H   UNL     1     -43.068  59.051 -53.375  1.00  0.00     0.280 HD
HETATM   15  C   UNL     1     -40.984  59.133 -53.446  1.00  0.00     0.245 C 
HETATM   16  C   UNL     1     -40.777  58.368 -52.139  1.00  0.00     0.101 C 
HETATM   17  S   UNL     1     -40.848  59.467 -50.696  1.00  0.00    -0.166 SA
HETATM   18  C   UNL     1     -42.468  60.223 -51.017  1.00  0.00     0.101 C 
HETATM   19  C   UNL     1     -42.551  60.834 -52.415  1.00  0.00     0.245 C 
ENDBRANCH  12  13
ENDBRANCH   9  12
ENDBRANCH   8   9
ENDBRANCH   7   8
ENDBRANCH   4   7
BRANCH   3  20
HETATM   20  O   UNL     1     -43.172  55.718 -54.993  1.00  0.00    -0.353 OA
HETATM   21  C   UNL     1     -43.049  54.369 -55.428  1.00  0.00     0.210 C 
ENDBRANCH   3  20
BRANCH   1  22
HETATM   22  C   UNL     1     -42.268  54.815 -50.172  1.00  0.00     0.271 C 
BRANCH  22  23
HETATM   23  N   UNL     1     -40.847  54.575 -50.493  1.00  0.00    -0.066 N 
HETATM   24  H   UNL     1     -40.245  55.322 -50.122  1.00  0.00     0.277 HD
HETATM   25  H   UNL     1     -40.674  54.623 -51.510  1.00  0.00     0.277 HD
BRANCH  23  26
HETATM   26  C   UNL     1     -40.286  53.252 -50.053  1.00  0.00     0.293 C 
BRANCH  26  27
HETATM   27  C   UNL     1     -40.066  52.358 -51.239  1.00  0.00     0.077 A 
HETATM   28  C   UNL     1     -39.764  51.013 -51.085  1.00  0.00     0.145 A 
HETATM   29  N   UNL     1     -39.592  50.193 -52.141  1.00  0.00    -0.262 NA
HETATM   30  C   UNL     1     -39.735  50.743 -53.373  1.00  0.00     0.048 A 
HETATM   31  C   UNL     1     -39.550  49.857 -54.565  1.00  0.00     0.072 C 
HETATM   32  C   UNL     1     -40.041  52.090 -53.524  1.00  0.00     0.143 A 
HETATM   33  N   UNL     1     -40.218  52.930 -52.469  1.00  0.00    -0.260 NA
ENDBRANCH  26  27
ENDBRANCH  23  26
ENDBRANCH  22  23
ENDBRANCH   1  22
TORSDOF 11
ENDMDL
MODEL 4
REMARK VINA RESULT:      -6.8      1.870      2.888
REMARK  11 active torsions:
REMARK  status: ('A' for Active; 'I' for Inactive)
REMARK    1  A    between atoms: C_5  and  C_6 
REMARK    2  A    between atoms: C_6  and  N_7 
REMARK    3  A    between atoms: N_7  and  C_10 
REMARK    4  A    between atoms: C_10  and  C_11 
REMARK    5  A    between atoms: C_13  and  O_14 
REMARK    6  A    between atoms: C_16  and  O_17 
REMARK    7  A    between atoms: O_17  and  C_18 
REMARK    8  A    between atoms: C_18  and  C_19 
REMARK    9  A    between atoms: C_19  and  O_20 
REMARK   10  A    between atoms: C_19  and  C_21 
REMARK   11  A    between atoms: C_21  and  N_22 
ROOT
HETATM    1  C   UNL     1     -41.717  56.262 -50.683  1.00  0.00    -0.030 A 
HETATM    2  C   UNL     1     -42.535  55.631 -51.635  1.00  0.00     0.048 A 
HETATM    3  C   UNL     1     -43.061  56.350 -52.717  1.00  0.00     0.102 A 
HETATM    4  C   UNL     1     -42.777  57.725 -52.850  1.00  0.00     0.102 A 
HETATM    5  C   UNL     1     -41.993  58.362 -51.888  1.00  0.00     0.040 A 
HETATM    6  C   UNL     1     -41.464  57.635 -50.813  1.00  0.00     0.012 A 
ENDROOT
BRANCH   4   7
HETATM    7  O   UNL     1     -43.293  58.326 -53.967  1.00  0.00    -0.346 OA
BRANCH   7   8
HETATM    8  C   UNL     1     -44.535  59.013 -53.879  1.00  0.00     0.209 C 
BRANCH   8   9
HETATM    9  C   UNL     1     -45.257  58.837 -55.222  1.00  0.00     0.168 C 
BRANCH   9  10
HETATM   10  O   UNL     1     -45.857  57.538 -55.348  1.00  0.00    -0.392 OA
HETATM   11  H   UNL     1     -45.902  57.315 -56.300  1.00  0.00     0.210 HD
ENDBRANCH   9  10
BRANCH   9  12
HETATM   12  C   UNL     1     -44.294  59.023 -56.413  1.00  0.00     0.268 C 
BRANCH  12  13
HETATM   13  N   UNL     1     -44.305  57.747 -57.260  1.00  0.00    -0.067 N 
HETATM   14  H   UNL     1     -45.010  57.152 -56.786  1.00  0.00     0.280 HD
HETATM   15  C   UNL     1     -44.786  57.997 -58.681  1.00  0.00     0.245 C 
HETATM   16  C   UNL     1     -45.023  56.690 -59.438  1.00  0.00     0.101 C 
HETATM   17  S   UNL     1     -43.496  55.721 -59.605  1.00  0.00    -0.166 SA
HETATM   18  C   UNL     1     -43.038  55.643 -57.849  1.00  0.00     0.101 C 
HETATM   19  C   UNL     1     -42.967  57.029 -57.210  1.00  0.00     0.245 C 
ENDBRANCH  12  13
ENDBRANCH   9  12
ENDBRANCH   8   9
ENDBRANCH   7   8
ENDBRANCH   4   7
BRANCH   3  20
HETATM   20  O   UNL     1     -43.861  55.815 -53.696  1.00  0.00    -0.353 OA
HETATM   21  C   UNL     1     -43.449  54.598 -54.306  1.00  0.00     0.210 C 
ENDBRANCH   3  20
BRANCH   1  22
HETATM   22  C   UNL     1     -41.126  55.482 -49.539  1.00  0.00     0.271 C 
BRANCH  22  23
HETATM   23  N   UNL     1     -40.105  54.519 -49.999  1.00  0.00    -0.066 N 
HETATM   24  H   UNL     1     -39.179  54.735 -49.607  1.00  0.00     0.277 HD
HETATM   25  H   UNL     1     -39.946  54.592 -51.017  1.00  0.00     0.277 HD
BRANCH  23  26
HETATM   26  C   UNL     1     -40.402  53.069 -49.742  1.00  0.00     0.293 C 
BRANCH  26  27
HETATM   27  C   UNL     1     -40.181  52.262 -50.989  1.00  0.00     0.077 A 
HETATM   28  C   UNL     1     -40.298  52.830 -52.249  1.00  0.00     0.145 A 
HETATM   29  N   UNL     1     -40.076  52.123 -53.375  1.00  0.00    -0.262 NA
HETATM   30  C   UNL     1     -39.723  50.823 -53.223  1.00  0.00     0.048 A 
HETATM   31  C   UNL     1     -39.469  50.013 -54.456  1.00  0.00     0.072 C 
HETATM   32  C   UNL     1     -39.603  50.257 -51.959  1.00  0.00     0.143 A 
HETATM   33  N   UNL     1     -39.824  50.956 -50.813  1.00  0.00    -0.260 NA
ENDBRANCH  26  27
ENDBRANCH  23  26
ENDBRANCH  22  23
ENDBRANCH   1  22
TORSDOF 11
ENDMDL
MODEL 5
REMARK VINA RESULT:      -6.8      1.804      2.562
REMARK  11 active torsions:
REMARK  status: ('A' for Active; 'I' for Inactive)
REMARK    1  A    between atoms: C_5  and  C_6 
REMARK    2  A    between atoms: C_6  and  N_7 
REMARK    3  A    between atoms: N_7  and  C_10 
REMARK    4  A    between atoms: C_10  and  C_11 
REMARK    5  A    between atoms: C_13  and  O_14 
REMARK    6  A    between atoms: C_16  and  O_17 
REMARK    7  A    between atoms: O_17  and  C_18 
REMARK    8  A    between atoms: C_18  and  C_19 
REMARK    9  A    between atoms: C_19  and  O_20 
REMARK   10  A    between atoms: C_19  and  C_21 
REMARK   11  A    between atoms: C_21  and  N_22 
ROOT
HETATM    1  C   UNL     1     -43.027  55.909 -52.204  1.00  0.00    -0.030 A 
HETATM    2  C   UNL     1     -42.711  57.213 -52.623  1.00  0.00     0.048 A 
HETATM    3  C   UNL     1     -42.897  57.601 -53.957  1.00  0.00     0.102 A 
HETATM    4  C   UNL     1     -43.399  56.674 -54.894  1.00  0.00     0.102 A 
HETATM    5  C   UNL     1     -43.682  55.370 -54.488  1.00  0.00     0.040 A 
HETATM    6  C   UNL     1     -43.500  54.991 -53.152  1.00  0.00     0.012 A 
ENDROOT
BRANCH   4   7
HETATM    7  O   UNL     1     -43.594  57.163 -56.158  1.00  0.00    -0.346 OA
BRANCH   7   8
HETATM    8  C   UNL     1     -42.741  56.736 -57.211  1.00  0.00     0.209 C 
BRANCH   8   9
HETATM    9  C   UNL     1     -42.262  57.990 -57.957  1.00  0.00     0.168 C 
BRANCH   9  10
HETATM   10  O   UNL     1     -42.599  59.197 -57.255  1.00  0.00    -0.392 OA
HETATM   11  H   UNL     1     -42.432  59.953 -57.854  1.00  0.00     0.210 HD
ENDBRANCH   9  10
BRANCH   9  12
HETATM   12  C   UNL     1     -42.880  58.083 -59.368  1.00  0.00     0.268 C 
BRANCH  12  13
HETATM   13  N   UNL     1     -44.207  57.319 -59.377  1.00  0.00    -0.067 N 
HETATM   14  H   UNL     1     -44.174  56.773 -58.496  1.00  0.00     0.280 HD
HETATM   15  C   UNL     1     -45.412  58.245 -59.306  1.00  0.00     0.245 C 
HETATM   16  C   UNL     1     -46.708  57.471 -59.072  1.00  0.00     0.101 C 
HETATM   17  S   UNL     1     -47.061  56.318 -60.430  1.00  0.00    -0.166 SA
HETATM   18  C   UNL     1     -45.488  55.409 -60.421  1.00  0.00     0.101 C 
HETATM   19  C   UNL     1     -44.283  56.342 -60.538  1.00  0.00     0.245 C 
ENDBRANCH  12  13
ENDBRANCH   9  12
ENDBRANCH   8   9
ENDBRANCH   7   8
ENDBRANCH   4   7
BRANCH   3  20
HETATM   20  O   UNL     1     -42.623  58.852 -54.453  1.00  0.00    -0.353 OA
HETATM   21  C   UNL     1     -41.514  59.558 -53.911  1.00  0.00     0.210 C 
ENDBRANCH   3  20
BRANCH   1  22
HETATM   22  C   UNL     1     -42.857  55.503 -50.764  1.00  0.00     0.271 C 
BRANCH  22  23
HETATM   23  N   UNL     1     -42.137  54.221 -50.636  1.00  0.00    -0.066 N 
HETATM   24  H   UNL     1     -42.576  53.483 -51.202  1.00  0.00     0.277 HD
HETATM   25  H   UNL     1     -42.203  53.843 -49.677  1.00  0.00     0.277 HD
BRANCH  23  26
HETATM   26  C   UNL     1     -40.670  54.252 -50.955  1.00  0.00     0.293 C 
BRANCH  26  27
HETATM   27  C   UNL     1     -40.306  53.106 -51.855  1.00  0.00     0.077 A 
HETATM   28  C   UNL     1     -39.846  51.902 -51.343  1.00  0.00     0.145 A 
HETATM   29  N   UNL     1     -39.543  50.857 -52.137  1.00  0.00    -0.262 NA
HETATM   30  C   UNL     1     -39.714  51.031 -53.471  1.00  0.00     0.048 A 
HETATM   31  C   UNL     1     -39.386  49.887 -54.379  1.00  0.00     0.072 C 
HETATM   32  C   UNL     1     -40.179  52.237 -53.981  1.00  0.00     0.143 A 
HETATM   33  N   UNL     1     -40.490  53.301 -53.193  1.00  0.00    -0.260 NA
ENDBRANCH  26  27
ENDBRANCH  23  26
ENDBRANCH  22  23
ENDBRANCH   1  22
TORSDOF 11
ENDMDL
MODEL 6
REMARK VINA RESULT:      -6.8      2.403      2.988
REMARK  11 active torsions:
REMARK  status: ('A' for Active; 'I' for Inactive)
REMARK    1  A    between atoms: C_5  and  C_6 
REMARK    2  A    between atoms: C_6  and  N_7 
REMARK    3  A    between atoms: N_7  and  C_10 
REMARK    4  A    between atoms: C_10  and  C_11 
REMARK    5  A    between atoms: C_13  and  O_14 
REMARK    6  A    between atoms: C_16  and  O_17 
REMARK    7  A    between atoms: O_17  and  C_18 
REMARK    8  A    between atoms: C_18  and  C_19 
REMARK    9  A    between atoms: C_19  and  O_20 
REMARK   10  A    between atoms: C_19  and  C_21 
REMARK   11  A    between atoms: C_21  and  N_22 
ROOT
HETATM    1  C   UNL     1     -43.365  55.146 -51.978  1.00  0.00    -0.030 A 
HETATM    2  C   UNL     1     -43.298  54.994 -53.374  1.00  0.00     0.048 A 
HETATM    3  C   UNL     1     -43.520  56.086 -54.225  1.00  0.00     0.102 A 
HETATM    4  C   UNL     1     -43.823  57.350 -53.679  1.00  0.00     0.102 A 
HETATM    5  C   UNL     1     -43.923  57.496 -52.295  1.00  0.00     0.040 A 
HETATM    6  C   UNL     1     -43.693  56.403 -51.451  1.00  0.00     0.012 A 
ENDROOT
BRANCH   4   7
HETATM    7  O   UNL     1     -43.971  58.363 -54.589  1.00  0.00    -0.346 OA
BRANCH   7   8
HETATM    8  C   UNL     1     -45.225  59.023 -54.700  1.00  0.00     0.209 C 
BRANCH   8   9
HETATM    9  C   UNL     1     -45.383  59.474 -56.160  1.00  0.00     0.168 C 
BRANCH   9  10
HETATM   10  O   UNL     1     -46.412  60.464 -56.311  1.00  0.00    -0.392 OA
HETATM   11  H   UNL     1     -46.013  61.257 -56.725  1.00  0.00     0.210 HD
ENDBRANCH   9  10
BRANCH   9  12
HETATM   12  C   UNL     1     -45.734  58.291 -57.086  1.00  0.00     0.268 C 
BRANCH  12  13
HETATM   13  N   UNL     1     -44.449  57.784 -57.747  1.00  0.00    -0.067 N 
HETATM   14  H   UNL     1     -44.054  57.139 -57.038  1.00  0.00     0.280 HD
HETATM   15  C   UNL     1     -44.724  56.978 -59.008  1.00  0.00     0.245 C 
HETATM   16  C   UNL     1     -43.465  56.279 -59.519  1.00  0.00     0.101 C 
HETATM   17  S   UNL     1     -42.170  57.468 -59.975  1.00  0.00    -0.166 SA
HETATM   18  C   UNL     1     -42.085  58.382 -58.407  1.00  0.00     0.101 C 
HETATM   19  C   UNL     1     -43.453  58.909 -57.973  1.00  0.00     0.245 C 
ENDBRANCH  12  13
ENDBRANCH   9  12
ENDBRANCH   8   9
ENDBRANCH   7   8
ENDBRANCH   4   7
BRANCH   3  20
HETATM   20  O   UNL     1     -43.468  56.031 -55.596  1.00  0.00    -0.353 OA
HETATM   21  C   UNL     1     -42.537  55.140 -56.195  1.00  0.00     0.210 C 
ENDBRANCH   3  20
BRANCH   1  22
HETATM   22  C   UNL     1     -43.094  53.981 -51.065  1.00  0.00     0.271 C 
BRANCH  22  23
HETATM   23  N   UNL     1     -41.851  54.164 -50.292  1.00  0.00    -0.066 N 
HETATM   24  H   UNL     1     -41.673  53.367 -49.668  1.00  0.00     0.277 HD
HETATM   25  H   UNL     1     -41.925  54.958 -49.635  1.00  0.00     0.277 HD
BRANCH  23  26
HETATM   26  C   UNL     1     -40.607  54.424 -51.094  1.00  0.00     0.293 C 
BRANCH  26  27
HETATM   27  C   UNL     1     -40.267  53.227 -51.934  1.00  0.00     0.077 A 
HETATM   28  C   UNL     1     -39.908  52.017 -51.358  1.00  0.00     0.145 A 
HETATM   29  N   UNL     1     -39.628  50.928 -52.100  1.00  0.00    -0.262 NA
HETATM   30  C   UNL     1     -39.718  51.063 -53.446  1.00  0.00     0.048 A 
HETATM   31  C   UNL     1     -39.413  49.869 -54.296  1.00  0.00     0.072 C 
HETATM   32  C   UNL     1     -40.082  52.275 -54.020  1.00  0.00     0.143 A 
HETATM   33  N   UNL     1     -40.368  53.384 -53.286  1.00  0.00    -0.260 NA
ENDBRANCH  26  27
ENDBRANCH  23  26
ENDBRANCH  22  23
ENDBRANCH   1  22
TORSDOF 11
ENDMDL
MODEL 7
REMARK VINA RESULT:      -6.7      2.523      2.996
REMARK  11 active torsions:
REMARK  status: ('A' for Active; 'I' for Inactive)
REMARK    1  A    between atoms: C_5  and  C_6 
REMARK    2  A    between atoms: C_6  and  N_7 
REMARK    3  A    between atoms: N_7  and  C_10 
REMARK    4  A    between atoms: C_10  and  C_11 
REMARK    5  A    between atoms: C_13  and  O_14 
REMARK    6  A    between atoms: C_16  and  O_17 
REMARK    7  A    between atoms: O_17  and  C_18 
REMARK    8  A    between atoms: C_18  and  C_19 
REMARK    9  A    between atoms: C_19  and  O_20 
REMARK   10  A    between atoms: C_19  and  C_21 
REMARK   11  A    between atoms: C_21  and  N_22 
ROOT
HETATM    1  C   UNL     1     -43.543  55.226 -52.072  1.00  0.00    -0.030 A 
HETATM    2  C   UNL     1     -43.893  56.465 -51.508  1.00  0.00     0.048 A 
HETATM    3  C   UNL     1     -44.277  57.540 -52.321  1.00  0.00     0.102 A 
HETATM    4  C   UNL     1     -44.306  57.384 -53.722  1.00  0.00     0.102 A 
HETATM    5  C   UNL     1     -43.927  56.166 -54.287  1.00  0.00     0.040 A 
HETATM    6  C   UNL     1     -43.551  55.094 -53.468  1.00  0.00     0.012 A 
ENDROOT
BRANCH   4   7
HETATM    7  O   UNL     1     -44.744  58.474 -54.426  1.00  0.00    -0.346 OA
BRANCH   7   8
HETATM    8  C   UNL     1     -44.415  58.593 -55.804  1.00  0.00     0.209 C 
BRANCH   8   9
HETATM    9  C   UNL     1     -45.731  58.724 -56.584  1.00  0.00     0.168 C 
BRANCH   9  10
HETATM   10  O   UNL     1     -46.606  57.607 -56.359  1.00  0.00    -0.392 OA
HETATM   11  H   UNL     1     -46.064  56.792 -56.360  1.00  0.00     0.210 HD
ENDBRANCH   9  10
BRANCH   9  12
HETATM   12  C   UNL     1     -45.483  58.822 -58.104  1.00  0.00     0.268 C 
BRANCH  12  13
HETATM   13  N   UNL     1     -45.502  57.412 -58.699  1.00  0.00    -0.067 N 
HETATM   14  H   UNL     1     -45.929  56.840 -57.946  1.00  0.00     0.280 HD
HETATM   15  C   UNL     1     -46.398  57.310 -59.925  1.00  0.00     0.245 C 
HETATM   16  C   UNL     1     -46.600  55.860 -60.361  1.00  0.00     0.101 C 
HETATM   17  S   UNL     1     -45.033  55.074 -60.838  1.00  0.00    -0.166 SA
HETATM   18  C   UNL     1     -44.096  55.406 -59.317  1.00  0.00     0.101 C 
HETATM   19  C   UNL     1     -44.098  56.890 -58.953  1.00  0.00     0.245 C 
ENDBRANCH  12  13
ENDBRANCH   9  12
ENDBRANCH   8   9
ENDBRANCH   7   8
ENDBRANCH   4   7
BRANCH   3  20
HETATM   20  O   UNL     1     -44.641  58.780 -51.858  1.00  0.00    -0.353 OA
HETATM   21  C   UNL     1     -45.420  58.848 -50.670  1.00  0.00     0.210 C 
ENDBRANCH   3  20
BRANCH   1  22
HETATM   22  C   UNL     1     -43.162  54.063 -51.196  1.00  0.00     0.271 C 
BRANCH  22  23
HETATM   23  N   UNL     1     -41.923  54.327 -50.439  1.00  0.00    -0.066 N 
HETATM   24  H   UNL     1     -41.720  53.571 -49.772  1.00  0.00     0.277 HD
HETATM   25  H   UNL     1     -42.021  55.153 -49.827  1.00  0.00     0.277 HD
BRANCH  23  26
HETATM   26  C   UNL     1     -40.689  54.580 -51.259  1.00  0.00     0.293 C 
BRANCH  26  27
HETATM   27  C   UNL     1     -40.326  53.354 -52.047  1.00  0.00     0.077 A 
HETATM   28  C   UNL     1     -39.937  52.180 -51.421  1.00  0.00     0.145 A 
HETATM   29  N   UNL     1     -39.635  51.065 -52.116  1.00  0.00    -0.262 NA
HETATM   30  C   UNL     1     -39.735  51.139 -53.466  1.00  0.00     0.048 A 
HETATM   31  C   UNL     1     -39.407  49.916 -54.265  1.00  0.00     0.072 C 
HETATM   32  C   UNL     1     -40.130  52.316 -54.091  1.00  0.00     0.143 A 
HETATM   33  N   UNL     1     -40.438  53.449 -53.404  1.00  0.00    -0.260 NA
ENDBRANCH  26  27
ENDBRANCH  23  26
ENDBRANCH  22  23
ENDBRANCH   1  22
TORSDOF 11
ENDMDL
MODEL 8
REMARK VINA RESULT:      -6.6      2.912      4.245
REMARK  11 active torsions:
REMARK  status: ('A' for Active; 'I' for Inactive)
REMARK    1  A    between atoms: C_5  and  C_6 
REMARK    2  A    between atoms: C_6  and  N_7 
REMARK    3  A    between atoms: N_7  and  C_10 
REMARK    4  A    between atoms: C_10  and  C_11 
REMARK    5  A    between atoms: C_13  and  O_14 
REMARK    6  A    between atoms: C_16  and  O_17 
REMARK    7  A    between atoms: O_17  and  C_18 
REMARK    8  A    between atoms: C_18  and  C_19 
REMARK    9  A    between atoms: C_19  and  O_20 
REMARK   10  A    between atoms: C_19  and  C_21 
REMARK   11  A    between atoms: C_21  and  N_22 
ROOT
HETATM    1  C   UNL     1     -41.808  55.849 -50.626  1.00  0.00    -0.030 A 
HETATM    2  C   UNL     1     -42.717  55.496 -51.638  1.00  0.00     0.048 A 
HETATM    3  C   UNL     1     -42.813  56.257 -52.811  1.00  0.00     0.102 A 
HETATM    4  C   UNL     1     -41.997  57.396 -52.978  1.00  0.00     0.102 A 
HETATM    5  C   UNL     1     -41.118  57.768 -51.960  1.00  0.00     0.040 A 
HETATM    6  C   UNL     1     -41.022  56.998 -50.794  1.00  0.00     0.012 A 
ENDROOT
BRANCH   4   7
HETATM    7  O   UNL     1     -42.128  58.042 -54.178  1.00  0.00    -0.346 OA
BRANCH   7   8
HETATM    8  C   UNL     1     -41.521  59.316 -54.355  1.00  0.00     0.209 C 
BRANCH   8   9
HETATM    9  C   UNL     1     -42.432  60.138 -55.278  1.00  0.00     0.168 C 
BRANCH   9  10
HETATM   10  O   UNL     1     -41.686  60.853 -56.275  1.00  0.00    -0.392 OA
HETATM   11  H   UNL     1     -40.841  60.379 -56.421  1.00  0.00     0.210 HD
ENDBRANCH   9  10
BRANCH   9  12
HETATM   12  C   UNL     1     -43.260  61.171 -54.486  1.00  0.00     0.268 C 
BRANCH  12  13
HETATM   13  N   UNL     1     -43.602  60.583 -53.115  1.00  0.00    -0.067 N 
HETATM   14  H   UNL     1     -42.869  59.863 -52.974  1.00  0.00     0.280 HD
HETATM   15  C   UNL     1     -43.471  61.604 -51.995  1.00  0.00     0.245 C 
HETATM   16  C   UNL     1     -43.577  60.952 -50.617  1.00  0.00     0.101 C 
HETATM   17  S   UNL     1     -45.192  60.160 -50.367  1.00  0.00    -0.166 SA
HETATM   18  C   UNL     1     -45.197  59.096 -51.839  1.00  0.00     0.101 C 
HETATM   19  C   UNL     1     -44.954  59.889 -53.123  1.00  0.00     0.245 C 
ENDBRANCH  12  13
ENDBRANCH   9  12
ENDBRANCH   8   9
ENDBRANCH   7   8
ENDBRANCH   4   7
BRANCH   3  20
HETATM   20  O   UNL     1     -43.664  55.984 -53.853  1.00  0.00    -0.353 OA
HETATM   21  C   UNL     1     -43.559  54.716 -54.488  1.00  0.00     0.210 C 
ENDBRANCH   3  20
BRANCH   1  22
HETATM   22  C   UNL     1     -41.682  55.012 -49.381  1.00  0.00     0.271 C 
BRANCH  22  23
HETATM   23  N   UNL     1     -41.217  53.644 -49.682  1.00  0.00    -0.066 N 
HETATM   24  H   UNL     1     -41.886  53.140 -50.278  1.00  0.00     0.277 HD
HETATM   25  H   UNL     1     -41.181  53.059 -48.832  1.00  0.00     0.277 HD
BRANCH  23  26
HETATM   26  C   UNL     1     -39.853  53.532 -50.302  1.00  0.00     0.293 C 
BRANCH  26  27
HETATM   27  C   UNL     1     -39.882  52.576 -51.460  1.00  0.00     0.077 A 
HETATM   28  C   UNL     1     -40.186  53.003 -52.744  1.00  0.00     0.145 A 
HETATM   29  N   UNL     1     -40.188  52.161 -53.796  1.00  0.00    -0.262 NA
HETATM   30  C   UNL     1     -39.872  50.866 -53.545  1.00  0.00     0.048 A 
HETATM   31  C   UNL     1     -39.865  49.907 -54.694  1.00  0.00     0.072 C 
HETATM   32  C   UNL     1     -39.564  50.441 -52.257  1.00  0.00     0.143 A 
HETATM   33  N   UNL     1     -39.557  51.279 -51.186  1.00  0.00    -0.260 NA
ENDBRANCH  26  27
ENDBRANCH  23  26
ENDBRANCH  22  23
ENDBRANCH   1  22
TORSDOF 11
ENDMDL
MODEL 9
REMARK VINA RESULT:      -6.5      1.357      1.785
REMARK  11 active torsions:
REMARK  status: ('A' for Active; 'I' for Inactive)
REMARK    1  A    between atoms: C_5  and  C_6 
REMARK    2  A    between atoms: C_6  and  N_7 
REMARK    3  A    between atoms: N_7  and  C_10 
REMARK    4  A    between atoms: C_10  and  C_11 
REMARK    5  A    between atoms: C_13  and  O_14 
REMARK    6  A    between atoms: C_16  and  O_17 
REMARK    7  A    between atoms: O_17  and  C_18 
REMARK    8  A    between atoms: C_18  and  C_19 
REMARK    9  A    between atoms: C_19  and  O_20 
REMARK   10  A    between atoms: C_19  and  C_21 
REMARK   11  A    between atoms: C_21  and  N_22 
ROOT
HETATM    1  C   UNL     1     -41.492  57.105 -51.585  1.00  0.00    -0.030 A 
HETATM    2  C   UNL     1     -41.698  58.484 -51.408  1.00  0.00     0.048 A 
HETATM    3  C   UNL     1     -41.671  59.358 -52.504  1.00  0.00     0.102 A 
HETATM    4  C   UNL     1     -41.425  58.854 -53.798  1.00  0.00     0.102 A 
HETATM    5  C   UNL     1     -41.187  57.490 -53.971  1.00  0.00     0.040 A 
HETATM    6  C   UNL     1     -41.223  56.622 -52.873  1.00  0.00     0.012 A 
ENDROOT
BRANCH   4   7
HETATM    7  O   UNL     1     -41.471  59.778 -54.807  1.00  0.00    -0.346 OA
BRANCH   7   8
HETATM    8  C   UNL     1     -42.546  59.744 -55.737  1.00  0.00     0.209 C 
BRANCH   8   9
HETATM    9  C   UNL     1     -41.944  59.866 -57.144  1.00  0.00     0.168 C 
BRANCH   9  10
HETATM   10  O   UNL     1     -41.113  61.030 -57.278  1.00  0.00    -0.392 OA
HETATM   11  H   UNL     1     -40.225  60.810 -56.930  1.00  0.00     0.210 HD
ENDBRANCH   9  10
BRANCH   9  12
HETATM   12  C   UNL     1     -43.041  59.950 -58.226  1.00  0.00     0.268 C 
BRANCH  12  13
HETATM   13  N   UNL     1     -43.491  58.531 -58.584  1.00  0.00    -0.067 N 
HETATM   14  H   UNL     1     -43.536  58.056 -57.664  1.00  0.00     0.280 HD
HETATM   15  C   UNL     1     -44.884  58.499 -59.194  1.00  0.00     0.245 C 
HETATM   16  C   UNL     1     -45.415  57.072 -59.321  1.00  0.00     0.101 C 
HETATM   17  S   UNL     1     -44.380  56.062 -60.420  1.00  0.00    -0.166 SA
HETATM   18  C   UNL     1     -42.782  56.329 -59.599  1.00  0.00     0.101 C 
HETATM   19  C   UNL     1     -42.459  57.814 -59.438  1.00  0.00     0.245 C 
ENDBRANCH  12  13
ENDBRANCH   9  12
ENDBRANCH   8   9
ENDBRANCH   7   8
ENDBRANCH   4   7
BRANCH   3  20
HETATM   20  O   UNL     1     -41.869  60.715 -52.427  1.00  0.00    -0.353 OA
HETATM   21  C   UNL     1     -42.955  61.189 -51.641  1.00  0.00     0.210 C 
ENDBRANCH   3  20
BRANCH   1  22
HETATM   22  C   UNL     1     -41.553  56.163 -50.412  1.00  0.00     0.271 C 
BRANCH  22  23
HETATM   23  N   UNL     1     -41.656  54.755 -50.842  1.00  0.00    -0.066 N 
HETATM   24  H   UNL     1     -41.780  54.679 -51.860  1.00  0.00     0.277 HD
HETATM   25  H   UNL     1     -42.509  54.306 -50.473  1.00  0.00     0.277 HD
BRANCH  23  26
HETATM   26  C   UNL     1     -40.522  53.856 -50.436  1.00  0.00     0.293 C 
BRANCH  26  27
HETATM   27  C   UNL     1     -40.277  52.815 -51.490  1.00  0.00     0.077 A 
HETATM   28  C   UNL     1     -40.486  53.084 -52.835  1.00  0.00     0.145 A 
HETATM   29  N   UNL     1     -40.243  52.168 -53.793  1.00  0.00    -0.262 NA
HETATM   30  C   UNL     1     -39.775  50.962 -53.384  1.00  0.00     0.048 A 
HETATM   31  C   UNL     1     -39.495  49.924 -54.426  1.00  0.00     0.072 C 
HETATM   32  C   UNL     1     -39.563  50.697 -52.036  1.00  0.00     0.143 A 
HETATM   33  N   UNL     1     -39.802  51.611 -51.057  1.00  0.00    -0.260 NA
ENDBRANCH  26  27
ENDBRANCH  23  26
ENDBRANCH  22  23
ENDBRANCH   1  22
TORSDOF 11
ENDMDL
MODEL 10
REMARK VINA RESULT:      -6.5      1.884      2.348
REMARK  11 active torsions:
REMARK  status: ('A' for Active; 'I' for Inactive)
REMARK    1  A    between atoms: C_5  and  C_6 
REMARK    2  A    between atoms: C_6  and  N_7 
REMARK    3  A    between atoms: N_7  and  C_10 
REMARK    4  A    between atoms: C_10  and  C_11 
REMARK    5  A    between atoms: C_13  and  O_14 
REMARK    6  A    between atoms: C_16  and  O_17 
REMARK    7  A    between atoms: O_17  and  C_18 
REMARK    8  A    between atoms: C_18  and  C_19 
REMARK    9  A    between atoms: C_19  and  O_20 
REMARK   10  A    between atoms: C_19  and  C_21 
REMARK   11  A    between atoms: C_21  and  N_22 
ROOT
HETATM    1  C   UNL     1     -41.466  57.549 -51.412  1.00  0.00    -0.030 A 
HETATM    2  C   UNL     1     -42.430  58.555 -51.228  1.00  0.00     0.048 A 
HETATM    3  C   UNL     1     -42.629  59.544 -52.202  1.00  0.00     0.102 A 
HETATM    4  C   UNL     1     -41.849  59.538 -53.377  1.00  0.00     0.102 A 
HETATM    5  C   UNL     1     -40.869  58.560 -53.547  1.00  0.00     0.040 A 
HETATM    6  C   UNL     1     -40.681  57.571 -52.573  1.00  0.00     0.012 A 
ENDROOT
BRANCH   4   7
HETATM    7  O   UNL     1     -42.154  60.512 -54.289  1.00  0.00    -0.346 OA
BRANCH   7   8
HETATM    8  C   UNL     1     -42.319  60.160 -55.657  1.00  0.00     0.209 C 
BRANCH   8   9
HETATM    9  C   UNL     1     -43.781  60.442 -56.034  1.00  0.00     0.168 C 
BRANCH   9  10
HETATM   10  O   UNL     1     -44.508  61.053 -54.957  1.00  0.00    -0.392 OA
HETATM   11  H   UNL     1     -44.675  61.988 -55.195  1.00  0.00     0.210 HD
ENDBRANCH   9  10
BRANCH   9  12
HETATM   12  C   UNL     1     -44.526  59.149 -56.425  1.00  0.00     0.268 C 
BRANCH  12  13
HETATM   13  N   UNL     1     -43.830  57.958 -55.761  1.00  0.00    -0.067 N 
HETATM   14  H   UNL     1     -42.996  58.386 -55.317  1.00  0.00     0.280 HD
HETATM   15  C   UNL     1     -44.673  57.332 -54.660  1.00  0.00     0.245 C 
HETATM   16  C   UNL     1     -43.878  56.310 -53.849  1.00  0.00     0.101 C 
HETATM   17  S   UNL     1     -43.314  54.923 -54.877  1.00  0.00    -0.166 SA
HETATM   18  C   UNL     1     -42.454  55.878 -56.161  1.00  0.00     0.101 C 
HETATM   19  C   UNL     1     -43.354  56.943 -56.786  1.00  0.00     0.245 C 
ENDBRANCH  12  13
ENDBRANCH   9  12
ENDBRANCH   8   9
ENDBRANCH   7   8
ENDBRANCH   4   7
BRANCH   3  20
HETATM   20  O   UNL     1     -43.550  60.558 -52.110  1.00  0.00    -0.353 OA
HETATM   21  C   UNL     1     -43.358  61.548 -51.107  1.00  0.00     0.210 C 
ENDBRANCH   3  20
BRANCH   1  22
HETATM   22  C   UNL     1     -41.276  56.470 -50.380  1.00  0.00     0.271 C 
BRANCH  22  23
HETATM   23  N   UNL     1     -41.392  55.121 -50.968  1.00  0.00    -0.066 N 
HETATM   24  H   UNL     1     -41.369  55.153 -51.996  1.00  0.00     0.277 HD
HETATM   25  H   UNL     1     -42.314  54.699 -50.773  1.00  0.00     0.277 HD
BRANCH  23  26
HETATM   26  C   UNL     1     -40.382  54.109 -50.504  1.00  0.00     0.293 C 
BRANCH  26  27
HETATM   27  C   UNL     1     -40.174  53.058 -51.556  1.00  0.00     0.077 A 
HETATM   28  C   UNL     1     -39.711  51.792 -51.232  1.00  0.00     0.145 A 
HETATM   29  N   UNL     1     -39.546  50.831 -52.163  1.00  0.00    -0.262 NA
HETATM   30  C   UNL     1     -39.861  51.156 -53.441  1.00  0.00     0.048 A 
HETATM   31  C   UNL     1     -39.689  50.108 -54.497  1.00  0.00     0.072 C 
HETATM   32  C   UNL     1     -40.329  52.425 -53.762  1.00  0.00     0.143 A 
HETATM   33  N   UNL     1     -40.501  53.405 -52.835  1.00  0.00    -0.260 NA
ENDBRANCH  26  27
ENDBRANCH  23  26
ENDBRANCH  22  23
ENDBRANCH   1  22
TORSDOF 11
ENDMDL
