MODEL 1
REMARK VINA RESULT:      -8.8      0.000      0.000
REMARK  8 active torsions:
REMARK  status: ('A' for Active; 'I' for Inactive)
REMARK    1  A    between atoms: C_5  and  C_6 
REMARK    2  A    between atoms: C_11  and  C_12 
REMARK    3  A    between atoms: N_13  and  N_14 
REMARK    4  A    between atoms: C_20  and  C_21 
REMARK    5  A    between atoms: C_21  and  O_22 
REMARK    6  A    between atoms: O_22  and  N_23 
REMARK    7  A    between atoms: N_23  and  C_24 
REMARK    8  A    between atoms: C_24  and  C_25 
ROOT
HETATM    1  N   UNL     1     -42.368  57.314 -55.293  1.00  0.00    -0.180 N 
HETATM    2  C   UNL     1     -42.698  56.387 -56.292  1.00  0.00     0.282 C 
HETATM    3  O   UNL     1     -43.049  55.222 -56.105  1.00  0.00    -0.265 OA
HETATM    4  C   UNL     1     -42.658  56.895 -57.674  1.00  0.00     0.063 A 
HETATM    5  C   UNL     1     -42.412  58.253 -57.866  1.00  0.00     0.074 A 
HETATM    6  N   UNL     1     -42.198  59.136 -56.803  1.00  0.00    -0.230 NA
HETATM    7  C   UNL     1     -42.182  58.657 -55.594  1.00  0.00     0.157 C 
HETATM    8  C   UNL     1     -42.887  56.042 -58.763  1.00  0.00     0.019 A 
HETATM    9  C   UNL     1     -42.870  56.557 -60.059  1.00  0.00     0.001 A 
HETATM   10  C   UNL     1     -42.627  57.914 -60.262  1.00  0.00     0.002 A 
HETATM   11  C   UNL     1     -42.399  58.756 -59.169  1.00  0.00     0.032 A 
ENDROOT
BRANCH   1  12
HETATM   12  N   UNL     1     -42.431  56.971 -53.949  1.00  0.00    -0.174 NA
HETATM   13  C   UNL     1     -41.360  56.494 -53.400  1.00  0.00     0.154 C 
BRANCH  13  14
HETATM   14  C   UNL     1     -41.412  56.072 -52.020  1.00  0.00     0.031 A 
HETATM   15  C   UNL     1     -41.077  54.803 -51.453  1.00  0.00     0.100 A 
HETATM   16  N   UNL     1     -41.192  54.840 -50.113  1.00  0.00    -0.174 NA
HETATM   17  N   UNL     1     -41.641  56.072 -49.843  1.00  0.00    -0.288 N 
HETATM   18  H   UNL     1     -41.818  56.316 -48.875  1.00  0.00     0.188 HD
HETATM   19  C   UNL     1     -41.792  56.850 -50.945  1.00  0.00     0.124 A 
BRANCH  15  20
HETATM   20  C   UNL     1     -40.669  53.568 -52.129  1.00  0.00    -0.005 A 
HETATM   21  C   UNL     1     -39.855  52.622 -51.493  1.00  0.00     0.014 A 
HETATM   22  C   UNL     1     -39.469  51.451 -52.154  1.00  0.00     0.007 A 
HETATM   23  C   UNL     1     -39.871  51.213 -53.471  1.00  0.00    -0.062 A 
HETATM   24  C   UNL     1     -39.462  49.961 -54.188  1.00  0.00     0.048 C 
HETATM   25  C   UNL     1     -40.676  52.159 -54.115  1.00  0.00     0.007 A 
HETATM   26  C   UNL     1     -41.067  53.326 -53.451  1.00  0.00     0.014 A 
ENDBRANCH  15  20
ENDBRANCH  13  14
ENDBRANCH   1  12
BRANCH   7  27
HETATM   27  C   UNL     1     -41.962  59.634 -54.431  1.00  0.00     0.274 C 
BRANCH  27  28
HETATM   28  O   UNL     1     -43.074  60.382 -53.962  1.00  0.00    -0.293 OA
BRANCH  28  29
HETATM   29  N   UNL     1     -44.245  59.688 -54.286  1.00  0.00    -0.171 NA
HETATM   30  H   UNL     1     -44.626  59.136 -53.513  1.00  0.00     0.160 HD
BRANCH  29  31
HETATM   31  C   UNL     1     -45.235  60.361 -54.978  1.00  0.00     0.035 C 
HETATM   32  C   UNL     1     -45.901  61.439 -54.535  1.00  0.00     0.039 C 
BRANCH  31  33
HETATM   33  C   UNL     1     -45.543  59.853 -56.330  1.00  0.00    -0.014 A 
HETATM   34  C   UNL     1     -45.481  60.718 -57.430  1.00  0.00     0.013 A 
HETATM   35  C   UNL     1     -45.773  60.253 -58.714  1.00  0.00     0.001 A 
HETATM   36  C   UNL     1     -46.124  58.916 -58.907  1.00  0.00     0.000 A 
HETATM   37  C   UNL     1     -46.180  58.045 -57.820  1.00  0.00     0.001 A 
HETATM   38  C   UNL     1     -45.891  58.511 -56.536  1.00  0.00     0.013 A 
ENDBRANCH  31  33
ENDBRANCH  29  31
ENDBRANCH  28  29
ENDBRANCH  27  28
ENDBRANCH   7  27
TORSDOF 8
ENDMDL
MODEL 2
REMARK VINA RESULT:      -8.7      2.266      6.382
REMARK  8 active torsions:
REMARK  status: ('A' for Active; 'I' for Inactive)
REMARK    1  A    between atoms: C_5  and  C_6 
REMARK    2  A    between atoms: C_11  and  C_12 
REMARK    3  A    between atoms: N_13  and  N_14 
REMARK    4  A    between atoms: C_20  and  C_21 
REMARK    5  A    between atoms: C_21  and  O_22 
REMARK    6  A    between atoms: O_22  and  N_23 
REMARK    7  A    between atoms: N_23  and  C_24 
REMARK    8  A    between atoms: C_24  and  C_25 
ROOT
HETATM    1  N   UNL     1     -42.469  58.118 -55.582  1.00  0.00    -0.180 N 
HETATM    2  C   UNL     1     -42.170  58.814 -56.763  1.00  0.00     0.282 C 
HETATM    3  O   UNL     1     -41.738  59.965 -56.830  1.00  0.00    -0.265 OA
HETATM    4  C   UNL     1     -42.354  58.059 -58.014  1.00  0.00     0.063 A 
HETATM    5  C   UNL     1     -42.693  56.710 -57.921  1.00  0.00     0.074 A 
HETATM    6  N   UNL     1     -42.870  56.062 -56.695  1.00  0.00    -0.230 NA
HETATM    7  C   UNL     1     -42.756  56.761 -55.604  1.00  0.00     0.157 C 
HETATM    8  C   UNL     1     -42.167  58.671 -59.261  1.00  0.00     0.019 A 
HETATM    9  C   UNL     1     -42.322  57.924 -60.428  1.00  0.00     0.001 A 
HETATM   10  C   UNL     1     -42.660  56.575 -60.347  1.00  0.00     0.002 A 
HETATM   11  C   UNL     1     -42.845  55.973 -59.098  1.00  0.00     0.032 A 
ENDROOT
BRANCH   1  12
HETATM   12  N   UNL     1     -42.275  58.703 -54.338  1.00  0.00    -0.174 NA
HETATM   13  C   UNL     1     -43.217  59.460 -53.877  1.00  0.00     0.154 C 
BRANCH  13  14
HETATM   14  C   UNL     1     -43.018  60.131 -52.613  1.00  0.00     0.031 A 
HETATM   15  C   UNL     1     -42.646  59.576 -51.348  1.00  0.00     0.100 A 
HETATM   16  N   UNL     1     -42.493  60.551 -50.433  1.00  0.00    -0.174 NA
HETATM   17  N   UNL     1     -42.813  61.679 -51.079  1.00  0.00    -0.288 N 
HETATM   18  H   UNL     1     -42.782  62.552 -50.564  1.00  0.00     0.188 HD
HETATM   19  C   UNL     1     -43.136  61.487 -52.384  1.00  0.00     0.124 A 
BRANCH  15  20
HETATM   20  C   UNL     1     -42.447  58.172 -50.977  1.00  0.00    -0.005 A 
HETATM   21  C   UNL     1     -43.513  57.263 -50.965  1.00  0.00     0.014 A 
HETATM   22  C   UNL     1     -43.309  55.927 -50.603  1.00  0.00     0.007 A 
HETATM   23  C   UNL     1     -42.039  55.479 -50.226  1.00  0.00    -0.062 A 
HETATM   24  C   UNL     1     -41.810  54.050 -49.837  1.00  0.00     0.048 C 
HETATM   25  C   UNL     1     -40.973  56.386 -50.228  1.00  0.00     0.007 A 
HETATM   26  C   UNL     1     -41.177  57.719 -50.596  1.00  0.00     0.014 A 
ENDBRANCH  15  20
ENDBRANCH  13  14
ENDBRANCH   1  12
BRANCH   7  27
HETATM   27  C   UNL     1     -42.936  56.038 -54.261  1.00  0.00     0.274 C 
BRANCH  27  28
HETATM   28  O   UNL     1     -41.772  55.610 -53.568  1.00  0.00    -0.293 OA
BRANCH  28  29
HETATM   29  N   UNL     1     -41.756  54.211 -53.550  1.00  0.00    -0.171 NA
HETATM   30  H   UNL     1     -42.662  53.784 -53.758  1.00  0.00     0.160 HD
BRANCH  29  31
HETATM   31  C   UNL     1     -40.718  53.561 -54.193  1.00  0.00     0.035 C 
HETATM   32  C   UNL     1     -40.047  54.026 -55.258  1.00  0.00     0.039 C 
BRANCH  31  33
HETATM   33  C   UNL     1     -40.309  52.263 -53.618  1.00  0.00    -0.014 A 
HETATM   34  C   UNL     1     -39.935  52.185 -52.270  1.00  0.00     0.013 A 
HETATM   35  C   UNL     1     -39.543  50.966 -51.714  1.00  0.00     0.001 A 
HETATM   36  C   UNL     1     -39.528  49.814 -52.500  1.00  0.00     0.000 A 
HETATM   37  C   UNL     1     -39.908  49.879 -53.840  1.00  0.00     0.001 A 
HETATM   38  C   UNL     1     -40.297  51.099 -54.398  1.00  0.00     0.013 A 
ENDBRANCH  31  33
ENDBRANCH  29  31
ENDBRANCH  28  29
ENDBRANCH  27  28
ENDBRANCH   7  27
TORSDOF 8
ENDMDL
MODEL 3
REMARK VINA RESULT:      -8.6      2.178      6.374
REMARK  8 active torsions:
REMARK  status: ('A' for Active; 'I' for Inactive)
REMARK    1  A    between atoms: C_5  and  C_6 
REMARK    2  A    between atoms: C_11  and  C_12 
REMARK    3  A    between atoms: N_13  and  N_14 
REMARK    4  A    between atoms: C_20  and  C_21 
REMARK    5  A    between atoms: C_21  and  O_22 
REMARK    6  A    between atoms: O_22  and  N_23 
REMARK    7  A    between atoms: N_23  and  C_24 
REMARK    8  A    between atoms: C_24  and  C_25 
ROOT
HETATM    1  N   UNL     1     -41.551  55.202 -52.637  1.00  0.00    -0.180 N 
HETATM    2  C   UNL     1     -40.860  54.258 -51.862  1.00  0.00     0.282 C 
HETATM    3  O   UNL     1     -40.570  54.377 -50.672  1.00  0.00    -0.265 OA
HETATM    4  C   UNL     1     -40.506  53.004 -52.549  1.00  0.00     0.063 A 
HETATM    5  C   UNL     1     -40.973  52.814 -53.848  1.00  0.00     0.074 A 
HETATM    6  N   UNL     1     -41.751  53.765 -54.514  1.00  0.00    -0.230 NA
HETATM    7  C   UNL     1     -42.006  54.889 -53.910  1.00  0.00     0.157 C 
HETATM    8  C   UNL     1     -39.744  52.019 -51.905  1.00  0.00     0.019 A 
HETATM    9  C   UNL     1     -39.447  50.831 -52.571  1.00  0.00     0.001 A 
HETATM   10  C   UNL     1     -39.911  50.629 -53.869  1.00  0.00     0.002 A 
HETATM   11  C   UNL     1     -40.669  51.618 -54.503  1.00  0.00     0.032 A 
ENDROOT
BRANCH   1  12
HETATM   12  N   UNL     1     -41.993  56.396 -52.083  1.00  0.00    -0.174 NA
HETATM   13  C   UNL     1     -41.149  57.373 -52.009  1.00  0.00     0.154 C 
BRANCH  13  14
HETATM   14  C   UNL     1     -41.563  58.607 -51.384  1.00  0.00     0.031 A 
HETATM   15  C   UNL     1     -42.503  59.581 -51.846  1.00  0.00     0.100 A 
HETATM   16  N   UNL     1     -42.662  60.555 -50.931  1.00  0.00    -0.174 NA
HETATM   17  N   UNL     1     -41.809  60.242 -49.948  1.00  0.00    -0.288 N 
HETATM   18  H   UNL     1     -41.751  60.862 -49.148  1.00  0.00     0.188 HD
HETATM   19  C   UNL     1     -41.125  59.089 -50.166  1.00  0.00     0.124 A 
BRANCH  15  20
HETATM   20  C   UNL     1     -43.237  59.627 -53.114  1.00  0.00    -0.005 A 
HETATM   21  C   UNL     1     -44.477  58.992 -53.263  1.00  0.00     0.014 A 
HETATM   22  C   UNL     1     -45.162  59.039 -54.482  1.00  0.00     0.007 A 
HETATM   23  C   UNL     1     -44.612  59.703 -55.581  1.00  0.00    -0.062 A 
HETATM   24  C   UNL     1     -45.338  59.758 -56.892  1.00  0.00     0.048 C 
HETATM   25  C   UNL     1     -43.368  60.331 -55.441  1.00  0.00     0.007 A 
HETATM   26  C   UNL     1     -42.687  60.289 -54.221  1.00  0.00     0.014 A 
ENDBRANCH  15  20
ENDBRANCH  13  14
ENDBRANCH   1  12
BRANCH   7  27
HETATM   27  C   UNL     1     -42.874  55.923 -54.642  1.00  0.00     0.274 C 
BRANCH  27  28
HETATM   28  O   UNL     1     -42.241  56.798 -55.565  1.00  0.00    -0.293 OA
BRANCH  28  29
HETATM   29  N   UNL     1     -42.296  56.217 -56.837  1.00  0.00    -0.171 NA
HETATM   30  H   UNL     1     -42.748  55.300 -56.853  1.00  0.00     0.160 HD
BRANCH  29  31
HETATM   31  C   UNL     1     -42.690  57.008 -57.900  1.00  0.00     0.035 C 
HETATM   32  C   UNL     1     -42.172  58.205 -58.216  1.00  0.00     0.039 C 
BRANCH  31  33
HETATM   33  C   UNL     1     -43.749  56.451 -58.766  1.00  0.00    -0.014 A 
HETATM   34  C   UNL     1     -44.799  57.273 -59.199  1.00  0.00     0.013 A 
HETATM   35  C   UNL     1     -45.809  56.760 -60.014  1.00  0.00     0.001 A 
HETATM   36  C   UNL     1     -45.774  55.422 -60.408  1.00  0.00     0.000 A 
HETATM   37  C   UNL     1     -44.730  54.598 -59.991  1.00  0.00     0.001 A 
HETATM   38  C   UNL     1     -43.720  55.110 -59.172  1.00  0.00     0.013 A 
ENDBRANCH  31  33
ENDBRANCH  29  31
ENDBRANCH  28  29
ENDBRANCH  27  28
ENDBRANCH   7  27
TORSDOF 8
ENDMDL
MODEL 4
REMARK VINA RESULT:      -8.5      2.508      4.017
REMARK  8 active torsions:
REMARK  status: ('A' for Active; 'I' for Inactive)
REMARK    1  A    between atoms: C_5  and  C_6 
REMARK    2  A    between atoms: C_11  and  C_12 
REMARK    3  A    between atoms: N_13  and  N_14 
REMARK    4  A    between atoms: C_20  and  C_21 
REMARK    5  A    between atoms: C_21  and  O_22 
REMARK    6  A    between atoms: O_22  and  N_23 
REMARK    7  A    between atoms: N_23  and  C_24 
REMARK    8  A    between atoms: C_24  and  C_25 
ROOT
HETATM    1  N   UNL     1     -42.220  57.655 -54.910  1.00  0.00    -0.180 N 
HETATM    2  C   UNL     1     -42.610  56.866 -56.002  1.00  0.00     0.282 C 
HETATM    3  O   UNL     1     -43.057  55.721 -55.941  1.00  0.00    -0.265 OA
HETATM    4  C   UNL     1     -42.510  57.511 -57.324  1.00  0.00     0.063 A 
HETATM    5  C   UNL     1     -42.152  58.857 -57.371  1.00  0.00     0.074 A 
HETATM    6  N   UNL     1     -41.881  59.604 -56.220  1.00  0.00    -0.230 NA
HETATM    7  C   UNL     1     -41.922  59.001 -55.068  1.00  0.00     0.157 C 
HETATM    8  C   UNL     1     -42.793  56.798 -58.497  1.00  0.00     0.019 A 
HETATM    9  C   UNL     1     -42.715  57.441 -59.732  1.00  0.00     0.001 A 
HETATM   10  C   UNL     1     -42.360  58.788 -59.790  1.00  0.00     0.002 A 
HETATM   11  C   UNL     1     -42.080  59.489 -58.614  1.00  0.00     0.032 A 
ENDROOT
BRANCH   1  12
HETATM   12  N   UNL     1     -42.329  57.180 -53.610  1.00  0.00    -0.174 NA
HETATM   13  C   UNL     1     -41.326  56.522 -53.125  1.00  0.00     0.154 C 
BRANCH  13  14
HETATM   14  C   UNL     1     -41.434  55.964 -51.797  1.00  0.00     0.031 A 
HETATM   15  C   UNL     1     -41.146  54.636 -51.351  1.00  0.00     0.100 A 
HETATM   16  N   UNL     1     -41.306  54.540 -50.019  1.00  0.00    -0.174 NA
HETATM   17  N   UNL     1     -41.737  55.750 -49.639  1.00  0.00    -0.288 N 
HETATM   18  H   UNL     1     -41.941  55.899 -48.657  1.00  0.00     0.188 HD
HETATM   19  C   UNL     1     -41.834  56.639 -50.660  1.00  0.00     0.124 A 
BRANCH  15  20
HETATM   20  C   UNL     1     -40.742  53.466 -52.137  1.00  0.00    -0.005 A 
HETATM   21  C   UNL     1     -39.851  52.515 -51.623  1.00  0.00     0.014 A 
HETATM   22  C   UNL     1     -39.469  51.406 -52.387  1.00  0.00     0.007 A 
HETATM   23  C   UNL     1     -39.955  51.239 -53.687  1.00  0.00    -0.062 A 
HETATM   24  C   UNL     1     -39.552  50.055 -54.514  1.00  0.00     0.048 C 
HETATM   25  C   UNL     1     -40.838  52.191 -54.209  1.00  0.00     0.007 A 
HETATM   26  C   UNL     1     -41.223  53.295 -53.442  1.00  0.00     0.014 A 
ENDBRANCH  15  20
ENDBRANCH  13  14
ENDBRANCH   1  12
BRANCH   7  27
HETATM   27  C   UNL     1     -41.639  59.831 -53.807  1.00  0.00     0.274 C 
BRANCH  27  28
HETATM   28  O   UNL     1     -42.727  60.497 -53.183  1.00  0.00    -0.293 OA
BRANCH  28  29
HETATM   29  N   UNL     1     -42.971  59.888 -51.947  1.00  0.00    -0.171 NA
HETATM   30  H   UNL     1     -42.895  58.869 -51.966  1.00  0.00     0.160 HD
BRANCH  29  31
HETATM   31  C   UNL     1     -42.375  60.431 -50.823  1.00  0.00     0.035 C 
HETATM   32  C   UNL     1     -41.189  60.064 -50.315  1.00  0.00     0.039 C 
BRANCH  31  33
HETATM   33  C   UNL     1     -43.112  61.528 -50.164  1.00  0.00    -0.014 A 
HETATM   34  C   UNL     1     -42.774  62.859 -50.442  1.00  0.00     0.013 A 
HETATM   35  C   UNL     1     -43.459  63.907 -49.823  1.00  0.00     0.001 A 
HETATM   36  C   UNL     1     -44.492  63.632 -48.927  1.00  0.00     0.000 A 
HETATM   37  C   UNL     1     -44.842  62.311 -48.651  1.00  0.00     0.001 A 
HETATM   38  C   UNL     1     -44.155  61.262 -49.266  1.00  0.00     0.013 A 
ENDBRANCH  31  33
ENDBRANCH  29  31
ENDBRANCH  28  29
ENDBRANCH  27  28
ENDBRANCH   7  27
TORSDOF 8
ENDMDL
MODEL 5
REMARK VINA RESULT:      -8.4      1.705      3.626
REMARK  8 active torsions:
REMARK  status: ('A' for Active; 'I' for Inactive)
REMARK    1  A    between atoms: C_5  and  C_6 
REMARK    2  A    between atoms: C_11  and  C_12 
REMARK    3  A    between atoms: N_13  and  N_14 
REMARK    4  A    between atoms: C_20  and  C_21 
REMARK    5  A    between atoms: C_21  and  O_22 
REMARK    6  A    between atoms: O_22  and  N_23 
REMARK    7  A    between atoms: N_23  and  C_24 
REMARK    8  A    between atoms: C_24  and  C_25 
ROOT
HETATM    1  N   UNL     1     -43.468  56.436 -54.888  1.00  0.00    -0.180 N 
HETATM    2  C   UNL     1     -42.948  55.699 -55.962  1.00  0.00     0.282 C 
HETATM    3  O   UNL     1     -42.287  54.664 -55.872  1.00  0.00    -0.265 OA
HETATM    4  C   UNL     1     -43.279  56.205 -57.305  1.00  0.00     0.063 A 
HETATM    5  C   UNL     1     -44.156  57.285 -57.400  1.00  0.00     0.074 A 
HETATM    6  N   UNL     1     -44.717  57.899 -56.277  1.00  0.00    -0.230 NA
HETATM    7  C   UNL     1     -44.368  57.471 -55.099  1.00  0.00     0.157 C 
HETATM    8  C   UNL     1     -42.750  55.602 -58.455  1.00  0.00     0.019 A 
HETATM    9  C   UNL     1     -43.102  56.087 -59.713  1.00  0.00     0.001 A 
HETATM   10  C   UNL     1     -43.980  57.165 -59.820  1.00  0.00     0.002 A 
HETATM   11  C   UNL     1     -44.502  57.760 -58.668  1.00  0.00     0.032 A 
ENDROOT
BRANCH   1  12
HETATM   12  N   UNL     1     -43.277  56.022 -53.577  1.00  0.00    -0.174 NA
HETATM   13  C   UNL     1     -42.073  56.060 -53.105  1.00  0.00     0.154 C 
BRANCH  13  14
HETATM   14  C   UNL     1     -41.833  55.578 -51.764  1.00  0.00     0.031 A 
HETATM   15  C   UNL     1     -41.235  54.350 -51.341  1.00  0.00     0.100 A 
HETATM   16  N   UNL     1     -41.127  54.315 -50.000  1.00  0.00    -0.174 NA
HETATM   17  N   UNL     1     -41.692  55.455 -49.583  1.00  0.00    -0.288 N 
HETATM   18  H   UNL     1     -41.735  55.631 -48.585  1.00  0.00     0.188 HD
HETATM   19  C   UNL     1     -42.132  56.248 -50.594  1.00  0.00     0.124 A 
BRANCH  15  20
HETATM   20  C   UNL     1     -40.779  53.218 -52.152  1.00  0.00    -0.005 A 
HETATM   21  C   UNL     1     -39.899  52.258 -51.636  1.00  0.00     0.014 A 
HETATM   22  C   UNL     1     -39.467  51.186 -52.425  1.00  0.00     0.007 A 
HETATM   23  C   UNL     1     -39.891  51.064 -53.751  1.00  0.00    -0.062 A 
HETATM   24  C   UNL     1     -39.433  49.919 -54.605  1.00  0.00     0.048 C 
HETATM   25  C   UNL     1     -40.763  52.025 -54.275  1.00  0.00     0.007 A 
HETATM   26  C   UNL     1     -41.198  53.093 -53.484  1.00  0.00     0.014 A 
ENDBRANCH  15  20
ENDBRANCH  13  14
ENDBRANCH   1  12
BRANCH   7  27
HETATM   27  C   UNL     1     -45.001  58.140 -53.870  1.00  0.00     0.274 C 
BRANCH  27  28
HETATM   28  O   UNL     1     -45.046  59.559 -53.826  1.00  0.00    -0.293 OA
BRANCH  28  29
HETATM   29  N   UNL     1     -44.405  59.989 -52.659  1.00  0.00    -0.171 NA
HETATM   30  H   UNL     1     -44.337  59.269 -51.936  1.00  0.00     0.160 HD
BRANCH  29  31
HETATM   31  C   UNL     1     -43.232  60.709 -52.785  1.00  0.00     0.035 C 
HETATM   32  C   UNL     1     -43.107  61.896 -53.399  1.00  0.00     0.039 C 
BRANCH  31  33
HETATM   33  C   UNL     1     -42.035  60.117 -52.153  1.00  0.00    -0.014 A 
HETATM   34  C   UNL     1     -41.863  60.210 -50.766  1.00  0.00     0.013 A 
HETATM   35  C   UNL     1     -40.735  59.659 -50.154  1.00  0.00     0.001 A 
HETATM   36  C   UNL     1     -39.774  59.005 -50.925  1.00  0.00     0.000 A 
HETATM   37  C   UNL     1     -39.941  58.899 -52.305  1.00  0.00     0.001 A 
HETATM   38  C   UNL     1     -41.067  59.453 -52.918  1.00  0.00     0.013 A 
ENDBRANCH  31  33
ENDBRANCH  29  31
ENDBRANCH  28  29
ENDBRANCH  27  28
ENDBRANCH   7  27
TORSDOF 8
ENDMDL
MODEL 6
REMARK VINA RESULT:      -8.4      2.675      6.640
REMARK  8 active torsions:
REMARK  status: ('A' for Active; 'I' for Inactive)
REMARK    1  A    between atoms: C_5  and  C_6 
REMARK    2  A    between atoms: C_11  and  C_12 
REMARK    3  A    between atoms: N_13  and  N_14 
REMARK    4  A    between atoms: C_20  and  C_21 
REMARK    5  A    between atoms: C_21  and  O_22 
REMARK    6  A    between atoms: O_22  and  N_23 
REMARK    7  A    between atoms: N_23  and  C_24 
REMARK    8  A    between atoms: C_24  and  C_25 
ROOT
HETATM    1  N   UNL     1     -43.960  59.103 -53.294  1.00  0.00    -0.180 N 
HETATM    2  C   UNL     1     -43.659  60.442 -53.582  1.00  0.00     0.282 C 
HETATM    3  O   UNL     1     -43.501  60.919 -54.706  1.00  0.00    -0.265 OA
HETATM    4  C   UNL     1     -43.579  61.344 -52.419  1.00  0.00     0.063 A 
HETATM    5  C   UNL     1     -43.913  60.829 -51.168  1.00  0.00     0.074 A 
HETATM    6  N   UNL     1     -44.308  59.501 -50.981  1.00  0.00    -0.230 NA
HETATM    7  C   UNL     1     -44.319  58.708 -52.013  1.00  0.00     0.157 C 
HETATM    8  C   UNL     1     -43.205  62.686 -52.572  1.00  0.00     0.019 A 
HETATM    9  C   UNL     1     -43.164  63.522 -51.457  1.00  0.00     0.001 A 
HETATM   10  C   UNL     1     -43.497  63.019 -50.200  1.00  0.00     0.002 A 
HETATM   11  C   UNL     1     -43.869  61.678 -50.059  1.00  0.00     0.032 A 
ENDROOT
BRANCH   1  12
HETATM   12  N   UNL     1     -44.124  58.172 -54.311  1.00  0.00    -0.174 NA
HETATM   13  C   UNL     1     -43.173  58.059 -55.181  1.00  0.00     0.154 C 
BRANCH  13  14
HETATM   14  C   UNL     1     -43.341  57.142 -56.284  1.00  0.00     0.031 A 
HETATM   15  C   UNL     1     -42.957  55.768 -56.380  1.00  0.00     0.100 A 
HETATM   16  N   UNL     1     -43.361  55.246 -57.553  1.00  0.00    -0.174 NA
HETATM   17  N   UNL     1     -43.929  56.269 -58.204  1.00  0.00    -0.288 N 
HETATM   18  H   UNL     1     -44.295  56.100 -59.134  1.00  0.00     0.188 HD
HETATM   19  C   UNL     1     -43.944  57.426 -57.494  1.00  0.00     0.124 A 
BRANCH  15  20
HETATM   20  C   UNL     1     -42.219  54.946 -55.417  1.00  0.00    -0.005 A 
HETATM   21  C   UNL     1     -40.846  54.708 -55.562  1.00  0.00     0.014 A 
HETATM   22  C   UNL     1     -40.156  53.916 -54.638  1.00  0.00     0.007 A 
HETATM   23  C   UNL     1     -40.829  53.330 -53.562  1.00  0.00    -0.062 A 
HETATM   24  C   UNL     1     -40.099  52.479 -52.567  1.00  0.00     0.048 C 
HETATM   25  C   UNL     1     -42.203  53.557 -53.417  1.00  0.00     0.007 A 
HETATM   26  C   UNL     1     -42.890  54.354 -54.338  1.00  0.00     0.014 A 
ENDBRANCH  15  20
ENDBRANCH  13  14
ENDBRANCH   1  12
BRANCH   7  27
HETATM   27  C   UNL     1     -44.769  57.255 -51.804  1.00  0.00     0.274 C 
BRANCH  27  28
HETATM   28  O   UNL     1     -44.425  56.615 -50.583  1.00  0.00    -0.293 OA
BRANCH  28  29
HETATM   29  N   UNL     1     -43.479  55.620 -50.855  1.00  0.00    -0.171 NA
HETATM   30  H   UNL     1     -43.527  55.254 -51.809  1.00  0.00     0.160 HD
BRANCH  29  31
HETATM   31  C   UNL     1     -42.175  55.827 -50.444  1.00  0.00     0.035 C 
HETATM   32  C   UNL     1     -41.508  55.074 -49.557  1.00  0.00     0.039 C 
BRANCH  31  33
HETATM   33  C   UNL     1     -41.468  56.961 -51.074  1.00  0.00    -0.014 A 
HETATM   34  C   UNL     1     -41.144  56.908 -52.436  1.00  0.00     0.013 A 
HETATM   35  C   UNL     1     -40.472  57.970 -53.046  1.00  0.00     0.001 A 
HETATM   36  C   UNL     1     -40.126  59.096 -52.298  1.00  0.00     0.000 A 
HETATM   37  C   UNL     1     -40.453  59.162 -50.945  1.00  0.00     0.001 A 
HETATM   38  C   UNL     1     -41.122  58.099 -50.334  1.00  0.00     0.013 A 
ENDBRANCH  31  33
ENDBRANCH  29  31
ENDBRANCH  28  29
ENDBRANCH  27  28
ENDBRANCH   7  27
TORSDOF 8
ENDMDL
MODEL 7
REMARK VINA RESULT:      -8.3      1.867      6.620
REMARK  8 active torsions:
REMARK  status: ('A' for Active; 'I' for Inactive)
REMARK    1  A    between atoms: C_5  and  C_6 
REMARK    2  A    between atoms: C_11  and  C_12 
REMARK    3  A    between atoms: N_13  and  N_14 
REMARK    4  A    between atoms: C_20  and  C_21 
REMARK    5  A    between atoms: C_21  and  O_22 
REMARK    6  A    between atoms: O_22  and  N_23 
REMARK    7  A    between atoms: N_23  and  C_24 
REMARK    8  A    between atoms: C_24  and  C_25 
ROOT
HETATM    1  N   UNL     1     -41.756  55.389 -53.148  1.00  0.00    -0.180 N 
HETATM    2  C   UNL     1     -41.079  54.675 -52.149  1.00  0.00     0.282 C 
HETATM    3  O   UNL     1     -40.925  55.039 -50.983  1.00  0.00    -0.265 OA
HETATM    4  C   UNL     1     -40.558  53.356 -52.548  1.00  0.00     0.063 A 
HETATM    5  C   UNL     1     -40.872  52.886 -53.822  1.00  0.00     0.074 A 
HETATM    6  N   UNL     1     -41.648  53.619 -54.724  1.00  0.00    -0.230 NA
HETATM    7  C   UNL     1     -42.051  54.805 -54.372  1.00  0.00     0.157 C 
HETATM    8  C   UNL     1     -39.793  52.584 -51.662  1.00  0.00     0.019 A 
HETATM    9  C   UNL     1     -39.337  51.328 -52.058  1.00  0.00     0.001 A 
HETATM   10  C   UNL     1     -39.646  50.847 -53.329  1.00  0.00     0.002 A 
HETATM   11  C   UNL     1     -40.409  51.624 -54.205  1.00  0.00     0.032 A 
ENDROOT
BRANCH   1  12
HETATM   12  N   UNL     1     -42.346  56.616 -52.876  1.00  0.00    -0.174 NA
HETATM   13  C   UNL     1     -41.694  57.683 -53.210  1.00  0.00     0.154 C 
BRANCH  13  14
HETATM   14  C   UNL     1     -42.255  58.974 -52.885  1.00  0.00     0.031 A 
HETATM   15  C   UNL     1     -43.357  59.656 -53.490  1.00  0.00     0.100 A 
HETATM   16  N   UNL     1     -43.610  60.809 -52.843  1.00  0.00    -0.174 NA
HETATM   17  N   UNL     1     -42.665  60.885 -51.898  1.00  0.00    -0.288 N 
HETATM   18  H   UNL     1     -42.657  61.698 -51.293  1.00  0.00     0.188 HD
HETATM   19  C   UNL     1     -41.828  59.816 -51.878  1.00  0.00     0.124 A 
BRANCH  15  20
HETATM   20  C   UNL     1     -44.159  59.265 -54.652  1.00  0.00    -0.005 A 
HETATM   21  C   UNL     1     -45.002  58.146 -54.613  1.00  0.00     0.014 A 
HETATM   22  C   UNL     1     -45.757  57.780 -55.733  1.00  0.00     0.007 A 
HETATM   23  C   UNL     1     -45.668  58.514 -56.920  1.00  0.00    -0.062 A 
HETATM   24  C   UNL     1     -46.473  58.130 -58.126  1.00  0.00     0.048 C 
HETATM   25  C   UNL     1     -44.821  59.627 -56.967  1.00  0.00     0.007 A 
HETATM   26  C   UNL     1     -44.072  59.995 -55.845  1.00  0.00     0.014 A 
ENDBRANCH  15  20
ENDBRANCH  13  14
ENDBRANCH   1  12
BRANCH   7  27
HETATM   27  C   UNL     1     -42.915  55.599 -55.362  1.00  0.00     0.274 C 
BRANCH  27  28
HETATM   28  O   UNL     1     -43.126  55.053 -56.657  1.00  0.00    -0.293 OA
BRANCH  28  29
HETATM   29  N   UNL     1     -42.393  55.806 -57.581  1.00  0.00    -0.171 NA
HETATM   30  H   UNL     1     -41.442  55.462 -57.732  1.00  0.00     0.160 HD
BRANCH  29  31
HETATM   31  C   UNL     1     -43.009  56.164 -58.767  1.00  0.00     0.035 C 
HETATM   32  C   UNL     1     -43.776  55.362 -59.521  1.00  0.00     0.039 C 
BRANCH  31  33
HETATM   33  C   UNL     1     -42.818  57.563 -59.200  1.00  0.00    -0.014 A 
HETATM   34  C   UNL     1     -41.919  58.389 -58.512  1.00  0.00     0.013 A 
HETATM   35  C   UNL     1     -41.731  59.715 -58.907  1.00  0.00     0.001 A 
HETATM   36  C   UNL     1     -42.436  60.223 -59.998  1.00  0.00     0.000 A 
HETATM   37  C   UNL     1     -43.326  59.407 -60.695  1.00  0.00     0.001 A 
HETATM   38  C   UNL     1     -43.517  58.082 -60.298  1.00  0.00     0.013 A 
ENDBRANCH  31  33
ENDBRANCH  29  31
ENDBRANCH  28  29
ENDBRANCH  27  28
ENDBRANCH   7  27
TORSDOF 8
ENDMDL
MODEL 8
REMARK VINA RESULT:      -8.3      2.010      3.486
REMARK  8 active torsions:
REMARK  status: ('A' for Active; 'I' for Inactive)
REMARK    1  A    between atoms: C_5  and  C_6 
REMARK    2  A    between atoms: C_11  and  C_12 
REMARK    3  A    between atoms: N_13  and  N_14 
REMARK    4  A    between atoms: C_20  and  C_21 
REMARK    5  A    between atoms: C_21  and  O_22 
REMARK    6  A    between atoms: O_22  and  N_23 
REMARK    7  A    between atoms: N_23  and  C_24 
REMARK    8  A    between atoms: C_24  and  C_25 
ROOT
HETATM    1  N   UNL     1     -42.845  56.870 -55.293  1.00  0.00    -0.180 N 
HETATM    2  C   UNL     1     -42.992  55.868 -56.264  1.00  0.00     0.282 C 
HETATM    3  O   UNL     1     -43.001  54.656 -56.052  1.00  0.00    -0.265 OA
HETATM    4  C   UNL     1     -43.201  56.341 -57.644  1.00  0.00     0.063 A 
HETATM    5  C   UNL     1     -43.345  57.711 -57.852  1.00  0.00     0.074 A 
HETATM    6  N   UNL     1     -43.292  58.640 -56.808  1.00  0.00    -0.230 NA
HETATM    7  C   UNL     1     -43.052  58.206 -55.606  1.00  0.00     0.157 C 
HETATM    8  C   UNL     1     -43.279  55.436 -58.712  1.00  0.00     0.019 A 
HETATM    9  C   UNL     1     -43.503  55.911 -60.004  1.00  0.00     0.001 A 
HETATM   10  C   UNL     1     -43.651  57.279 -60.223  1.00  0.00     0.002 A 
HETATM   11  C   UNL     1     -43.571  58.173 -59.151  1.00  0.00     0.032 A 
ENDROOT
BRANCH   1  12
HETATM   12  N   UNL     1     -42.706  56.549 -53.950  1.00  0.00    -0.174 NA
HETATM   13  C   UNL     1     -41.507  56.385 -53.492  1.00  0.00     0.154 C 
BRANCH  13  14
HETATM   14  C   UNL     1     -41.333  55.992 -52.114  1.00  0.00     0.031 A 
HETATM   15  C   UNL     1     -40.865  54.749 -51.583  1.00  0.00     0.100 A 
HETATM   16  N   UNL     1     -40.779  54.811 -50.242  1.00  0.00    -0.174 NA
HETATM   17  N   UNL     1     -41.232  56.031 -49.927  1.00  0.00    -0.288 N 
HETATM   18  H   UNL     1     -41.270  56.290 -48.947  1.00  0.00     0.188 HD
HETATM   19  C   UNL     1     -41.578  56.779 -51.006  1.00  0.00     0.124 A 
BRANCH  15  20
HETATM   20  C   UNL     1     -40.515  53.515 -52.293  1.00  0.00    -0.005 A 
HETATM   21  C   UNL     1     -40.892  53.309 -53.627  1.00  0.00     0.014 A 
HETATM   22  C   UNL     1     -40.555  52.124 -54.290  1.00  0.00     0.007 A 
HETATM   23  C   UNL     1     -39.854  51.113 -53.626  1.00  0.00    -0.062 A 
HETATM   24  C   UNL     1     -39.489  49.839 -54.328  1.00  0.00     0.048 C 
HETATM   25  C   UNL     1     -39.483  51.310 -52.291  1.00  0.00     0.007 A 
HETATM   26  C   UNL     1     -39.814  52.498 -51.632  1.00  0.00     0.014 A 
ENDBRANCH  15  20
ENDBRANCH  13  14
ENDBRANCH   1  12
BRANCH   7  27
HETATM   27  C   UNL     1     -43.010  59.230 -54.462  1.00  0.00     0.274 C 
BRANCH  27  28
HETATM   28  O   UNL     1     -44.231  59.832 -54.055  1.00  0.00    -0.293 OA
BRANCH  28  29
HETATM   29  N   UNL     1     -45.001  58.869 -53.393  1.00  0.00    -0.171 NA
HETATM   30  H   UNL     1     -45.004  57.955 -53.852  1.00  0.00     0.160 HD
BRANCH  29  31
HETATM   31  C   UNL     1     -44.872  58.759 -52.020  1.00  0.00     0.035 C 
HETATM   32  C   UNL     1     -44.980  57.623 -51.315  1.00  0.00     0.039 C 
BRANCH  31  33
HETATM   33  C   UNL     1     -44.555  60.007 -51.296  1.00  0.00    -0.014 A 
HETATM   34  C   UNL     1     -45.575  60.926 -51.013  1.00  0.00     0.013 A 
HETATM   35  C   UNL     1     -45.290  62.111 -50.332  1.00  0.00     0.001 A 
HETATM   36  C   UNL     1     -43.984  62.384 -49.925  1.00  0.00     0.000 A 
HETATM   37  C   UNL     1     -42.964  61.472 -50.194  1.00  0.00     0.001 A 
HETATM   38  C   UNL     1     -43.248  60.288 -50.877  1.00  0.00     0.013 A 
ENDBRANCH  31  33
ENDBRANCH  29  31
ENDBRANCH  28  29
ENDBRANCH  27  28
ENDBRANCH   7  27
TORSDOF 8
ENDMDL
MODEL 9
REMARK VINA RESULT:      -8.2      1.463      2.084
REMARK  8 active torsions:
REMARK  status: ('A' for Active; 'I' for Inactive)
REMARK    1  A    between atoms: C_5  and  C_6 
REMARK    2  A    between atoms: C_11  and  C_12 
REMARK    3  A    between atoms: N_13  and  N_14 
REMARK    4  A    between atoms: C_20  and  C_21 
REMARK    5  A    between atoms: C_21  and  O_22 
REMARK    6  A    between atoms: O_22  and  N_23 
REMARK    7  A    between atoms: N_23  and  C_24 
REMARK    8  A    between atoms: C_24  and  C_25 
ROOT
HETATM    1  N   UNL     1     -43.529  56.827 -55.145  1.00  0.00    -0.180 N 
HETATM    2  C   UNL     1     -43.000  56.035 -56.175  1.00  0.00     0.282 C 
HETATM    3  O   UNL     1     -42.294  55.038 -56.026  1.00  0.00    -0.265 OA
HETATM    4  C   UNL     1     -43.380  56.429 -57.543  1.00  0.00     0.063 A 
HETATM    5  C   UNL     1     -44.303  57.462 -57.695  1.00  0.00     0.074 A 
HETATM    6  N   UNL     1     -44.867  58.133 -56.606  1.00  0.00    -0.230 NA
HETATM    7  C   UNL     1     -44.476  57.807 -55.408  1.00  0.00     0.157 C 
HETATM    8  C   UNL     1     -42.849  55.766 -58.658  1.00  0.00     0.019 A 
HETATM    9  C   UNL     1     -43.247  56.142 -59.940  1.00  0.00     0.001 A 
HETATM   10  C   UNL     1     -44.171  57.173 -60.104  1.00  0.00     0.002 A 
HETATM   11  C   UNL     1     -44.694  57.828 -58.985  1.00  0.00     0.032 A 
ENDROOT
BRANCH   1  12
HETATM   12  N   UNL     1     -43.294  56.518 -53.812  1.00  0.00    -0.174 NA
HETATM   13  C   UNL     1     -42.070  56.553 -53.394  1.00  0.00     0.154 C 
BRANCH  13  14
HETATM   14  C   UNL     1     -41.787  56.178 -52.028  1.00  0.00     0.031 A 
HETATM   15  C   UNL     1     -41.218  54.965 -51.526  1.00  0.00     0.100 A 
HETATM   16  N   UNL     1     -41.050  55.040 -50.193  1.00  0.00    -0.174 NA
HETATM   17  N   UNL     1     -41.550  56.235 -49.853  1.00  0.00    -0.288 N 
HETATM   18  H   UNL     1     -41.541  56.496 -48.873  1.00  0.00     0.188 HD
HETATM   19  C   UNL     1     -42.005  56.956 -50.909  1.00  0.00     0.124 A 
BRANCH  15  20
HETATM   20  C   UNL     1     -40.844  53.750 -52.255  1.00  0.00    -0.005 A 
HETATM   21  C   UNL     1     -39.900  52.852 -51.740  1.00  0.00     0.014 A 
HETATM   22  C   UNL     1     -39.548  51.699 -52.450  1.00  0.00     0.007 A 
HETATM   23  C   UNL     1     -40.118  51.432 -53.699  1.00  0.00    -0.062 A 
HETATM   24  C   UNL     1     -39.747  50.199 -54.467  1.00  0.00     0.048 C 
HETATM   25  C   UNL     1     -41.054  52.331 -54.222  1.00  0.00     0.007 A 
HETATM   26  C   UNL     1     -41.409  53.479 -53.509  1.00  0.00     0.014 A 
ENDBRANCH  15  20
ENDBRANCH  13  14
ENDBRANCH   1  12
BRANCH   7  27
HETATM   27  C   UNL     1     -45.112  58.537 -54.216  1.00  0.00     0.274 C 
BRANCH  27  28
HETATM   28  O   UNL     1     -44.874  59.931 -54.079  1.00  0.00    -0.293 OA
BRANCH  28  29
HETATM   29  N   UNL     1     -43.591  60.213 -54.563  1.00  0.00    -0.171 NA
HETATM   30  H   UNL     1     -43.088  59.390 -54.904  1.00  0.00     0.160 HD
BRANCH  29  31
HETATM   31  C   UNL     1     -43.434  61.302 -55.400  1.00  0.00     0.035 C 
HETATM   32  C   UNL     1     -43.616  62.585 -55.054  1.00  0.00     0.039 C 
BRANCH  31  33
HETATM   33  C   UNL     1     -42.994  61.002 -56.778  1.00  0.00    -0.014 A 
HETATM   34  C   UNL     1     -41.931  60.114 -56.993  1.00  0.00     0.013 A 
HETATM   35  C   UNL     1     -41.502  59.824 -58.290  1.00  0.00     0.001 A 
HETATM   36  C   UNL     1     -42.137  60.416 -59.382  1.00  0.00     0.000 A 
HETATM   37  C   UNL     1     -43.201  61.293 -59.180  1.00  0.00     0.001 A 
HETATM   38  C   UNL     1     -43.629  61.587 -57.883  1.00  0.00     0.013 A 
ENDBRANCH  31  33
ENDBRANCH  29  31
ENDBRANCH  28  29
ENDBRANCH  27  28
ENDBRANCH   7  27
TORSDOF 8
ENDMDL
MODEL 10
REMARK VINA RESULT:      -8.0      2.105      6.749
REMARK  8 active torsions:
REMARK  status: ('A' for Active; 'I' for Inactive)
REMARK    1  A    between atoms: C_5  and  C_6 
REMARK    2  A    between atoms: C_11  and  C_12 
REMARK    3  A    between atoms: N_13  and  N_14 
REMARK    4  A    between atoms: C_20  and  C_21 
REMARK    5  A    between atoms: C_21  and  O_22 
REMARK    6  A    between atoms: O_22  and  N_23 
REMARK    7  A    between atoms: N_23  and  C_24 
REMARK    8  A    between atoms: C_24  and  C_25 
ROOT
HETATM    1  N   UNL     1     -42.718  55.226 -53.378  1.00  0.00    -0.180 N 
HETATM    2  C   UNL     1     -42.193  54.505 -52.295  1.00  0.00     0.282 C 
HETATM    3  O   UNL     1     -42.510  54.648 -51.114  1.00  0.00    -0.265 OA
HETATM    4  C   UNL     1     -41.216  53.457 -52.638  1.00  0.00     0.063 A 
HETATM    5  C   UNL     1     -40.981  53.197 -53.987  1.00  0.00     0.074 A 
HETATM    6  N   UNL     1     -41.629  53.893 -55.012  1.00  0.00    -0.230 NA
HETATM    7  C   UNL     1     -42.447  54.851 -54.687  1.00  0.00     0.157 C 
HETATM    8  C   UNL     1     -40.561  52.726 -51.638  1.00  0.00     0.019 A 
HETATM    9  C   UNL     1     -39.660  51.723 -51.993  1.00  0.00     0.001 A 
HETATM   10  C   UNL     1     -39.419  51.452 -53.339  1.00  0.00     0.002 A 
HETATM   11  C   UNL     1     -40.077  52.188 -54.329  1.00  0.00     0.032 A 
ENDROOT
BRANCH   1  12
HETATM   12  N   UNL     1     -43.694  56.195 -53.187  1.00  0.00    -0.174 NA
HETATM   13  C   UNL     1     -43.309  57.365 -52.792  1.00  0.00     0.154 C 
BRANCH  13  14
HETATM   14  C   UNL     1     -44.306  58.375 -52.527  1.00  0.00     0.031 A 
HETATM   15  C   UNL     1     -44.761  59.436 -53.372  1.00  0.00     0.100 A 
HETATM   16  N   UNL     1     -45.759  60.116 -52.779  1.00  0.00    -0.174 NA
HETATM   17  N   UNL     1     -45.893  59.546 -51.575  1.00  0.00    -0.288 N 
HETATM   18  H   UNL     1     -46.591  59.920 -50.943  1.00  0.00     0.188 HD
HETATM   19  C   UNL     1     -45.050  58.501 -51.371  1.00  0.00     0.124 A 
BRANCH  15  20
HETATM   20  C   UNL     1     -44.280  59.830 -54.700  1.00  0.00    -0.005 A 
HETATM   21  C   UNL     1     -45.116  59.777 -55.823  1.00  0.00     0.014 A 
HETATM   22  C   UNL     1     -44.641  60.149 -57.086  1.00  0.00     0.007 A 
HETATM   23  C   UNL     1     -43.316  60.562 -57.253  1.00  0.00    -0.062 A 
HETATM   24  C   UNL     1     -42.798  60.963 -58.601  1.00  0.00     0.048 C 
HETATM   25  C   UNL     1     -42.474  60.608 -56.135  1.00  0.00     0.007 A 
HETATM   26  C   UNL     1     -42.952  60.241 -54.873  1.00  0.00     0.014 A 
ENDBRANCH  15  20
ENDBRANCH  13  14
ENDBRANCH   1  12
BRANCH   7  27
HETATM   27  C   UNL     1     -43.168  55.601 -55.817  1.00  0.00     0.274 C 
BRANCH  27  28
HETATM   28  O   UNL     1     -42.598  55.564 -57.117  1.00  0.00    -0.293 OA
BRANCH  28  29
HETATM   29  N   UNL     1     -42.477  56.876 -57.588  1.00  0.00    -0.171 NA
HETATM   30  H   UNL     1     -41.645  57.362 -57.247  1.00  0.00     0.160 HD
BRANCH  29  31
HETATM   31  C   UNL     1     -42.700  57.111 -58.932  1.00  0.00     0.035 C 
HETATM   32  C   UNL     1     -41.811  57.633 -59.791  1.00  0.00     0.039 C 
BRANCH  31  33
HETATM   33  C   UNL     1     -44.025  56.714 -59.450  1.00  0.00    -0.014 A 
HETATM   34  C   UNL     1     -44.120  55.711 -60.424  1.00  0.00     0.013 A 
HETATM   35  C   UNL     1     -45.366  55.328 -60.926  1.00  0.00     0.001 A 
HETATM   36  C   UNL     1     -46.526  55.940 -60.452  1.00  0.00     0.000 A 
HETATM   37  C   UNL     1     -46.443  56.933 -59.476  1.00  0.00     0.001 A 
HETATM   38  C   UNL     1     -45.197  57.319 -58.976  1.00  0.00     0.013 A 
ENDBRANCH  31  33
ENDBRANCH  29  31
ENDBRANCH  28  29
ENDBRANCH  27  28
ENDBRANCH   7  27
TORSDOF 8
ENDMDL
