MODEL 1
REMARK VINA RESULT:      -8.7      0.000      0.000
REMARK  9 active torsions:
REMARK  status: ('A' for Active; 'I' for Inactive)
REMARK    1  A    between atoms: C_3  and  O_4 
REMARK    2  A    between atoms: C_5  and  C_6 
REMARK    3  A    between atoms: C_16  and  N_17 
REMARK    4  A    between atoms: N_17  and  C_18 
REMARK    5  A    between atoms: C_18  and  N_19 
REMARK       I    between atoms: N_19  and  C_20 
REMARK    6  A    between atoms: C_20  and  C_21 
REMARK    7  A    between atoms: C_24  and  O_25 
REMARK    8  A    between atoms: O_25  and  C_26 
REMARK    9  A    between atoms: C_26  and  C_27 
ROOT
HETATM    1  N   UNL     1     -44.789  57.907 -52.784  1.00  0.00    -0.333 N 
HETATM    2  H   UNL     1     -45.805  57.889 -52.802  1.00  0.00     0.168 HD
ENDROOT
BRANCH   1   3
HETATM    3  C   UNL     1     -44.157  57.544 -53.991  1.00  0.00     0.035 A 
HETATM    4  C   UNL     1     -43.624  58.451 -54.907  1.00  0.00     0.048 A 
HETATM    5  C   UNL     1     -42.958  58.016 -56.071  1.00  0.00     0.053 A 
HETATM    6  C   UNL     1     -42.814  56.634 -56.286  1.00  0.00     0.086 A 
HETATM    7  C   UNL     1     -43.343  55.706 -55.379  1.00  0.00    -0.026 A 
HETATM    8  C   UNL     1     -43.161  54.224 -55.568  1.00  0.00     0.051 C 
HETATM    9  C   UNL     1     -43.997  56.175 -54.229  1.00  0.00     0.039 A 
BRANCH   5  10
HETATM   10  C   UNL     1     -42.455  59.042 -56.984  1.00  0.00     0.183 A 
HETATM   11  O   UNL     1     -42.776  58.899 -58.312  1.00  0.00    -0.289 OA
HETATM   12  C   UNL     1     -42.166  59.960 -58.915  1.00  0.00     0.106 A 
HETATM   13  C   UNL     1     -41.524  60.695 -57.932  1.00  0.00     0.093 A 
HETATM   14  C   UNL     1     -42.167  60.275 -60.267  1.00  0.00     0.040 A 
HETATM   15  N   UNL     1     -41.717  60.104 -56.707  1.00  0.00    -0.221 NA
HETATM   16  C   UNL     1     -40.820  61.849 -58.298  1.00  0.00     0.034 A 
HETATM   17  C   UNL     1     -40.798  62.204 -59.656  1.00  0.00     0.002 A 
HETATM   18  C   UNL     1     -41.458  61.430 -60.620  1.00  0.00     0.003 A 
ENDBRANCH   5  10
BRANCH   6  19
HETATM   19  O   UNL     1     -42.155  56.118 -57.373  1.00  0.00    -0.359 OA
HETATM   20  H   UNL     1     -42.737  56.166 -58.155  1.00  0.00     0.218 HD
ENDBRANCH   6  19
ENDBRANCH   1   3
BRANCH   1  21
HETATM   21  C   UNL     1     -44.307  58.135 -51.520  1.00  0.00     0.179 C 
HETATM   22  S   UNL     1     -44.721  59.597 -50.822  1.00  0.00    -0.040 SA
BRANCH  21  23
HETATM   23  N   UNL     1     -43.463  57.180 -50.997  1.00  0.00    -0.299 N 
HETATM   24  C   UNL     1     -42.071  57.187 -50.987  1.00  0.00     0.257 C 
HETATM   25  O   UNL     1     -41.362  58.184 -50.963  1.00  0.00    -0.267 OA
HETATM   26  H   UNL     1     -43.904  56.274 -50.945  1.00  0.00     0.171 HD
BRANCH  24  27
HETATM   27  C   UNL     1     -41.419  55.852 -50.928  1.00  0.00     0.032 A 
HETATM   28  C   UNL     1     -40.787  55.368 -49.777  1.00  0.00     0.020 A 
HETATM   29  C   UNL     1     -40.217  54.088 -49.777  1.00  0.00     0.038 A 
HETATM   30  C   UNL     1     -40.271  53.293 -50.923  1.00  0.00     0.068 A 
HETATM   31  C   UNL     1     -40.861  53.799 -52.082  1.00  0.00     0.038 A 
HETATM   32  C   UNL     1     -41.435  55.070 -52.089  1.00  0.00     0.020 A 
BRANCH  30  33
HETATM   33  O   UNL     1     -39.764  52.031 -51.049  1.00  0.00    -0.351 OA
BRANCH  33  34
HETATM   34  C   UNL     1     -39.240  51.633 -52.319  1.00  0.00     0.179 C 
BRANCH  34  35
HETATM   35  C   UNL     1     -39.940  50.382 -52.876  1.00  0.00     0.002 C 
HETATM   36  C   UNL     1     -39.640  50.188 -54.364  1.00  0.00     0.011 C 
HETATM   37  C   UNL     1     -39.525  49.144 -52.084  1.00  0.00     0.011 C 
ENDBRANCH  34  35
ENDBRANCH  33  34
ENDBRANCH  30  33
ENDBRANCH  24  27
ENDBRANCH  21  23
ENDBRANCH   1  21
TORSDOF 9
ENDMDL
MODEL 2
REMARK VINA RESULT:      -8.2      2.924      5.941
REMARK  9 active torsions:
REMARK  status: ('A' for Active; 'I' for Inactive)
REMARK    1  A    between atoms: C_3  and  O_4 
REMARK    2  A    between atoms: C_5  and  C_6 
REMARK    3  A    between atoms: C_16  and  N_17 
REMARK    4  A    between atoms: N_17  and  C_18 
REMARK    5  A    between atoms: C_18  and  N_19 
REMARK       I    between atoms: N_19  and  C_20 
REMARK    6  A    between atoms: C_20  and  C_21 
REMARK    7  A    between atoms: C_24  and  O_25 
REMARK    8  A    between atoms: O_25  and  C_26 
REMARK    9  A    between atoms: C_26  and  C_27 
ROOT
HETATM    1  N   UNL     1     -41.983  57.243 -58.842  1.00  0.00    -0.333 N 
HETATM    2  H   UNL     1     -41.115  57.029 -59.327  1.00  0.00     0.168 HD
ENDROOT
BRANCH   1   3
HETATM    3  C   UNL     1     -42.054  58.529 -58.268  1.00  0.00     0.035 A 
HETATM    4  C   UNL     1     -42.075  58.782 -56.896  1.00  0.00     0.048 A 
HETATM    5  C   UNL     1     -42.093  60.097 -56.390  1.00  0.00     0.053 A 
HETATM    6  C   UNL     1     -42.065  61.168 -57.301  1.00  0.00     0.086 A 
HETATM    7  C   UNL     1     -42.046  60.937 -58.683  1.00  0.00    -0.026 A 
HETATM    8  C   UNL     1     -41.970  62.068 -59.673  1.00  0.00     0.051 C 
HETATM    9  C   UNL     1     -42.024  59.614 -59.151  1.00  0.00     0.039 A 
BRANCH   5  10
HETATM   10  C   UNL     1     -42.140  60.262 -54.938  1.00  0.00     0.183 A 
HETATM   11  O   UNL     1     -41.266  59.500 -54.200  1.00  0.00    -0.289 OA
HETATM   12  C   UNL     1     -41.546  59.835 -52.908  1.00  0.00     0.106 A 
HETATM   13  C   UNL     1     -42.554  60.786 -52.924  1.00  0.00     0.093 A 
HETATM   14  C   UNL     1     -40.948  59.334 -51.759  1.00  0.00     0.040 A 
HETATM   15  N   UNL     1     -42.922  61.051 -54.221  1.00  0.00    -0.221 NA
HETATM   16  C   UNL     1     -43.021  61.300 -51.709  1.00  0.00     0.034 A 
HETATM   17  C   UNL     1     -42.442  60.820 -50.524  1.00  0.00     0.002 A 
HETATM   18  C   UNL     1     -41.426  59.855 -50.551  1.00  0.00     0.003 A 
ENDBRANCH   5  10
BRANCH   6  19
HETATM   19  O   UNL     1     -42.050  62.481 -56.902  1.00  0.00    -0.359 OA
HETATM   20  H   UNL     1     -41.192  62.681 -56.485  1.00  0.00     0.218 HD
ENDBRANCH   6  19
ENDBRANCH   1   3
BRANCH   1  21
HETATM   21  C   UNL     1     -42.797  56.144 -58.748  1.00  0.00     0.179 C 
HETATM   22  S   UNL     1     -43.960  55.979 -59.939  1.00  0.00    -0.040 SA
BRANCH  21  23
HETATM   23  N   UNL     1     -42.632  55.342 -57.640  1.00  0.00    -0.299 N 
HETATM   24  C   UNL     1     -43.057  55.590 -56.338  1.00  0.00     0.257 C 
HETATM   25  O   UNL     1     -44.037  56.252 -56.021  1.00  0.00    -0.267 OA
HETATM   26  H   UNL     1     -41.846  54.718 -57.740  1.00  0.00     0.171 HD
BRANCH  24  27
HETATM   27  C   UNL     1     -42.277  54.920 -55.265  1.00  0.00     0.032 A 
HETATM   28  C   UNL     1     -40.939  54.541 -55.426  1.00  0.00     0.020 A 
HETATM   29  C   UNL     1     -40.249  53.940 -54.365  1.00  0.00     0.038 A 
HETATM   30  C   UNL     1     -40.891  53.711 -53.147  1.00  0.00     0.068 A 
HETATM   31  C   UNL     1     -42.238  54.049 -53.008  1.00  0.00     0.038 A 
HETATM   32  C   UNL     1     -42.930  54.652 -54.057  1.00  0.00     0.020 A 
BRANCH  30  33
HETATM   33  O   UNL     1     -40.330  53.144 -52.038  1.00  0.00    -0.351 OA
BRANCH  33  34
HETATM   34  C   UNL     1     -40.955  53.367 -50.771  1.00  0.00     0.179 C 
BRANCH  34  35
HETATM   35  C   UNL     1     -40.221  54.428 -49.934  1.00  0.00     0.002 C 
HETATM   36  C   UNL     1     -40.851  55.812 -50.106  1.00  0.00     0.011 C 
HETATM   37  C   UNL     1     -40.213  54.027 -48.459  1.00  0.00     0.011 C 
ENDBRANCH  34  35
ENDBRANCH  33  34
ENDBRANCH  30  33
ENDBRANCH  24  27
ENDBRANCH  21  23
ENDBRANCH   1  21
TORSDOF 9
ENDMDL
MODEL 3
REMARK VINA RESULT:      -8.2      2.549      6.706
REMARK  9 active torsions:
REMARK  status: ('A' for Active; 'I' for Inactive)
REMARK    1  A    between atoms: C_3  and  O_4 
REMARK    2  A    between atoms: C_5  and  C_6 
REMARK    3  A    between atoms: C_16  and  N_17 
REMARK    4  A    between atoms: N_17  and  C_18 
REMARK    5  A    between atoms: C_18  and  N_19 
REMARK       I    between atoms: N_19  and  C_20 
REMARK    6  A    between atoms: C_20  and  C_21 
REMARK    7  A    between atoms: C_24  and  O_25 
REMARK    8  A    between atoms: O_25  and  C_26 
REMARK    9  A    between atoms: C_26  and  C_27 
ROOT
HETATM    1  N   UNL     1     -42.319  60.756 -55.362  1.00  0.00    -0.333 N 
HETATM    2  H   UNL     1     -41.774  61.583 -55.589  1.00  0.00     0.168 HD
ENDROOT
BRANCH   1   3
HETATM    3  C   UNL     1     -42.442  60.472 -53.986  1.00  0.00     0.035 A 
HETATM    4  C   UNL     1     -42.108  59.252 -53.398  1.00  0.00     0.048 A 
HETATM    5  C   UNL     1     -42.206  59.054 -52.006  1.00  0.00     0.053 A 
HETATM    6  C   UNL     1     -42.630  60.128 -51.203  1.00  0.00     0.086 A 
HETATM    7  C   UNL     1     -42.973  61.362 -51.774  1.00  0.00    -0.026 A 
HETATM    8  C   UNL     1     -43.385  62.536 -50.928  1.00  0.00     0.051 C 
HETATM    9  C   UNL     1     -42.858  61.524 -53.163  1.00  0.00     0.039 A 
BRANCH   5  10
HETATM   10  C   UNL     1     -41.857  57.733 -51.485  1.00  0.00     0.183 A 
HETATM   11  O   UNL     1     -42.671  56.689 -51.850  1.00  0.00    -0.289 OA
HETATM   12  C   UNL     1     -42.131  55.611 -51.211  1.00  0.00     0.106 A 
HETATM   13  C   UNL     1     -41.018  56.046 -50.511  1.00  0.00     0.093 A 
HETATM   14  C   UNL     1     -42.589  54.300 -51.238  1.00  0.00     0.040 A 
HETATM   15  N   UNL     1     -40.852  57.397 -50.694  1.00  0.00    -0.221 NA
HETATM   16  C   UNL     1     -40.279  55.118 -49.768  1.00  0.00     0.034 A 
HETATM   17  C   UNL     1     -40.707  53.781 -49.769  1.00  0.00     0.002 A 
HETATM   18  C   UNL     1     -41.842  53.383 -50.489  1.00  0.00     0.003 A 
ENDBRANCH   5  10
BRANCH   6  19
HETATM   19  O   UNL     1     -42.728  60.039 -49.837  1.00  0.00    -0.359 OA
HETATM   20  H   UNL     1     -43.109  60.866 -49.487  1.00  0.00     0.218 HD
ENDBRANCH   6  19
ENDBRANCH   1   3
BRANCH   1  21
HETATM   21  C   UNL     1     -42.660  60.047 -56.485  1.00  0.00     0.179 C 
HETATM   22  S   UNL     1     -43.500  60.885 -57.664  1.00  0.00    -0.040 SA
BRANCH  21  23
HETATM   23  N   UNL     1     -42.355  58.703 -56.487  1.00  0.00    -0.299 N 
HETATM   24  C   UNL     1     -43.224  57.632 -56.292  1.00  0.00     0.257 C 
HETATM   25  O   UNL     1     -44.414  57.617 -56.579  1.00  0.00    -0.267 OA
HETATM   26  H   UNL     1     -41.386  58.536 -56.265  1.00  0.00     0.171 HD
BRANCH  24  27
HETATM   27  C   UNL     1     -42.607  56.391 -55.756  1.00  0.00     0.032 A 
HETATM   28  C   UNL     1     -41.364  56.380 -55.113  1.00  0.00     0.020 A 
HETATM   29  C   UNL     1     -40.851  55.179 -54.602  1.00  0.00     0.038 A 
HETATM   30  C   UNL     1     -41.571  53.991 -54.736  1.00  0.00     0.068 A 
HETATM   31  C   UNL     1     -42.788  54.001 -55.419  1.00  0.00     0.038 A 
HETATM   32  C   UNL     1     -43.308  55.192 -55.926  1.00  0.00     0.020 A 
BRANCH  30  33
HETATM   33  O   UNL     1     -41.188  52.764 -54.277  1.00  0.00    -0.351 OA
BRANCH  33  34
HETATM   34  C   UNL     1     -40.031  52.682 -53.441  1.00  0.00     0.179 C 
BRANCH  34  35
HETATM   35  C   UNL     1     -39.473  51.251 -53.350  1.00  0.00     0.002 C 
HETATM   36  C   UNL     1     -39.504  50.729 -51.912  1.00  0.00     0.011 C 
HETATM   37  C   UNL     1     -40.256  50.317 -54.271  1.00  0.00     0.011 C 
ENDBRANCH  34  35
ENDBRANCH  33  34
ENDBRANCH  30  33
ENDBRANCH  24  27
ENDBRANCH  21  23
ENDBRANCH   1  21
TORSDOF 9
ENDMDL
MODEL 4
REMARK VINA RESULT:      -8.0      1.552      2.056
REMARK  9 active torsions:
REMARK  status: ('A' for Active; 'I' for Inactive)
REMARK    1  A    between atoms: C_3  and  O_4 
REMARK    2  A    between atoms: C_5  and  C_6 
REMARK    3  A    between atoms: C_16  and  N_17 
REMARK    4  A    between atoms: N_17  and  C_18 
REMARK    5  A    between atoms: C_18  and  N_19 
REMARK       I    between atoms: N_19  and  C_20 
REMARK    6  A    between atoms: C_20  and  C_21 
REMARK    7  A    between atoms: C_24  and  O_25 
REMARK    8  A    between atoms: O_25  and  C_26 
REMARK    9  A    between atoms: C_26  and  C_27 
ROOT
HETATM    1  N   UNL     1     -44.454  59.219 -54.373  1.00  0.00    -0.333 N 
HETATM    2  H   UNL     1     -45.405  59.559 -54.492  1.00  0.00     0.168 HD
ENDROOT
BRANCH   1   3
HETATM    3  C   UNL     1     -43.781  58.877 -55.564  1.00  0.00     0.035 A 
HETATM    4  C   UNL     1     -43.082  59.780 -56.364  1.00  0.00     0.048 A 
HETATM    5  C   UNL     1     -42.386  59.359 -57.516  1.00  0.00     0.053 A 
HETATM    6  C   UNL     1     -42.387  57.991 -57.838  1.00  0.00     0.086 A 
HETATM    7  C   UNL     1     -43.086  57.066 -57.050  1.00  0.00    -0.026 A 
HETATM    8  C   UNL     1     -43.062  55.592 -57.352  1.00  0.00     0.051 C 
HETATM    9  C   UNL     1     -43.763  57.521 -55.908  1.00  0.00     0.039 A 
BRANCH   5  10
HETATM   10  C   UNL     1     -41.703  60.384 -58.304  1.00  0.00     0.183 A 
HETATM   11  O   UNL     1     -42.005  60.438 -59.643  1.00  0.00    -0.289 OA
HETATM   12  C   UNL     1     -41.219  61.447 -60.118  1.00  0.00     0.106 A 
HETATM   13  C   UNL     1     -40.497  61.961 -59.053  1.00  0.00     0.093 A 
HETATM   14  C   UNL     1     -41.132  61.903 -61.427  1.00  0.00     0.040 A 
HETATM   15  N   UNL     1     -40.815  61.278 -57.903  1.00  0.00    -0.221 NA
HETATM   16  C   UNL     1     -39.611  63.020 -59.282  1.00  0.00     0.034 A 
HETATM   17  C   UNL     1     -39.495  63.511 -60.591  1.00  0.00     0.002 A 
HETATM   18  C   UNL     1     -40.241  62.960 -61.642  1.00  0.00     0.003 A 
ENDBRANCH   5  10
BRANCH   6  19
HETATM   19  O   UNL     1     -41.715  57.484 -58.922  1.00  0.00    -0.359 OA
HETATM   20  H   UNL     1     -41.317  56.627 -58.682  1.00  0.00     0.218 HD
ENDBRANCH   6  19
ENDBRANCH   1   3
BRANCH   1  21
HETATM   21  C   UNL     1     -44.140  59.040 -53.050  1.00  0.00     0.179 C 
HETATM   22  S   UNL     1     -44.666  60.228 -51.997  1.00  0.00    -0.040 SA
BRANCH  21  23
HETATM   23  N   UNL     1     -43.352  57.952 -52.741  1.00  0.00    -0.299 N 
HETATM   24  C   UNL     1     -41.974  57.828 -52.895  1.00  0.00     0.257 C 
HETATM   25  O   UNL     1     -41.164  58.744 -52.841  1.00  0.00    -0.267 OA
HETATM   26  H   UNL     1     -43.880  57.093 -52.741  1.00  0.00     0.171 HD
BRANCH  24  27
HETATM   27  C   UNL     1     -41.467  56.441 -53.065  1.00  0.00     0.032 A 
HETATM   28  C   UNL     1     -41.552  55.475 -52.056  1.00  0.00     0.020 A 
HETATM   29  C   UNL     1     -41.081  54.176 -52.289  1.00  0.00     0.038 A 
HETATM   30  C   UNL     1     -40.521  53.840 -53.523  1.00  0.00     0.068 A 
HETATM   31  C   UNL     1     -40.397  54.821 -54.508  1.00  0.00     0.038 A 
HETATM   32  C   UNL     1     -40.867  56.115 -54.286  1.00  0.00     0.020 A 
BRANCH  30  33
HETATM   33  O   UNL     1     -40.037  52.614 -53.878  1.00  0.00    -0.351 OA
BRANCH  33  34
HETATM   34  C   UNL     1     -39.761  51.667 -52.843  1.00  0.00     0.179 C 
BRANCH  34  35
HETATM   35  C   UNL     1     -40.057  50.221 -53.277  1.00  0.00     0.002 C 
HETATM   36  C   UNL     1     -39.638  49.975 -54.728  1.00  0.00     0.011 C 
HETATM   37  C   UNL     1     -39.355  49.233 -52.347  1.00  0.00     0.011 C 
ENDBRANCH  34  35
ENDBRANCH  33  34
ENDBRANCH  30  33
ENDBRANCH  24  27
ENDBRANCH  21  23
ENDBRANCH   1  21
TORSDOF 9
ENDMDL
MODEL 5
REMARK VINA RESULT:      -8.0      4.031      8.966
REMARK  9 active torsions:
REMARK  status: ('A' for Active; 'I' for Inactive)
REMARK    1  A    between atoms: C_3  and  O_4 
REMARK    2  A    between atoms: C_5  and  C_6 
REMARK    3  A    between atoms: C_16  and  N_17 
REMARK    4  A    between atoms: N_17  and  C_18 
REMARK    5  A    between atoms: C_18  and  N_19 
REMARK       I    between atoms: N_19  and  C_20 
REMARK    6  A    between atoms: C_20  and  C_21 
REMARK    7  A    between atoms: C_24  and  O_25 
REMARK    8  A    between atoms: O_25  and  C_26 
REMARK    9  A    between atoms: C_26  and  C_27 
ROOT
HETATM    1  N   UNL     1     -40.658  59.007 -53.188  1.00  0.00    -0.333 N 
HETATM    2  H   UNL     1     -40.257  59.737 -53.771  1.00  0.00     0.168 HD
ENDROOT
BRANCH   1   3
HETATM    3  C   UNL     1     -41.179  57.897 -53.884  1.00  0.00     0.035 A 
HETATM    4  C   UNL     1     -40.841  56.570 -53.620  1.00  0.00     0.048 A 
HETATM    5  C   UNL     1     -41.441  55.503 -54.321  1.00  0.00     0.053 A 
HETATM    6  C   UNL     1     -42.418  55.800 -55.288  1.00  0.00     0.086 A 
HETATM    7  C   UNL     1     -42.770  57.127 -55.570  1.00  0.00    -0.026 A 
HETATM    8  C   UNL     1     -43.845  57.463 -56.568  1.00  0.00     0.051 C 
HETATM    9  C   UNL     1     -42.156  58.162 -54.850  1.00  0.00     0.039 A 
BRANCH   5  10
HETATM   10  C   UNL     1     -41.003  54.147 -53.992  1.00  0.00     0.183 A 
HETATM   11  O   UNL     1     -40.611  53.921 -52.695  1.00  0.00    -0.289 OA
HETATM   12  C   UNL     1     -40.240  52.609 -52.686  1.00  0.00     0.106 A 
HETATM   13  C   UNL     1     -40.438  52.103 -53.960  1.00  0.00     0.093 A 
HETATM   14  C   UNL     1     -39.749  51.879 -51.611  1.00  0.00     0.040 A 
HETATM   15  N   UNL     1     -40.926  53.090 -54.782  1.00  0.00    -0.221 NA
HETATM   16  C   UNL     1     -40.132  50.760 -54.212  1.00  0.00     0.034 A 
HETATM   17  C   UNL     1     -39.634  49.987 -53.152  1.00  0.00     0.002 A 
HETATM   18  C   UNL     1     -39.445  50.539 -51.877  1.00  0.00     0.003 A 
ENDBRANCH   5  10
BRANCH   6  19
HETATM   19  O   UNL     1     -43.076  54.829 -55.999  1.00  0.00    -0.359 OA
HETATM   20  H   UNL     1     -43.496  54.204 -55.378  1.00  0.00     0.218 HD
ENDBRANCH   6  19
ENDBRANCH   1   3
BRANCH   1  21
HETATM   21  C   UNL     1     -40.721  59.384 -51.871  1.00  0.00     0.179 C 
HETATM   22  S   UNL     1     -39.329  59.163 -50.970  1.00  0.00    -0.040 SA
BRANCH  21  23
HETATM   23  N   UNL     1     -41.944  59.820 -51.408  1.00  0.00    -0.299 N 
HETATM   24  C   UNL     1     -42.726  60.855 -51.912  1.00  0.00     0.257 C 
HETATM   25  O   UNL     1     -42.758  61.222 -53.080  1.00  0.00    -0.267 OA
HETATM   26  H   UNL     1     -42.081  59.590 -50.436  1.00  0.00     0.171 HD
BRANCH  24  27
HETATM   27  C   UNL     1     -43.644  61.503 -50.939  1.00  0.00     0.032 A 
HETATM   28  C   UNL     1     -44.944  61.040 -50.701  1.00  0.00     0.020 A 
HETATM   29  C   UNL     1     -45.750  61.678 -49.748  1.00  0.00     0.038 A 
HETATM   30  C   UNL     1     -45.265  62.777 -49.038  1.00  0.00     0.068 A 
HETATM   31  C   UNL     1     -43.986  63.262 -49.313  1.00  0.00     0.038 A 
HETATM   32  C   UNL     1     -43.175  62.630 -50.256  1.00  0.00     0.020 A 
BRANCH  30  33
HETATM   33  O   UNL     1     -45.944  63.478 -48.081  1.00  0.00    -0.351 OA
BRANCH  33  34
HETATM   34  C   UNL     1     -46.384  62.780 -46.913  1.00  0.00     0.179 C 
BRANCH  34  35
HETATM   35  C   UNL     1     -45.215  62.182 -46.113  1.00  0.00     0.002 C 
HETATM   36  C   UNL     1     -45.022  62.904 -44.777  1.00  0.00     0.011 C 
HETATM   37  C   UNL     1     -45.440  60.688 -45.881  1.00  0.00     0.011 C 
ENDBRANCH  34  35
ENDBRANCH  33  34
ENDBRANCH  30  33
ENDBRANCH  24  27
ENDBRANCH  21  23
ENDBRANCH   1  21
TORSDOF 9
ENDMDL
MODEL 6
REMARK VINA RESULT:      -7.9      2.475      3.860
REMARK  9 active torsions:
REMARK  status: ('A' for Active; 'I' for Inactive)
REMARK    1  A    between atoms: C_3  and  O_4 
REMARK    2  A    between atoms: C_5  and  C_6 
REMARK    3  A    between atoms: C_16  and  N_17 
REMARK    4  A    between atoms: N_17  and  C_18 
REMARK    5  A    between atoms: C_18  and  N_19 
REMARK       I    between atoms: N_19  and  C_20 
REMARK    6  A    between atoms: C_20  and  C_21 
REMARK    7  A    between atoms: C_24  and  O_25 
REMARK    8  A    between atoms: O_25  and  C_26 
REMARK    9  A    between atoms: C_26  and  C_27 
ROOT
HETATM    1  N   UNL     1     -44.969  57.640 -56.482  1.00  0.00    -0.333 N 
HETATM    2  H   UNL     1     -45.269  56.669 -56.459  1.00  0.00     0.168 HD
ENDROOT
BRANCH   1   3
HETATM    3  C   UNL     1     -44.960  58.239 -57.758  1.00  0.00     0.035 A 
HETATM    4  C   UNL     1     -43.943  59.067 -58.235  1.00  0.00     0.048 A 
HETATM    5  C   UNL     1     -43.973  59.591 -59.543  1.00  0.00     0.053 A 
HETATM    6  C   UNL     1     -45.046  59.243 -60.382  1.00  0.00     0.086 A 
HETATM    7  C   UNL     1     -46.079  58.415 -59.923  1.00  0.00    -0.026 A 
HETATM    8  C   UNL     1     -47.212  57.994 -60.819  1.00  0.00     0.051 C 
HETATM    9  C   UNL     1     -46.014  57.908 -58.616  1.00  0.00     0.039 A 
BRANCH   5  10
HETATM   10  C   UNL     1     -42.874  60.469 -59.944  1.00  0.00     0.183 A 
HETATM   11  O   UNL     1     -42.075  60.958 -58.940  1.00  0.00    -0.289 OA
HETATM   12  C   UNL     1     -41.173  61.749 -59.591  1.00  0.00     0.106 A 
HETATM   13  C   UNL     1     -41.457  61.688 -60.946  1.00  0.00     0.093 A 
HETATM   14  C   UNL     1     -40.144  62.492 -59.029  1.00  0.00     0.040 A 
HETATM   15  N   UNL     1     -42.539  60.869 -61.159  1.00  0.00    -0.221 NA
HETATM   16  C   UNL     1     -40.662  62.418 -61.838  1.00  0.00     0.034 A 
HETATM   17  C   UNL     1     -39.610  63.183 -61.311  1.00  0.00     0.002 A 
HETATM   18  C   UNL     1     -39.359  63.219 -59.932  1.00  0.00     0.003 A 
ENDBRANCH   5  10
BRANCH   6  19
HETATM   19  O   UNL     1     -45.145  59.680 -61.679  1.00  0.00    -0.359 OA
HETATM   20  H   UNL     1     -44.397  59.326 -62.196  1.00  0.00     0.218 HD
ENDBRANCH   6  19
ENDBRANCH   1   3
BRANCH   1  21
HETATM   21  C   UNL     1     -44.501  58.057 -55.262  1.00  0.00     0.179 C 
HETATM   22  S   UNL     1     -45.154  59.476 -54.664  1.00  0.00    -0.040 SA
BRANCH  21  23
HETATM   23  N   UNL     1     -43.483  57.316 -54.702  1.00  0.00    -0.299 N 
HETATM   24  C   UNL     1     -42.558  56.507 -55.356  1.00  0.00     0.257 C 
HETATM   25  O   UNL     1     -42.144  56.674 -56.496  1.00  0.00    -0.267 OA
HETATM   26  H   UNL     1     -43.670  57.088 -53.737  1.00  0.00     0.171 HD
BRANCH  24  27
HETATM   27  C   UNL     1     -41.988  55.396 -54.550  1.00  0.00     0.032 A 
HETATM   28  C   UNL     1     -42.461  55.066 -53.276  1.00  0.00     0.020 A 
HETATM   29  C   UNL     1     -41.900  53.987 -52.579  1.00  0.00     0.038 A 
HETATM   30  C   UNL     1     -40.866  53.242 -53.148  1.00  0.00     0.068 A 
HETATM   31  C   UNL     1     -40.367  53.606 -54.399  1.00  0.00     0.038 A 
HETATM   32  C   UNL     1     -40.923  54.675 -55.101  1.00  0.00     0.020 A 
BRANCH  30  33
HETATM   33  O   UNL     1     -40.243  52.167 -52.579  1.00  0.00    -0.351 OA
BRANCH  33  34
HETATM   34  C   UNL     1     -39.146  51.572 -53.275  1.00  0.00     0.179 C 
BRANCH  34  35
HETATM   35  C   UNL     1     -39.368  50.074 -53.548  1.00  0.00     0.002 C 
HETATM   36  C   UNL     1     -39.643  49.304 -52.254  1.00  0.00     0.011 C 
HETATM   37  C   UNL     1     -40.516  49.880 -54.536  1.00  0.00     0.011 C 
ENDBRANCH  34  35
ENDBRANCH  33  34
ENDBRANCH  30  33
ENDBRANCH  24  27
ENDBRANCH  21  23
ENDBRANCH   1  21
TORSDOF 9
ENDMDL
MODEL 7
REMARK VINA RESULT:      -7.7      2.900      4.694
REMARK  9 active torsions:
REMARK  status: ('A' for Active; 'I' for Inactive)
REMARK    1  A    between atoms: C_3  and  O_4 
REMARK    2  A    between atoms: C_5  and  C_6 
REMARK    3  A    between atoms: C_16  and  N_17 
REMARK    4  A    between atoms: N_17  and  C_18 
REMARK    5  A    between atoms: C_18  and  N_19 
REMARK       I    between atoms: N_19  and  C_20 
REMARK    6  A    between atoms: C_20  and  C_21 
REMARK    7  A    between atoms: C_24  and  O_25 
REMARK    8  A    between atoms: O_25  and  C_26 
REMARK    9  A    between atoms: C_26  and  C_27 
ROOT
HETATM    1  N   UNL     1     -42.439  61.214 -54.282  1.00  0.00    -0.333 N 
HETATM    2  H   UNL     1     -41.651  61.851 -54.205  1.00  0.00     0.168 HD
ENDROOT
BRANCH   1   3
HETATM    3  C   UNL     1     -43.080  61.194 -55.538  1.00  0.00     0.035 A 
HETATM    4  C   UNL     1     -43.423  60.033 -56.231  1.00  0.00     0.048 A 
HETATM    5  C   UNL     1     -44.110  60.086 -57.461  1.00  0.00     0.053 A 
HETATM    6  C   UNL     1     -44.472  61.344 -57.975  1.00  0.00     0.086 A 
HETATM    7  C   UNL     1     -44.135  62.523 -57.295  1.00  0.00    -0.026 A 
HETATM    8  C   UNL     1     -44.552  63.875 -57.805  1.00  0.00     0.051 C 
HETATM    9  C   UNL     1     -43.454  62.432 -56.072  1.00  0.00     0.039 A 
BRANCH   5  10
HETATM   10  C   UNL     1     -44.405  58.817 -58.125  1.00  0.00     0.183 A 
HETATM   11  O   UNL     1     -43.546  57.774 -57.876  1.00  0.00    -0.289 OA
HETATM   12  C   UNL     1     -44.041  56.751 -58.631  1.00  0.00     0.106 A 
HETATM   13  C   UNL     1     -45.174  57.214 -59.281  1.00  0.00     0.093 A 
HETATM   14  C   UNL     1     -43.528  55.467 -58.749  1.00  0.00     0.040 A 
HETATM   15  N   UNL     1     -45.397  58.528 -58.950  1.00  0.00    -0.221 NA
HETATM   16  C   UNL     1     -45.875  56.342 -60.123  1.00  0.00     0.034 A 
HETATM   17  C   UNL     1     -45.391  55.033 -60.269  1.00  0.00     0.002 A 
HETATM   18  C   UNL     1     -44.238  54.606 -59.595  1.00  0.00     0.003 A 
ENDBRANCH   5  10
BRANCH   6  19
HETATM   19  O   UNL     1     -45.168  61.493 -59.148  1.00  0.00    -0.359 OA
HETATM   20  H   UNL     1     -44.538  61.552 -59.890  1.00  0.00     0.218 HD
ENDBRANCH   6  19
ENDBRANCH   1   3
BRANCH   1  21
HETATM   21  C   UNL     1     -42.761  60.655 -53.072  1.00  0.00     0.179 C 
HETATM   22  S   UNL     1     -43.464  61.675 -51.948  1.00  0.00    -0.040 SA
BRANCH  21  23
HETATM   23  N   UNL     1     -42.392  59.341 -52.877  1.00  0.00    -0.299 N 
HETATM   24  C   UNL     1     -41.194  58.731 -53.239  1.00  0.00     0.257 C 
HETATM   25  O   UNL     1     -40.105  59.285 -53.319  1.00  0.00    -0.267 OA
HETATM   26  H   UNL     1     -43.192  58.734 -52.788  1.00  0.00     0.171 HD
BRANCH  24  27
HETATM   27  C   UNL     1     -41.262  57.264 -53.472  1.00  0.00     0.032 A 
HETATM   28  C   UNL     1     -41.492  56.708 -54.736  1.00  0.00     0.020 A 
HETATM   29  C   UNL     1     -41.515  55.316 -54.894  1.00  0.00     0.038 A 
HETATM   30  C   UNL     1     -41.315  54.478 -53.796  1.00  0.00     0.068 A 
HETATM   31  C   UNL     1     -41.133  55.039 -52.531  1.00  0.00     0.038 A 
HETATM   32  C   UNL     1     -41.104  56.423 -52.365  1.00  0.00     0.020 A 
BRANCH  30  33
HETATM   33  O   UNL     1     -41.305  53.113 -53.819  1.00  0.00    -0.351 OA
BRANCH  33  34
HETATM   34  C   UNL     1     -40.274  52.454 -54.558  1.00  0.00     0.179 C 
BRANCH  34  35
HETATM   35  C   UNL     1     -39.593  51.338 -53.747  1.00  0.00     0.002 C 
HETATM   36  C   UNL     1     -39.698  51.595 -52.242  1.00  0.00     0.011 C 
HETATM   37  C   UNL     1     -40.201  49.981 -54.098  1.00  0.00     0.011 C 
ENDBRANCH  34  35
ENDBRANCH  33  34
ENDBRANCH  30  33
ENDBRANCH  24  27
ENDBRANCH  21  23
ENDBRANCH   1  21
TORSDOF 9
ENDMDL
MODEL 8
REMARK VINA RESULT:      -7.7      4.861      9.821
REMARK  9 active torsions:
REMARK  status: ('A' for Active; 'I' for Inactive)
REMARK    1  A    between atoms: C_3  and  O_4 
REMARK    2  A    between atoms: C_5  and  C_6 
REMARK    3  A    between atoms: C_16  and  N_17 
REMARK    4  A    between atoms: N_17  and  C_18 
REMARK    5  A    between atoms: C_18  and  N_19 
REMARK       I    between atoms: N_19  and  C_20 
REMARK    6  A    between atoms: C_20  and  C_21 
REMARK    7  A    between atoms: C_24  and  O_25 
REMARK    8  A    between atoms: O_25  and  C_26 
REMARK    9  A    between atoms: C_26  and  C_27 
ROOT
HETATM    1  N   UNL     1     -43.947  58.890 -51.161  1.00  0.00    -0.333 N 
HETATM    2  H   UNL     1     -44.287  58.457 -50.307  1.00  0.00     0.168 HD
ENDROOT
BRANCH   1   3
HETATM    3  C   UNL     1     -43.841  58.031 -52.274  1.00  0.00     0.035 A 
HETATM    4  C   UNL     1     -43.084  56.860 -52.298  1.00  0.00     0.048 A 
HETATM    5  C   UNL     1     -43.066  56.018 -53.429  1.00  0.00     0.053 A 
HETATM    6  C   UNL     1     -43.852  56.369 -54.541  1.00  0.00     0.086 A 
HETATM    7  C   UNL     1     -44.618  57.543 -54.538  1.00  0.00    -0.026 A 
HETATM    8  C   UNL     1     -45.502  57.913 -55.699  1.00  0.00     0.051 C 
HETATM    9  C   UNL     1     -44.616  58.354 -53.393  1.00  0.00     0.039 A 
BRANCH   5  10
HETATM   10  C   UNL     1     -42.222  54.825 -53.370  1.00  0.00     0.183 A 
HETATM   11  O   UNL     1     -41.553  54.598 -52.192  1.00  0.00    -0.289 OA
HETATM   12  C   UNL     1     -40.843  53.458 -52.430  1.00  0.00     0.106 A 
HETATM   13  C   UNL     1     -41.125  53.044 -53.722  1.00  0.00     0.093 A 
HETATM   14  C   UNL     1     -39.984  52.803 -51.558  1.00  0.00     0.040 A 
HETATM   15  N   UNL     1     -42.005  53.920 -54.310  1.00  0.00    -0.221 NA
HETATM   16  C   UNL     1     -40.516  51.882 -54.210  1.00  0.00     0.034 A 
HETATM   17  C   UNL     1     -39.641  51.189 -53.360  1.00  0.00     0.002 A 
HETATM   18  C   UNL     1     -39.380  51.644 -52.059  1.00  0.00     0.003 A 
ENDBRANCH   5  10
BRANCH   6  19
HETATM   19  O   UNL     1     -43.921  55.598 -55.674  1.00  0.00    -0.359 OA
HETATM   20  H   UNL     1     -43.222  54.918 -55.643  1.00  0.00     0.218 HD
ENDBRANCH   6  19
ENDBRANCH   1   3
BRANCH   1  21
HETATM   21  C   UNL     1     -43.530  60.179 -50.947  1.00  0.00     0.179 C 
HETATM   22  S   UNL     1     -41.971  60.368 -50.370  1.00  0.00    -0.040 SA
BRANCH  21  23
HETATM   23  N   UNL     1     -44.464  61.174 -51.141  1.00  0.00    -0.299 N 
HETATM   24  C   UNL     1     -45.295  61.760 -50.190  1.00  0.00     0.257 C 
HETATM   25  O   UNL     1     -45.037  61.892 -49.001  1.00  0.00    -0.267 OA
HETATM   26  H   UNL     1     -44.789  61.204 -52.095  1.00  0.00     0.171 HD
BRANCH  24  27
HETATM   27  C   UNL     1     -46.566  62.331 -50.708  1.00  0.00     0.032 A 
HETATM   28  C   UNL     1     -47.088  62.000 -51.964  1.00  0.00     0.020 A 
HETATM   29  C   UNL     1     -48.308  62.550 -52.381  1.00  0.00     0.038 A 
HETATM   30  C   UNL     1     -49.004  63.432 -51.553  1.00  0.00     0.068 A 
HETATM   31  C   UNL     1     -48.454  63.793 -50.322  1.00  0.00     0.038 A 
HETATM   32  C   UNL     1     -47.244  63.247 -49.896  1.00  0.00     0.020 A 
BRANCH  30  33
HETATM   33  O   UNL     1     -50.200  64.027 -51.837  1.00  0.00    -0.351 OA
BRANCH  33  34
HETATM   34  C   UNL     1     -50.805  63.763 -53.106  1.00  0.00     0.179 C 
BRANCH  34  35
HETATM   35  C   UNL     1     -52.092  62.931 -52.980  1.00  0.00     0.002 C 
HETATM   36  C   UNL     1     -51.821  61.442 -53.210  1.00  0.00     0.011 C 
HETATM   37  C   UNL     1     -52.732  63.148 -51.610  1.00  0.00     0.011 C 
ENDBRANCH  34  35
ENDBRANCH  33  34
ENDBRANCH  30  33
ENDBRANCH  24  27
ENDBRANCH  21  23
ENDBRANCH   1  21
TORSDOF 9
ENDMDL
MODEL 9
REMARK VINA RESULT:      -7.7      3.137      8.644
REMARK  9 active torsions:
REMARK  status: ('A' for Active; 'I' for Inactive)
REMARK    1  A    between atoms: C_3  and  O_4 
REMARK    2  A    between atoms: C_5  and  C_6 
REMARK    3  A    between atoms: C_16  and  N_17 
REMARK    4  A    between atoms: N_17  and  C_18 
REMARK    5  A    between atoms: C_18  and  N_19 
REMARK       I    between atoms: N_19  and  C_20 
REMARK    6  A    between atoms: C_20  and  C_21 
REMARK    7  A    between atoms: C_24  and  O_25 
REMARK    8  A    between atoms: O_25  and  C_26 
REMARK    9  A    between atoms: C_26  and  C_27 
ROOT
HETATM    1  N   UNL     1     -42.432  56.569 -57.787  1.00  0.00    -0.333 N 
HETATM    2  H   UNL     1     -42.301  55.822 -58.464  1.00  0.00     0.168 HD
ENDROOT
BRANCH   1   3
HETATM    3  C   UNL     1     -42.676  56.151 -56.463  1.00  0.00     0.035 A 
HETATM    4  C   UNL     1     -41.995  55.114 -55.824  1.00  0.00     0.048 A 
HETATM    5  C   UNL     1     -42.253  54.782 -54.479  1.00  0.00     0.053 A 
HETATM    6  C   UNL     1     -43.206  55.538 -53.772  1.00  0.00     0.086 A 
HETATM    7  C   UNL     1     -43.904  56.581 -54.395  1.00  0.00    -0.026 A 
HETATM    8  C   UNL     1     -44.893  57.430 -53.644  1.00  0.00     0.051 C 
HETATM    9  C   UNL     1     -43.617  56.886 -55.734  1.00  0.00     0.039 A 
BRANCH   5  10
HETATM   10  C   UNL     1     -41.506  53.665 -53.903  1.00  0.00     0.183 A 
HETATM   11  O   UNL     1     -41.328  52.562 -54.702  1.00  0.00    -0.289 OA
HETATM   12  C   UNL     1     -40.636  51.690 -53.913  1.00  0.00     0.106 A 
HETATM   13  C   UNL     1     -40.417  52.306 -52.692  1.00  0.00     0.093 A 
HETATM   14  C   UNL     1     -40.213  50.410 -54.243  1.00  0.00     0.040 A 
HETATM   15  N   UNL     1     -40.972  53.563 -52.698  1.00  0.00    -0.221 NA
HETATM   16  C   UNL     1     -39.715  51.612 -51.699  1.00  0.00     0.034 A 
HETATM   17  C   UNL     1     -39.269  50.314 -51.992  1.00  0.00     0.002 A 
HETATM   18  C   UNL     1     -39.515  49.726 -53.240  1.00  0.00     0.003 A 
ENDBRANCH   5  10
BRANCH   6  19
HETATM   19  O   UNL     1     -43.503  55.307 -52.452  1.00  0.00    -0.359 OA
HETATM   20  H   UNL     1     -43.269  56.095 -51.927  1.00  0.00     0.218 HD
ENDBRANCH   6  19
ENDBRANCH   1   3
BRANCH   1  21
HETATM   21  C   UNL     1     -42.489  57.799 -58.393  1.00  0.00     0.179 C 
HETATM   22  S   UNL     1     -42.035  57.854 -60.001  1.00  0.00    -0.040 SA
BRANCH  21  23
HETATM   23  N   UNL     1     -42.827  58.869 -57.593  1.00  0.00    -0.299 N 
HETATM   24  C   UNL     1     -41.989  59.874 -57.117  1.00  0.00     0.257 C 
HETATM   25  O   UNL     1     -40.984  60.291 -57.677  1.00  0.00    -0.267 OA
HETATM   26  H   UNL     1     -43.657  58.687 -57.051  1.00  0.00     0.171 HD
BRANCH  24  27
HETATM   27  C   UNL     1     -42.420  60.528 -55.854  1.00  0.00     0.032 A 
HETATM   28  C   UNL     1     -43.235  61.666 -55.830  1.00  0.00     0.020 A 
HETATM   29  C   UNL     1     -43.631  62.218 -54.604  1.00  0.00     0.038 A 
HETATM   30  C   UNL     1     -43.211  61.642 -53.404  1.00  0.00     0.068 A 
HETATM   31  C   UNL     1     -42.360  60.536 -53.435  1.00  0.00     0.038 A 
HETATM   32  C   UNL     1     -41.966  59.977 -54.650  1.00  0.00     0.020 A 
BRANCH  30  33
HETATM   33  O   UNL     1     -43.533  62.076 -52.149  1.00  0.00    -0.351 OA
BRANCH  33  34
HETATM   34  C   UNL     1     -43.912  61.104 -51.171  1.00  0.00     0.179 C 
BRANCH  34  35
HETATM   35  C   UNL     1     -45.292  60.490 -51.459  1.00  0.00     0.002 C 
HETATM   36  C   UNL     1     -45.612  59.351 -50.489  1.00  0.00     0.011 C 
HETATM   37  C   UNL     1     -46.376  61.565 -51.392  1.00  0.00     0.011 C 
ENDBRANCH  34  35
ENDBRANCH  33  34
ENDBRANCH  30  33
ENDBRANCH  24  27
ENDBRANCH  21  23
ENDBRANCH   1  21
TORSDOF 9
ENDMDL
MODEL 10
REMARK VINA RESULT:      -7.7      2.459      3.684
REMARK  9 active torsions:
REMARK  status: ('A' for Active; 'I' for Inactive)
REMARK    1  A    between atoms: C_3  and  O_4 
REMARK    2  A    between atoms: C_5  and  C_6 
REMARK    3  A    between atoms: C_16  and  N_17 
REMARK    4  A    between atoms: N_17  and  C_18 
REMARK    5  A    between atoms: C_18  and  N_19 
REMARK       I    between atoms: N_19  and  C_20 
REMARK    6  A    between atoms: C_20  and  C_21 
REMARK    7  A    between atoms: C_24  and  O_25 
REMARK    8  A    between atoms: O_25  and  C_26 
REMARK    9  A    between atoms: C_26  and  C_27 
ROOT
HETATM    1  N   UNL     1     -45.143  58.694 -52.534  1.00  0.00    -0.333 N 
HETATM    2  H   UNL     1     -45.970  58.104 -52.518  1.00  0.00     0.168 HD
ENDROOT
BRANCH   1   3
HETATM    3  C   UNL     1     -44.717  59.104 -53.814  1.00  0.00     0.035 A 
HETATM    4  C   UNL     1     -44.812  58.323 -54.965  1.00  0.00     0.048 A 
HETATM    5  C   UNL     1     -44.415  58.816 -56.225  1.00  0.00     0.053 A 
HETATM    6  C   UNL     1     -43.935  60.136 -56.309  1.00  0.00     0.086 A 
HETATM    7  C   UNL     1     -43.828  60.937 -55.163  1.00  0.00    -0.026 A 
HETATM    8  C   UNL     1     -43.361  62.365 -55.238  1.00  0.00     0.051 C 
HETATM    9  C   UNL     1     -44.238  60.414 -53.927  1.00  0.00     0.039 A 
BRANCH   5  10
HETATM   10  C   UNL     1     -44.529  57.915 -57.370  1.00  0.00     0.183 A 
HETATM   11  O   UNL     1     -45.695  57.980 -58.095  1.00  0.00    -0.289 OA
HETATM   12  C   UNL     1     -45.535  57.032 -59.063  1.00  0.00     0.106 A 
HETATM   13  C   UNL     1     -44.287  56.455 -58.890  1.00  0.00     0.093 A 
HETATM   14  C   UNL     1     -46.439  56.683 -60.057  1.00  0.00     0.040 A 
HETATM   15  N   UNL     1     -43.655  57.026 -57.812  1.00  0.00    -0.221 NA
HETATM   16  C   UNL     1     -43.879  55.446 -59.770  1.00  0.00     0.034 A 
HETATM   17  C   UNL     1     -44.763  55.063 -60.791  1.00  0.00     0.002 A 
HETATM   18  C   UNL     1     -46.019  55.671 -60.929  1.00  0.00     0.003 A 
ENDBRANCH   5  10
BRANCH   6  19
HETATM   19  O   UNL     1     -43.553  60.711 -57.494  1.00  0.00    -0.359 OA
HETATM   20  H   UNL     1     -42.611  60.961 -57.442  1.00  0.00     0.218 HD
ENDBRANCH   6  19
ENDBRANCH   1   3
BRANCH   1  21
HETATM   21  C   UNL     1     -44.572  58.803 -51.291  1.00  0.00     0.179 C 
HETATM   22  S   UNL     1     -45.019  60.135 -50.384  1.00  0.00    -0.040 SA
BRANCH  21  23
HETATM   23  N   UNL     1     -43.628  57.856 -50.958  1.00  0.00    -0.299 N 
HETATM   24  C   UNL     1     -42.281  57.836 -51.311  1.00  0.00     0.257 C 
HETATM   25  O   UNL     1     -41.583  58.819 -51.521  1.00  0.00    -0.267 OA
HETATM   26  H   UNL     1     -44.047  56.963 -50.748  1.00  0.00     0.171 HD
BRANCH  24  27
HETATM   27  C   UNL     1     -41.646  56.493 -51.356  1.00  0.00     0.032 A 
HETATM   28  C   UNL     1     -41.133  55.859 -50.219  1.00  0.00     0.020 A 
HETATM   29  C   UNL     1     -40.574  54.578 -50.324  1.00  0.00     0.038 A 
HETATM   30  C   UNL     1     -40.519  53.932 -51.560  1.00  0.00     0.068 A 
HETATM   31  C   UNL     1     -40.990  54.589 -52.698  1.00  0.00     0.038 A 
HETATM   32  C   UNL     1     -41.553  55.861 -52.601  1.00  0.00     0.020 A 
BRANCH  30  33
HETATM   33  O   UNL     1     -40.010  52.686 -51.793  1.00  0.00    -0.351 OA
BRANCH  33  34
HETATM   34  C   UNL     1     -40.085  52.159 -53.120  1.00  0.00     0.179 C 
BRANCH  34  35
HETATM   35  C   UNL     1     -39.461  50.758 -53.230  1.00  0.00     0.002 C 
HETATM   36  C   UNL     1     -39.596  49.980 -51.919  1.00  0.00     0.011 C 
HETATM   37  C   UNL     1     -40.102  49.980 -54.378  1.00  0.00     0.011 C 
ENDBRANCH  34  35
ENDBRANCH  33  34
ENDBRANCH  30  33
ENDBRANCH  24  27
ENDBRANCH  21  23
ENDBRANCH   1  21
TORSDOF 9
ENDMDL
