MODEL 1
REMARK VINA RESULT:      -9.7      0.000      0.000
REMARK  6 active torsions:
REMARK  status: ('A' for Active; 'I' for Inactive)
REMARK    1  A    between atoms: C_11  and  N_12 
REMARK       I    between atoms: N_12  and  C_13 
REMARK    2  A    between atoms: C_13  and  C_14 
REMARK    3  A    between atoms: N_15  and  C_17 
REMARK    4  A    between atoms: C_17  and  C_18 
REMARK    5  A    between atoms: C_26  and  S_27 
REMARK    6  A    between atoms: S_27  and  C_28 
ROOT
HETATM    1  C   UNL     1     -45.205  59.089 -52.578  1.00  0.00     0.281 C 
HETATM    2  N   UNL     1     -44.771  60.512 -52.098  1.00  0.00    -0.053 N 
HETATM    3  H   UNL     1     -45.621  60.957 -51.724  1.00  0.00     0.281 HD
HETATM    4  C   UNL     1     -44.357  61.290 -53.332  1.00  0.00     0.252 C 
HETATM    5  C   UNL     1     -45.145  60.634 -54.452  1.00  0.00     0.083 C 
HETATM    6  C   UNL     1     -45.028  59.158 -54.100  1.00  0.00     0.060 C 
ENDROOT
BRANCH   1   7
HETATM    7  C   UNL     1     -44.483  57.873 -51.941  1.00  0.00     0.253 C 
HETATM    8  N   UNL     1     -43.278  57.530 -52.536  1.00  0.00    -0.325 N 
HETATM    9  H   UNL     1     -42.979  58.017 -53.372  1.00  0.00     0.169 HD
HETATM   10  O   UNL     1     -45.002  57.266 -51.007  1.00  0.00    -0.271 OA
BRANCH   8  11
HETATM   11  C   UNL     1     -42.342  56.575 -52.063  1.00  0.00     0.036 A 
HETATM   12  C   UNL     1     -41.874  55.493 -52.812  1.00  0.00     0.059 A 
HETATM   13  C   UNL     1     -40.998  54.525 -52.275  1.00  0.00     0.041 A 
HETATM   14  N   UNL     1     -40.647  53.451 -53.111  1.00  0.00    -0.355 N 
HETATM   15  C   UNL     1     -40.607  54.651 -50.940  1.00  0.00    -0.031 A 
HETATM   16  C   UNL     1     -40.195  52.135 -52.897  1.00  0.00     0.039 A 
HETATM   17  H   UNL     1     -40.742  53.674 -54.096  1.00  0.00     0.166 HD
HETATM   18  C   UNL     1     -40.035  51.528 -51.643  1.00  0.00    -0.031 A 
HETATM   19  C   UNL     1     -39.924  51.363 -54.048  1.00  0.00     0.030 A 
HETATM   20  C   UNL     1     -39.662  50.168 -51.575  1.00  0.00     0.009 A 
HETATM   21  C   UNL     1     -40.287  52.239 -50.337  1.00  0.00     0.045 C 
HETATM   22  C   UNL     1     -39.413  49.424 -52.725  1.00  0.00     0.001 A 
HETATM   23  C   UNL     1     -39.535  50.026 -53.966  1.00  0.00     0.002 A 
HETATM   24  C   UNL     1     -39.698  53.645 -50.285  1.00  0.00     0.045 C 
HETATM   25  C   UNL     1     -41.042  55.759 -50.193  1.00  0.00     0.012 A 
HETATM   26  C   UNL     1     -41.899  56.711 -50.748  1.00  0.00     0.030 A 
ENDBRANCH   8  11
ENDBRANCH   1   7
BRANCH   2  27
HETATM   27  C   UNL     1     -43.776  60.626 -50.961  1.00  0.00     0.277 C 
BRANCH  27  28
HETATM   28  C   UNL     1     -44.257  61.511 -49.844  1.00  0.00     0.006 A 
HETATM   29  C   UNL     1     -45.182  61.016 -48.921  1.00  0.00     0.124 A 
HETATM   30  F   UNL     1     -45.650  59.768 -49.078  1.00  0.00    -0.206 F 
HETATM   31  C   UNL     1     -45.659  61.797 -47.875  1.00  0.00     0.043 A 
HETATM   32  C   UNL     1     -45.209  63.108 -47.744  1.00  0.00     0.003 A 
HETATM   33  C   UNL     1     -44.288  63.626 -48.658  1.00  0.00     0.001 A 
HETATM   34  C   UNL     1     -43.810  62.832 -49.704  1.00  0.00     0.012 A 
ENDBRANCH  27  28
ENDBRANCH   2  27
BRANCH   5  35
HETATM   35  S   UNL     1     -44.463  60.937 -56.108  1.00  0.00    -0.084 SA
BRANCH  35  36
HETATM   36  C   UNL     1     -45.344  59.713 -57.046  1.00  0.00     0.188 A 
HETATM   37  N   UNL     1     -46.667  59.875 -57.219  1.00  0.00    -0.235 NA
HETATM   38  C   UNL     1     -47.285  58.924 -57.953  1.00  0.00     0.121 A 
HETATM   39  C   UNL     1     -46.629  57.865 -58.535  1.00  0.00     0.038 A 
HETATM   40  C   UNL     1     -45.273  57.819 -58.319  1.00  0.00     0.121 A 
HETATM   41  N   UNL     1     -44.610  58.734 -57.589  1.00  0.00    -0.235 NA
ENDBRANCH  35  36
ENDBRANCH   5  35
TORSDOF 6
ENDMDL
MODEL 2
REMARK VINA RESULT:      -9.7      3.926     10.048
REMARK  6 active torsions:
REMARK  status: ('A' for Active; 'I' for Inactive)
REMARK    1  A    between atoms: C_11  and  N_12 
REMARK       I    between atoms: N_12  and  C_13 
REMARK    2  A    between atoms: C_13  and  C_14 
REMARK    3  A    between atoms: N_15  and  C_17 
REMARK    4  A    between atoms: C_17  and  C_18 
REMARK    5  A    between atoms: C_26  and  S_27 
REMARK    6  A    between atoms: S_27  and  C_28 
ROOT
HETATM    1  C   UNL     1     -43.069  54.469 -54.189  1.00  0.00     0.281 C 
HETATM    2  N   UNL     1     -42.121  53.787 -53.148  1.00  0.00    -0.053 N 
HETATM    3  H   UNL     1     -42.494  52.838 -53.005  1.00  0.00     0.281 HD
HETATM    4  C   UNL     1     -42.282  54.540 -51.842  1.00  0.00     0.252 C 
HETATM    5  C   UNL     1     -43.683  55.119 -51.929  1.00  0.00     0.083 C 
HETATM    6  C   UNL     1     -43.744  55.583 -53.378  1.00  0.00     0.060 C 
ENDROOT
BRANCH   1   7
HETATM    7  C   UNL     1     -42.427  54.985 -55.503  1.00  0.00     0.253 C 
HETATM    8  N   UNL     1     -43.194  55.897 -56.212  1.00  0.00    -0.325 N 
HETATM    9  H   UNL     1     -44.131  56.113 -55.893  1.00  0.00     0.169 HD
HETATM   10  O   UNL     1     -41.336  54.554 -55.868  1.00  0.00    -0.271 OA
BRANCH   8  11
HETATM   11  C   UNL     1     -42.789  56.643 -57.348  1.00  0.00     0.036 A 
HETATM   12  C   UNL     1     -42.210  57.913 -57.290  1.00  0.00     0.059 A 
HETATM   13  C   UNL     1     -41.890  58.651 -58.451  1.00  0.00     0.041 A 
HETATM   14  N   UNL     1     -41.368  59.942 -58.261  1.00  0.00    -0.355 N 
HETATM   15  C   UNL     1     -42.186  58.091 -59.696  1.00  0.00    -0.031 A 
HETATM   16  C   UNL     1     -41.313  61.113 -59.039  1.00  0.00     0.039 A 
HETATM   17  H   UNL     1     -40.929  60.057 -57.354  1.00  0.00     0.166 HD
HETATM   18  C   UNL     1     -41.893  61.271 -60.306  1.00  0.00    -0.031 A 
HETATM   19  C   UNL     1     -40.652  62.223 -58.467  1.00  0.00     0.030 A 
HETATM   20  C   UNL     1     -41.842  62.534 -60.937  1.00  0.00     0.009 A 
HETATM   21  C   UNL     1     -42.623  60.168 -61.029  1.00  0.00     0.045 C 
HETATM   22  C   UNL     1     -41.196  63.617 -60.347  1.00  0.00     0.001 A 
HETATM   23  C   UNL     1     -40.590  63.459 -59.112  1.00  0.00     0.002 A 
HETATM   24  C   UNL     1     -41.902  58.826 -60.979  1.00  0.00     0.045 C 
HETATM   25  C   UNL     1     -42.731  56.797 -59.762  1.00  0.00     0.012 A 
HETATM   26  C   UNL     1     -43.029  56.081 -58.600  1.00  0.00     0.030 A 
ENDBRANCH   8  11
ENDBRANCH   1   7
BRANCH   2  27
HETATM   27  C   UNL     1     -40.674  53.552 -53.526  1.00  0.00     0.277 C 
BRANCH  27  28
HETATM   28  C   UNL     1     -40.247  52.119 -53.359  1.00  0.00     0.006 A 
HETATM   29  C   UNL     1     -39.785  51.678 -52.116  1.00  0.00     0.124 A 
HETATM   30  F   UNL     1     -39.696  52.558 -51.108  1.00  0.00    -0.206 F 
HETATM   31  C   UNL     1     -39.376  50.365 -51.914  1.00  0.00     0.043 A 
HETATM   32  C   UNL     1     -39.422  49.466 -52.977  1.00  0.00     0.003 A 
HETATM   33  C   UNL     1     -39.877  49.887 -54.229  1.00  0.00     0.001 A 
HETATM   34  C   UNL     1     -40.291  51.207 -54.422  1.00  0.00     0.012 A 
ENDBRANCH  27  28
ENDBRANCH   2  27
BRANCH   5  35
HETATM   35  S   UNL     1     -43.972  56.522 -50.812  1.00  0.00    -0.084 SA
BRANCH  35  36
HETATM   36  C   UNL     1     -42.627  57.584 -51.277  1.00  0.00     0.188 A 
HETATM   37  N   UNL     1     -42.845  58.506 -52.230  1.00  0.00    -0.235 NA
HETATM   38  C   UNL     1     -41.793  59.297 -52.535  1.00  0.00     0.121 A 
HETATM   39  C   UNL     1     -40.574  59.220 -51.903  1.00  0.00     0.038 A 
HETATM   40  C   UNL     1     -40.476  58.263 -50.922  1.00  0.00     0.121 A 
HETATM   41  N   UNL     1     -41.489  57.443 -50.586  1.00  0.00    -0.235 NA
ENDBRANCH  35  36
ENDBRANCH   5  35
TORSDOF 6
ENDMDL
MODEL 3
REMARK VINA RESULT:      -9.5      2.018      2.483
REMARK  6 active torsions:
REMARK  status: ('A' for Active; 'I' for Inactive)
REMARK    1  A    between atoms: C_11  and  N_12 
REMARK       I    between atoms: N_12  and  C_13 
REMARK    2  A    between atoms: C_13  and  C_14 
REMARK    3  A    between atoms: N_15  and  C_17 
REMARK    4  A    between atoms: C_17  and  C_18 
REMARK    5  A    between atoms: C_26  and  S_27 
REMARK    6  A    between atoms: S_27  and  C_28 
ROOT
HETATM    1  C   UNL     1     -44.104  58.896 -55.060  1.00  0.00     0.281 C 
HETATM    2  N   UNL     1     -44.135  60.452 -54.910  1.00  0.00    -0.053 N 
HETATM    3  H   UNL     1     -45.002  60.670 -54.399  1.00  0.00     0.281 HD
HETATM    4  C   UNL     1     -44.272  61.030 -56.305  1.00  0.00     0.252 C 
HETATM    5  C   UNL     1     -44.963  59.926 -57.086  1.00  0.00     0.083 C 
HETATM    6  C   UNL     1     -44.253  58.682 -56.572  1.00  0.00     0.060 C 
ENDROOT
BRANCH   1   7
HETATM    7  C   UNL     1     -42.882  58.149 -54.463  1.00  0.00     0.253 C 
HETATM    8  N   UNL     1     -43.133  57.468 -53.282  1.00  0.00    -0.325 N 
HETATM    9  H   UNL     1     -44.041  57.552 -52.841  1.00  0.00     0.169 HD
HETATM   10  O   UNL     1     -41.785  58.223 -55.011  1.00  0.00    -0.271 OA
BRANCH   8  11
HETATM   11  C   UNL     1     -42.252  56.579 -52.614  1.00  0.00     0.036 A 
HETATM   12  C   UNL     1     -41.758  55.396 -53.167  1.00  0.00     0.059 A 
HETATM   13  C   UNL     1     -40.941  54.504 -52.438  1.00  0.00     0.041 A 
HETATM   14  N   UNL     1     -40.558  53.317 -53.086  1.00  0.00    -0.355 N 
HETATM   15  C   UNL     1     -40.640  54.814 -51.109  1.00  0.00    -0.031 A 
HETATM   16  C   UNL     1     -40.151  52.040 -52.656  1.00  0.00     0.039 A 
HETATM   17  H   UNL     1     -40.580  53.398 -54.096  1.00  0.00     0.166 HD
HETATM   18  C   UNL     1     -40.090  51.617 -51.321  1.00  0.00    -0.031 A 
HETATM   19  C   UNL     1     -39.818  51.109 -53.665  1.00  0.00     0.030 A 
HETATM   20  C   UNL     1     -39.752  50.275 -51.035  1.00  0.00     0.009 A 
HETATM   21  C   UNL     1     -40.415  52.510 -50.150  1.00  0.00     0.045 C 
HETATM   22  C   UNL     1     -39.441  49.372 -52.048  1.00  0.00     0.001 A 
HETATM   23  C   UNL     1     -39.465  49.792 -53.367  1.00  0.00     0.002 A 
HETATM   24  C   UNL     1     -39.801  53.901 -50.256  1.00  0.00     0.045 C 
HETATM   25  C   UNL     1     -41.101  56.023 -50.559  1.00  0.00     0.012 A 
HETATM   26  C   UNL     1     -41.898  56.896 -51.304  1.00  0.00     0.030 A 
ENDBRANCH   8  11
ENDBRANCH   1   7
BRANCH   2  27
HETATM   27  C   UNL     1     -43.055  61.127 -54.090  1.00  0.00     0.277 C 
BRANCH  27  28
HETATM   28  C   UNL     1     -43.370  61.164 -52.619  1.00  0.00     0.006 A 
HETATM   29  C   UNL     1     -42.462  60.623 -51.705  1.00  0.00     0.124 A 
HETATM   30  F   UNL     1     -41.344  60.044 -52.169  1.00  0.00    -0.206 F 
HETATM   31  C   UNL     1     -42.711  60.630 -50.338  1.00  0.00     0.043 A 
HETATM   32  C   UNL     1     -43.896  61.187 -49.864  1.00  0.00     0.003 A 
HETATM   33  C   UNL     1     -44.820  61.730 -50.760  1.00  0.00     0.001 A 
HETATM   34  C   UNL     1     -44.560  61.723 -52.133  1.00  0.00     0.012 A 
ENDBRANCH  27  28
ENDBRANCH   2  27
BRANCH   5  35
HETATM   35  S   UNL     1     -44.762  60.060 -58.886  1.00  0.00    -0.084 SA
BRANCH  35  36
HETATM   36  C   UNL     1     -45.240  58.424 -59.385  1.00  0.00     0.188 A 
HETATM   37  N   UNL     1     -46.527  58.066 -59.243  1.00  0.00    -0.235 NA
HETATM   38  C   UNL     1     -46.838  56.817 -59.651  1.00  0.00     0.121 A 
HETATM   39  C   UNL     1     -45.932  55.953 -60.218  1.00  0.00     0.038 A 
HETATM   40  C   UNL     1     -44.652  56.438 -60.345  1.00  0.00     0.121 A 
HETATM   41  N   UNL     1     -44.287  57.670 -59.946  1.00  0.00    -0.235 NA
ENDBRANCH  35  36
ENDBRANCH   5  35
TORSDOF 6
ENDMDL
MODEL 4
REMARK VINA RESULT:      -9.4      2.521      5.993
REMARK  6 active torsions:
REMARK  status: ('A' for Active; 'I' for Inactive)
REMARK    1  A    between atoms: C_11  and  N_12 
REMARK       I    between atoms: N_12  and  C_13 
REMARK    2  A    between atoms: C_13  and  C_14 
REMARK    3  A    between atoms: N_15  and  C_17 
REMARK    4  A    between atoms: C_17  and  C_18 
REMARK    5  A    between atoms: C_26  and  S_27 
REMARK    6  A    between atoms: S_27  and  C_28 
ROOT
HETATM    1  C   UNL     1     -42.987  60.102 -53.628  1.00  0.00     0.281 C 
HETATM    2  N   UNL     1     -43.889  59.659 -54.825  1.00  0.00    -0.053 N 
HETATM    3  H   UNL     1     -43.757  60.371 -55.558  1.00  0.00     0.281 HD
HETATM    4  C   UNL     1     -45.328  59.753 -54.356  1.00  0.00     0.252 C 
HETATM    5  C   UNL     1     -45.284  60.810 -53.266  1.00  0.00     0.083 C 
HETATM    6  C   UNL     1     -44.000  60.452 -52.530  1.00  0.00     0.060 C 
ENDROOT
BRANCH   1   7
HETATM    7  C   UNL     1     -41.900  59.104 -53.150  1.00  0.00     0.253 C 
HETATM    8  N   UNL     1     -42.353  58.109 -52.297  1.00  0.00    -0.325 N 
HETATM    9  H   UNL     1     -43.313  58.127 -51.975  1.00  0.00     0.169 HD
HETATM   10  O   UNL     1     -40.731  59.252 -53.495  1.00  0.00    -0.271 OA
BRANCH   8  11
HETATM   11  C   UNL     1     -41.619  56.984 -51.843  1.00  0.00     0.036 A 
HETATM   12  C   UNL     1     -41.233  55.915 -52.655  1.00  0.00     0.059 A 
HETATM   13  C   UNL     1     -40.566  54.780 -52.145  1.00  0.00     0.041 A 
HETATM   14  N   UNL     1     -40.285  53.745 -53.053  1.00  0.00    -0.355 N 
HETATM   15  C   UNL     1     -40.307  54.723 -50.773  1.00  0.00    -0.031 A 
HETATM   16  C   UNL     1     -40.051  52.362 -52.939  1.00  0.00     0.039 A 
HETATM   17  H   UNL     1     -40.241  54.068 -54.013  1.00  0.00     0.166 HD
HETATM   18  C   UNL     1     -40.115  51.626 -51.746  1.00  0.00    -0.031 A 
HETATM   19  C   UNL     1     -39.771  51.665 -54.135  1.00  0.00     0.030 A 
HETATM   20  C   UNL     1     -39.949  50.224 -51.789  1.00  0.00     0.009 A 
HETATM   21  C   UNL     1     -40.402  52.246 -50.402  1.00  0.00     0.045 C 
HETATM   22  C   UNL     1     -39.687  49.558 -52.983  1.00  0.00     0.001 A 
HETATM   23  C   UNL     1     -39.588  50.282 -54.159  1.00  0.00     0.002 A 
HETATM   24  C   UNL     1     -39.627  53.534 -50.148  1.00  0.00     0.045 C 
HETATM   25  C   UNL     1     -40.657  55.812 -49.957  1.00  0.00     0.012 A 
HETATM   26  C   UNL     1     -41.305  56.930 -50.486  1.00  0.00     0.030 A 
ENDBRANCH   8  11
ENDBRANCH   1   7
BRANCH   2  27
HETATM   27  C   UNL     1     -43.577  58.355 -55.530  1.00  0.00     0.277 C 
BRANCH  27  28
HETATM   28  C   UNL     1     -43.095  58.550 -56.942  1.00  0.00     0.006 A 
HETATM   29  C   UNL     1     -42.626  57.451 -57.668  1.00  0.00     0.124 A 
HETATM   30  F   UNL     1     -42.581  56.251 -57.071  1.00  0.00    -0.206 F 
HETATM   31  C   UNL     1     -42.167  57.583 -58.973  1.00  0.00     0.043 A 
HETATM   32  C   UNL     1     -42.168  58.839 -59.573  1.00  0.00     0.003 A 
HETATM   33  C   UNL     1     -42.627  59.952 -58.864  1.00  0.00     0.001 A 
HETATM   34  C   UNL     1     -43.092  59.810 -57.554  1.00  0.00     0.012 A 
ENDBRANCH  27  28
ENDBRANCH   2  27
BRANCH   5  35
HETATM   35  S   UNL     1     -46.695  60.751 -52.124  1.00  0.00    -0.084 SA
BRANCH  35  36
HETATM   36  C   UNL     1     -45.963  61.466 -50.673  1.00  0.00     0.188 A 
HETATM   37  N   UNL     1     -45.611  62.763 -50.711  1.00  0.00    -0.235 NA
HETATM   38  C   UNL     1     -45.073  63.260 -49.576  1.00  0.00     0.121 A 
HETATM   39  C   UNL     1     -44.917  62.527 -48.423  1.00  0.00     0.038 A 
HETATM   40  C   UNL     1     -45.342  61.222 -48.490  1.00  0.00     0.121 A 
HETATM   41  N   UNL     1     -45.876  60.675 -49.597  1.00  0.00    -0.235 NA
ENDBRANCH  35  36
ENDBRANCH   5  35
TORSDOF 6
ENDMDL
MODEL 5
REMARK VINA RESULT:      -9.4      3.248      9.162
REMARK  6 active torsions:
REMARK  status: ('A' for Active; 'I' for Inactive)
REMARK    1  A    between atoms: C_11  and  N_12 
REMARK       I    between atoms: N_12  and  C_13 
REMARK    2  A    between atoms: C_13  and  C_14 
REMARK    3  A    between atoms: N_15  and  C_17 
REMARK    4  A    between atoms: C_17  and  C_18 
REMARK    5  A    between atoms: C_26  and  S_27 
REMARK    6  A    between atoms: S_27  and  C_28 
ROOT
HETATM    1  C   UNL     1     -43.029  56.227 -52.572  1.00  0.00     0.281 C 
HETATM    2  N   UNL     1     -41.501  55.972 -52.362  1.00  0.00    -0.053 N 
HETATM    3  H   UNL     1     -41.430  55.291 -51.593  1.00  0.00     0.281 HD
HETATM    4  C   UNL     1     -40.897  57.274 -51.872  1.00  0.00     0.252 C 
HETATM    5  C   UNL     1     -42.060  57.978 -51.194  1.00  0.00     0.083 C 
HETATM    6  C   UNL     1     -43.206  57.693 -52.154  1.00  0.00     0.060 C 
ENDROOT
BRANCH   1   7
HETATM    7  C   UNL     1     -43.612  55.926 -53.978  1.00  0.00     0.253 C 
HETATM    8  N   UNL     1     -43.404  56.919 -54.923  1.00  0.00    -0.325 N 
HETATM    9  H   UNL     1     -42.970  57.791 -54.643  1.00  0.00     0.169 HD
HETATM   10  O   UNL     1     -44.242  54.890 -54.177  1.00  0.00    -0.271 OA
BRANCH   8  11
HETATM   11  C   UNL     1     -43.683  56.839 -56.311  1.00  0.00     0.036 A 
HETATM   12  C   UNL     1     -44.605  57.650 -56.977  1.00  0.00     0.059 A 
HETATM   13  C   UNL     1     -44.906  57.486 -58.347  1.00  0.00     0.041 A 
HETATM   14  N   UNL     1     -45.896  58.325 -58.887  1.00  0.00    -0.355 N 
HETATM   15  C   UNL     1     -44.269  56.459 -59.048  1.00  0.00    -0.031 A 
HETATM   16  C   UNL     1     -46.768  58.247 -59.989  1.00  0.00     0.039 A 
HETATM   17  H   UNL     1     -46.010  59.184 -58.360  1.00  0.00     0.166 HD
HETATM   18  C   UNL     1     -46.882  57.151 -60.855  1.00  0.00    -0.031 A 
HETATM   19  C   UNL     1     -47.618  59.355 -60.203  1.00  0.00     0.030 A 
HETATM   20  C   UNL     1     -47.866  57.169 -61.868  1.00  0.00     0.009 A 
HETATM   21  C   UNL     1     -46.035  55.909 -60.740  1.00  0.00     0.045 C 
HETATM   22  C   UNL     1     -48.702  58.267 -62.051  1.00  0.00     0.001 A 
HETATM   23  C   UNL     1     -48.572  59.369 -61.222  1.00  0.00     0.002 A 
HETATM   24  C   UNL     1     -44.557  56.200 -60.503  1.00  0.00     0.045 C 
HETATM   25  C   UNL     1     -43.311  55.665 -58.394  1.00  0.00     0.012 A 
HETATM   26  C   UNL     1     -43.021  55.854 -57.041  1.00  0.00     0.030 A 
ENDBRANCH   8  11
ENDBRANCH   1   7
BRANCH   2  27
HETATM   27  C   UNL     1     -40.707  55.333 -53.482  1.00  0.00     0.277 C 
BRANCH  27  28
HETATM   28  C   UNL     1     -40.364  53.893 -53.214  1.00  0.00     0.006 A 
HETATM   29  C   UNL     1     -40.181  53.016 -54.287  1.00  0.00     0.124 A 
HETATM   30  F   UNL     1     -40.355  53.475 -55.535  1.00  0.00    -0.206 F 
HETATM   31  C   UNL     1     -39.868  51.677 -54.088  1.00  0.00     0.043 A 
HETATM   32  C   UNL     1     -39.737  51.192 -52.789  1.00  0.00     0.003 A 
HETATM   33  C   UNL     1     -39.921  52.050 -51.702  1.00  0.00     0.001 A 
HETATM   34  C   UNL     1     -40.230  53.397 -51.911  1.00  0.00     0.012 A 
ENDBRANCH  27  28
ENDBRANCH   2  27
BRANCH   5  35
HETATM   35  S   UNL     1     -41.831  59.770 -51.011  1.00  0.00    -0.084 SA
BRANCH  35  36
HETATM   36  C   UNL     1     -42.439  60.333 -52.581  1.00  0.00     0.188 A 
HETATM   37  N   UNL     1     -43.549  61.091 -52.599  1.00  0.00    -0.235 NA
HETATM   38  C   UNL     1     -43.959  61.505 -53.818  1.00  0.00     0.121 A 
HETATM   39  C   UNL     1     -43.287  61.222 -54.983  1.00  0.00     0.038 A 
HETATM   40  C   UNL     1     -42.147  60.468 -54.841  1.00  0.00     0.121 A 
HETATM   41  N   UNL     1     -41.700  60.023 -53.653  1.00  0.00    -0.235 NA
ENDBRANCH  35  36
ENDBRANCH   5  35
TORSDOF 6
ENDMDL
MODEL 6
REMARK VINA RESULT:      -9.2      3.219      6.925
REMARK  6 active torsions:
REMARK  status: ('A' for Active; 'I' for Inactive)
REMARK    1  A    between atoms: C_11  and  N_12 
REMARK       I    between atoms: N_12  and  C_13 
REMARK    2  A    between atoms: C_13  and  C_14 
REMARK    3  A    between atoms: N_15  and  C_17 
REMARK    4  A    between atoms: C_17  and  C_18 
REMARK    5  A    between atoms: C_26  and  S_27 
REMARK    6  A    between atoms: S_27  and  C_28 
ROOT
HETATM    1  C   UNL     1     -44.977  60.728 -50.024  1.00  0.00     0.281 C 
HETATM    2  N   UNL     1     -45.719  61.962 -50.634  1.00  0.00    -0.053 N 
HETATM    3  H   UNL     1     -44.988  62.659 -50.841  1.00  0.00     0.281 HD
HETATM    4  C   UNL     1     -46.597  62.537 -49.540  1.00  0.00     0.252 C 
HETATM    5  C   UNL     1     -45.895  62.123 -48.259  1.00  0.00     0.083 C 
HETATM    6  C   UNL     1     -45.478  60.694 -48.574  1.00  0.00     0.060 C 
ENDROOT
BRANCH   1   7
HETATM    7  C   UNL     1     -45.143  59.368 -50.752  1.00  0.00     0.253 C 
HETATM    8  N   UNL     1     -44.142  59.065 -51.663  1.00  0.00    -0.325 N 
HETATM    9  H   UNL     1     -43.424  59.752 -51.860  1.00  0.00     0.169 HD
HETATM   10  O   UNL     1     -46.129  58.668 -50.535  1.00  0.00    -0.271 OA
BRANCH   8  11
HETATM   11  C   UNL     1     -43.959  57.833 -52.340  1.00  0.00     0.036 A 
HETATM   12  C   UNL     1     -43.160  56.788 -51.871  1.00  0.00     0.059 A 
HETATM   13  C   UNL     1     -42.947  55.607 -52.615  1.00  0.00     0.041 A 
HETATM   14  N   UNL     1     -42.074  54.654 -52.062  1.00  0.00    -0.355 N 
HETATM   15  C   UNL     1     -43.543  55.498 -53.874  1.00  0.00    -0.031 A 
HETATM   16  C   UNL     1     -41.281  53.615 -52.583  1.00  0.00     0.039 A 
HETATM   17  H   UNL     1     -41.996  54.734 -51.054  1.00  0.00     0.166 HD
HETATM   18  C   UNL     1     -41.138  53.312 -53.945  1.00  0.00    -0.031 A 
HETATM   19  C   UNL     1     -40.547  52.849 -51.651  1.00  0.00     0.030 A 
HETATM   20  C   UNL     1     -40.235  52.299 -54.337  1.00  0.00     0.009 A 
HETATM   21  C   UNL     1     -41.865  54.048 -55.041  1.00  0.00     0.045 C 
HETATM   22  C   UNL     1     -39.511  51.567 -53.399  1.00  0.00     0.001 A 
HETATM   23  C   UNL     1     -39.675  51.836 -52.051  1.00  0.00     0.002 A 
HETATM   24  C   UNL     1     -43.341  54.284 -54.741  1.00  0.00     0.045 C 
HETATM   25  C   UNL     1     -44.380  56.530 -54.335  1.00  0.00     0.012 A 
HETATM   26  C   UNL     1     -44.586  57.684 -53.576  1.00  0.00     0.030 A 
ENDBRANCH   8  11
ENDBRANCH   1   7
BRANCH   2  27
HETATM   27  C   UNL     1     -46.443  61.798 -51.954  1.00  0.00     0.277 C 
BRANCH  27  28
HETATM   28  C   UNL     1     -45.627  62.253 -53.134  1.00  0.00     0.006 A 
HETATM   29  C   UNL     1     -45.320  63.609 -53.278  1.00  0.00     0.124 A 
HETATM   30  F   UNL     1     -45.797  64.481 -52.377  1.00  0.00    -0.206 F 
HETATM   31  C   UNL     1     -44.574  64.077 -54.353  1.00  0.00     0.043 A 
HETATM   32  C   UNL     1     -44.123  63.175 -55.314  1.00  0.00     0.003 A 
HETATM   33  C   UNL     1     -44.422  61.816 -55.191  1.00  0.00     0.001 A 
HETATM   34  C   UNL     1     -45.169  61.353 -54.105  1.00  0.00     0.012 A 
ENDBRANCH  27  28
ENDBRANCH   2  27
BRANCH   5  35
HETATM   35  S   UNL     1     -46.963  62.151 -46.790  1.00  0.00    -0.084 SA
BRANCH  35  36
HETATM   36  C   UNL     1     -45.747  62.352 -45.512  1.00  0.00     0.188 A 
HETATM   37  N   UNL     1     -45.667  63.541 -44.892  1.00  0.00    -0.235 NA
HETATM   38  C   UNL     1     -44.736  63.635 -43.918  1.00  0.00     0.121 A 
HETATM   39  C   UNL     1     -43.931  62.590 -43.531  1.00  0.00     0.038 A 
HETATM   40  C   UNL     1     -44.123  61.412 -44.212  1.00  0.00     0.121 A 
HETATM   41  N   UNL     1     -45.029  61.267 -45.196  1.00  0.00    -0.235 NA
ENDBRANCH  35  36
ENDBRANCH   5  35
TORSDOF 6
ENDMDL
MODEL 7
REMARK VINA RESULT:      -9.1      3.889      9.474
REMARK  6 active torsions:
REMARK  status: ('A' for Active; 'I' for Inactive)
REMARK    1  A    between atoms: C_11  and  N_12 
REMARK       I    between atoms: N_12  and  C_13 
REMARK    2  A    between atoms: C_13  and  C_14 
REMARK    3  A    between atoms: N_15  and  C_17 
REMARK    4  A    between atoms: C_17  and  C_18 
REMARK    5  A    between atoms: C_26  and  S_27 
REMARK    6  A    between atoms: S_27  and  C_28 
ROOT
HETATM    1  C   UNL     1     -43.694  55.758 -54.055  1.00  0.00     0.281 C 
HETATM    2  N   UNL     1     -42.587  55.467 -52.989  1.00  0.00    -0.053 N 
HETATM    3  H   UNL     1     -42.815  54.545 -52.589  1.00  0.00     0.281 HD
HETATM    4  C   UNL     1     -42.754  56.494 -51.885  1.00  0.00     0.252 C 
HETATM    5  C   UNL     1     -44.224  56.868 -51.959  1.00  0.00     0.083 C 
HETATM    6  C   UNL     1     -44.454  56.951 -53.461  1.00  0.00     0.060 C 
ENDROOT
BRANCH   1   7
HETATM    7  C   UNL     1     -43.227  56.006 -55.513  1.00  0.00     0.253 C 
HETATM    8  N   UNL     1     -43.406  57.301 -55.974  1.00  0.00    -0.325 N 
HETATM    9  H   UNL     1     -43.887  57.976 -55.390  1.00  0.00     0.169 HD
HETATM   10  O   UNL     1     -42.778  55.080 -56.183  1.00  0.00    -0.271 OA
BRANCH   8  11
HETATM   11  C   UNL     1     -42.927  57.840 -57.195  1.00  0.00     0.036 A 
HETATM   12  C   UNL     1     -42.175  59.013 -57.297  1.00  0.00     0.059 A 
HETATM   13  C   UNL     1     -41.781  59.553 -58.541  1.00  0.00     0.041 A 
HETATM   14  N   UNL     1     -41.080  60.770 -58.514  1.00  0.00    -0.355 N 
HETATM   15  C   UNL     1     -42.181  58.894 -59.707  1.00  0.00    -0.031 A 
HETATM   16  C   UNL     1     -40.880  61.819 -59.430  1.00  0.00     0.039 A 
HETATM   17  H   UNL     1     -40.609  60.931 -57.630  1.00  0.00     0.166 HD
HETATM   18  C   UNL     1     -41.461  61.904 -60.704  1.00  0.00    -0.031 A 
HETATM   19  C   UNL     1     -40.057  62.885 -59.003  1.00  0.00     0.030 A 
HETATM   20  C   UNL     1     -41.249  63.061 -61.485  1.00  0.00     0.009 A 
HETATM   21  C   UNL     1     -42.355  60.836 -61.282  1.00  0.00     0.045 C 
HETATM   22  C   UNL     1     -40.444  64.105 -61.036  1.00  0.00     0.001 A 
HETATM   23  C   UNL     1     -39.839  64.013 -59.795  1.00  0.00     0.002 A 
HETATM   24  C   UNL     1     -41.827  59.421 -61.072  1.00  0.00     0.045 C 
HETATM   25  C   UNL     1     -42.904  57.692 -59.610  1.00  0.00     0.012 A 
HETATM   26  C   UNL     1     -43.272  57.171 -58.368  1.00  0.00     0.030 A 
ENDBRANCH   8  11
ENDBRANCH   1   7
BRANCH   2  27
HETATM   27  C   UNL     1     -41.153  55.316 -53.449  1.00  0.00     0.277 C 
BRANCH  27  28
HETATM   28  C   UNL     1     -40.643  53.905 -53.333  1.00  0.00     0.006 A 
HETATM   29  C   UNL     1     -40.222  53.424 -52.090  1.00  0.00     0.124 A 
HETATM   30  F   UNL     1     -40.246  54.251 -51.034  1.00  0.00    -0.206 F 
HETATM   31  C   UNL     1     -39.739  52.130 -51.935  1.00  0.00     0.043 A 
HETATM   32  C   UNL     1     -39.668  51.291 -53.044  1.00  0.00     0.003 A 
HETATM   33  C   UNL     1     -40.080  51.753 -54.296  1.00  0.00     0.001 A 
HETATM   34  C   UNL     1     -40.568  53.053 -54.443  1.00  0.00     0.012 A 
ENDBRANCH  27  28
ENDBRANCH   2  27
BRANCH   5  35
HETATM   35  S   UNL     1     -44.620  58.459 -51.178  1.00  0.00    -0.084 SA
BRANCH  35  36
HETATM   36  C   UNL     1     -44.141  59.579 -52.471  1.00  0.00     0.188 A 
HETATM   37  N   UNL     1     -42.832  59.830 -52.641  1.00  0.00    -0.235 NA
HETATM   38  C   UNL     1     -42.523  60.677 -53.647  1.00  0.00     0.121 A 
HETATM   39  C   UNL     1     -43.457  61.232 -54.489  1.00  0.00     0.038 A 
HETATM   40  C   UNL     1     -44.761  60.878 -54.242  1.00  0.00     0.121 A 
HETATM   41  N   UNL     1     -45.125  60.047 -53.248  1.00  0.00    -0.235 NA
ENDBRANCH  35  36
ENDBRANCH   5  35
TORSDOF 6
ENDMDL
MODEL 8
REMARK VINA RESULT:      -8.9      3.412      6.835
REMARK  6 active torsions:
REMARK  status: ('A' for Active; 'I' for Inactive)
REMARK    1  A    between atoms: C_11  and  N_12 
REMARK       I    between atoms: N_12  and  C_13 
REMARK    2  A    between atoms: C_13  and  C_14 
REMARK    3  A    between atoms: N_15  and  C_17 
REMARK    4  A    between atoms: C_17  and  C_18 
REMARK    5  A    between atoms: C_26  and  S_27 
REMARK    6  A    between atoms: S_27  and  C_28 
ROOT
HETATM    1  C   UNL     1     -44.808  60.869 -49.725  1.00  0.00     0.281 C 
HETATM    2  N   UNL     1     -44.972  62.201 -50.527  1.00  0.00    -0.053 N 
HETATM    3  H   UNL     1     -44.073  62.697 -50.440  1.00  0.00     0.281 HD
HETATM    4  C   UNL     1     -46.018  63.028 -49.806  1.00  0.00     0.252 C 
HETATM    5  C   UNL     1     -45.934  62.542 -48.369  1.00  0.00     0.083 C 
HETATM    6  C   UNL     1     -45.782  61.039 -48.552  1.00  0.00     0.060 C 
ENDROOT
BRANCH   1   7
HETATM    7  C   UNL     1     -45.021  59.542 -50.500  1.00  0.00     0.253 C 
HETATM    8  N   UNL     1     -43.997  59.201 -51.369  1.00  0.00    -0.325 N 
HETATM    9  H   UNL     1     -43.229  59.845 -51.512  1.00  0.00     0.169 HD
HETATM   10  O   UNL     1     -46.058  58.900 -50.351  1.00  0.00    -0.271 OA
BRANCH   8  11
HETATM   11  C   UNL     1     -43.856  57.978 -52.073  1.00  0.00     0.036 A 
HETATM   12  C   UNL     1     -43.065  56.909 -51.645  1.00  0.00     0.059 A 
HETATM   13  C   UNL     1     -42.896  55.738 -52.415  1.00  0.00     0.041 A 
HETATM   14  N   UNL     1     -42.027  54.759 -51.904  1.00  0.00    -0.355 N 
HETATM   15  C   UNL     1     -43.530  55.663 -53.658  1.00  0.00    -0.031 A 
HETATM   16  C   UNL     1     -41.270  53.715 -52.466  1.00  0.00     0.039 A 
HETATM   17  H   UNL     1     -41.918  54.819 -50.897  1.00  0.00     0.166 HD
HETATM   18  C   UNL     1     -41.170  53.434 -53.836  1.00  0.00    -0.031 A 
HETATM   19  C   UNL     1     -40.524  52.918 -51.568  1.00  0.00     0.030 A 
HETATM   20  C   UNL     1     -40.298  52.411 -54.271  1.00  0.00     0.009 A 
HETATM   21  C   UNL     1     -41.914  54.203 -54.898  1.00  0.00     0.045 C 
HETATM   22  C   UNL     1     -39.563  51.648 -53.367  1.00  0.00     0.001 A 
HETATM   23  C   UNL     1     -39.683  51.896 -52.010  1.00  0.00     0.002 A 
HETATM   24  C   UNL     1     -43.376  54.461 -54.551  1.00  0.00     0.045 C 
HETATM   25  C   UNL     1     -44.359  56.718 -54.077  1.00  0.00     0.012 A 
HETATM   26  C   UNL     1     -44.521  57.862 -53.292  1.00  0.00     0.030 A 
ENDBRANCH   8  11
ENDBRANCH   1   7
BRANCH   2  27
HETATM   27  C   UNL     1     -45.198  62.128 -52.023  1.00  0.00     0.277 C 
BRANCH  27  28
HETATM   28  C   UNL     1     -46.505  62.738 -52.451  1.00  0.00     0.006 A 
HETATM   29  C   UNL     1     -47.665  61.958 -52.446  1.00  0.00     0.124 A 
HETATM   30  F   UNL     1     -47.575  60.666 -52.096  1.00  0.00    -0.206 F 
HETATM   31  C   UNL     1     -48.894  62.475 -52.838  1.00  0.00     0.043 A 
HETATM   32  C   UNL     1     -48.974  63.803 -53.249  1.00  0.00     0.003 A 
HETATM   33  C   UNL     1     -47.827  64.600 -53.266  1.00  0.00     0.001 A 
HETATM   34  C   UNL     1     -46.596  64.073 -52.866  1.00  0.00     0.012 A 
ENDBRANCH  27  28
ENDBRANCH   2  27
BRANCH   5  35
HETATM   35  S   UNL     1     -47.414  62.904 -47.381  1.00  0.00    -0.084 SA
BRANCH  35  36
HETATM   36  C   UNL     1     -46.673  63.677 -45.964  1.00  0.00     0.188 A 
HETATM   37  N   UNL     1     -47.483  64.166 -45.010  1.00  0.00    -0.235 NA
HETATM   38  C   UNL     1     -46.868  64.730 -43.948  1.00  0.00     0.121 A 
HETATM   39  C   UNL     1     -45.502  64.782 -43.800  1.00  0.00     0.038 A 
HETATM   40  C   UNL     1     -44.774  64.222 -44.821  1.00  0.00     0.121 A 
HETATM   41  N   UNL     1     -45.336  63.657 -45.905  1.00  0.00    -0.235 NA
ENDBRANCH  35  36
ENDBRANCH   5  35
TORSDOF 6
ENDMDL
MODEL 9
REMARK VINA RESULT:      -8.8      2.643      8.448
REMARK  6 active torsions:
REMARK  status: ('A' for Active; 'I' for Inactive)
REMARK    1  A    between atoms: C_11  and  N_12 
REMARK       I    between atoms: N_12  and  C_13 
REMARK    2  A    between atoms: C_13  and  C_14 
REMARK    3  A    between atoms: N_15  and  C_17 
REMARK    4  A    between atoms: C_17  and  C_18 
REMARK    5  A    between atoms: C_26  and  S_27 
REMARK    6  A    between atoms: S_27  and  C_28 
ROOT
HETATM    1  C   UNL     1     -41.919  58.476 -55.067  1.00  0.00     0.281 C 
HETATM    2  N   UNL     1     -42.660  57.143 -54.725  1.00  0.00    -0.053 N 
HETATM    3  H   UNL     1     -41.997  56.385 -54.944  1.00  0.00     0.281 HD
HETATM    4  C   UNL     1     -43.823  57.021 -55.690  1.00  0.00     0.252 C 
HETATM    5  C   UNL     1     -43.372  57.820 -56.900  1.00  0.00     0.083 C 
HETATM    6  C   UNL     1     -42.717  59.032 -56.254  1.00  0.00     0.060 C 
ENDROOT
BRANCH   1   7
HETATM    7  C   UNL     1     -41.746  59.507 -53.920  1.00  0.00     0.253 C 
HETATM    8  N   UNL     1     -42.834  60.341 -53.714  1.00  0.00    -0.325 N 
HETATM    9  H   UNL     1     -43.625  60.295 -54.345  1.00  0.00     0.169 HD
HETATM   10  O   UNL     1     -40.688  59.568 -53.300  1.00  0.00    -0.271 OA
BRANCH   8  11
HETATM   11  C   UNL     1     -43.010  61.254 -52.643  1.00  0.00     0.036 A 
HETATM   12  C   UNL     1     -43.321  60.881 -51.333  1.00  0.00     0.059 A 
HETATM   13  C   UNL     1     -43.560  61.829 -50.314  1.00  0.00     0.041 A 
HETATM   14  N   UNL     1     -43.923  61.328 -49.052  1.00  0.00    -0.355 N 
HETATM   15  C   UNL     1     -43.502  63.185 -50.641  1.00  0.00    -0.031 A 
HETATM   16  C   UNL     1     -44.622  61.844 -47.944  1.00  0.00     0.039 A 
HETATM   17  H   UNL     1     -43.611  60.375 -48.904  1.00  0.00     0.166 HD
HETATM   18  C   UNL     1     -45.227  63.109 -47.887  1.00  0.00    -0.031 A 
HETATM   19  C   UNL     1     -44.750  60.994 -46.824  1.00  0.00     0.030 A 
HETATM   20  C   UNL     1     -45.978  63.464 -46.744  1.00  0.00     0.009 A 
HETATM   21  C   UNL     1     -45.163  64.112 -49.010  1.00  0.00     0.045 C 
HETATM   22  C   UNL     1     -46.102  62.603 -45.657  1.00  0.00     0.001 A 
HETATM   23  C   UNL     1     -45.478  61.367 -45.693  1.00  0.00     0.002 A 
HETATM   24  C   UNL     1     -43.773  64.257 -49.619  1.00  0.00     0.045 C 
HETATM   25  C   UNL     1     -43.151  63.568 -51.948  1.00  0.00     0.012 A 
HETATM   26  C   UNL     1     -42.907  62.612 -52.937  1.00  0.00     0.030 A 
ENDBRANCH   8  11
ENDBRANCH   1   7
BRANCH   2  27
HETATM   27  C   UNL     1     -43.049  56.873 -53.286  1.00  0.00     0.277 C 
BRANCH  27  28
HETATM   28  C   UNL     1     -42.194  55.823 -52.631  1.00  0.00     0.006 A 
HETATM   29  C   UNL     1     -41.666  56.058 -51.359  1.00  0.00     0.124 A 
HETATM   30  F   UNL     1     -41.904  57.238 -50.767  1.00  0.00    -0.206 F 
HETATM   31  C   UNL     1     -40.867  55.120 -50.716  1.00  0.00     0.043 A 
HETATM   32  C   UNL     1     -40.581  53.916 -51.355  1.00  0.00     0.003 A 
HETATM   33  C   UNL     1     -41.095  53.662 -52.629  1.00  0.00     0.001 A 
HETATM   34  C   UNL     1     -41.901  54.609 -53.266  1.00  0.00     0.012 A 
ENDBRANCH  27  28
ENDBRANCH   2  27
BRANCH   5  35
HETATM   35  S   UNL     1     -44.732  58.349 -57.982  1.00  0.00    -0.084 SA
BRANCH  35  36
HETATM   36  C   UNL     1     -44.820  56.962 -59.088  1.00  0.00     0.188 A 
HETATM   37  N   UNL     1     -43.776  56.117 -59.133  1.00  0.00    -0.235 NA
HETATM   38  C   UNL     1     -43.902  55.072 -59.979  1.00  0.00     0.121 A 
HETATM   39  C   UNL     1     -45.027  54.832 -60.731  1.00  0.00     0.038 A 
HETATM   40  C   UNL     1     -46.045  55.743 -60.579  1.00  0.00     0.121 A 
HETATM   41  N   UNL     1     -45.968  56.806 -59.758  1.00  0.00    -0.235 NA
ENDBRANCH  35  36
ENDBRANCH   5  35
TORSDOF 6
ENDMDL
MODEL 10
REMARK VINA RESULT:      -8.6      3.489      6.432
REMARK  6 active torsions:
REMARK  status: ('A' for Active; 'I' for Inactive)
REMARK    1  A    between atoms: C_11  and  N_12 
REMARK       I    between atoms: N_12  and  C_13 
REMARK    2  A    between atoms: C_13  and  C_14 
REMARK    3  A    between atoms: N_15  and  C_17 
REMARK    4  A    between atoms: C_17  and  C_18 
REMARK    5  A    between atoms: C_26  and  S_27 
REMARK    6  A    between atoms: S_27  and  C_28 
ROOT
HETATM    1  C   UNL     1     -44.890  60.894 -50.270  1.00  0.00     0.281 C 
HETATM    2  N   UNL     1     -45.446  62.144 -51.028  1.00  0.00    -0.053 N 
HETATM    3  H   UNL     1     -44.640  62.768 -51.174  1.00  0.00     0.281 HD
HETATM    4  C   UNL     1     -46.399  62.848 -50.081  1.00  0.00     0.252 C 
HETATM    5  C   UNL     1     -45.894  62.456 -48.703  1.00  0.00     0.083 C 
HETATM    6  C   UNL     1     -45.564  60.983 -48.895  1.00  0.00     0.060 C 
ENDROOT
BRANCH   1   7
HETATM    7  C   UNL     1     -45.081  59.510 -50.947  1.00  0.00     0.253 C 
HETATM    8  N   UNL     1     -44.098  59.166 -51.862  1.00  0.00    -0.325 N 
HETATM    9  H   UNL     1     -43.376  59.837 -52.095  1.00  0.00     0.169 HD
HETATM   10  O   UNL     1     -46.069  58.828 -50.690  1.00  0.00    -0.271 OA
BRANCH   8  11
HETATM   11  C   UNL     1     -43.937  57.908 -52.498  1.00  0.00     0.036 A 
HETATM   12  C   UNL     1     -43.134  56.875 -52.009  1.00  0.00     0.059 A 
HETATM   13  C   UNL     1     -42.945  55.666 -52.714  1.00  0.00     0.041 A 
HETATM   14  N   UNL     1     -42.066  54.729 -52.146  1.00  0.00    -0.355 N 
HETATM   15  C   UNL     1     -43.570  55.516 -53.954  1.00  0.00    -0.031 A 
HETATM   16  C   UNL     1     -41.292  53.666 -52.646  1.00  0.00     0.039 A 
HETATM   17  H   UNL     1     -41.965  54.844 -51.143  1.00  0.00     0.166 HD
HETATM   18  C   UNL     1     -41.180  53.313 -53.999  1.00  0.00    -0.031 A 
HETATM   19  C   UNL     1     -40.542  52.929 -51.703  1.00  0.00     0.030 A 
HETATM   20  C   UNL     1     -40.292  52.280 -54.373  1.00  0.00     0.009 A 
HETATM   21  C   UNL     1     -41.927  54.014 -55.105  1.00  0.00     0.045 C 
HETATM   22  C   UNL     1     -39.553  51.577 -53.426  1.00  0.00     0.001 A 
HETATM   23  C   UNL     1     -39.684  51.896 -52.084  1.00  0.00     0.002 A 
HETATM   24  C   UNL     1     -43.394  54.271 -54.781  1.00  0.00     0.045 C 
HETATM   25  C   UNL     1     -44.410  56.537 -54.434  1.00  0.00     0.012 A 
HETATM   26  C   UNL     1     -44.592  57.719 -53.713  1.00  0.00     0.030 A 
ENDBRANCH   8  11
ENDBRANCH   1   7
BRANCH   2  27
HETATM   27  C   UNL     1     -46.016  61.960 -52.419  1.00  0.00     0.277 C 
BRANCH  27  28
HETATM   28  C   UNL     1     -47.315  62.690 -52.624  1.00  0.00     0.006 A 
HETATM   29  C   UNL     1     -47.301  64.063 -52.887  1.00  0.00     0.124 A 
HETATM   30  F   UNL     1     -46.123  64.705 -52.909  1.00  0.00    -0.206 F 
HETATM   31  C   UNL     1     -48.475  64.781 -53.079  1.00  0.00     0.043 A 
HETATM   32  C   UNL     1     -49.698  64.120 -53.004  1.00  0.00     0.003 A 
HETATM   33  C   UNL     1     -49.736  62.749 -52.739  1.00  0.00     0.001 A 
HETATM   34  C   UNL     1     -48.551  62.034 -52.552  1.00  0.00     0.012 A 
ENDBRANCH  27  28
ENDBRANCH   2  27
BRANCH   5  35
HETATM   35  S   UNL     1     -47.126  62.652 -47.384  1.00  0.00    -0.084 SA
BRANCH  35  36
HETATM   36  C   UNL     1     -46.712  61.269 -46.350  1.00  0.00     0.188 A 
HETATM   37  N   UNL     1     -47.589  60.254 -46.264  1.00  0.00    -0.235 NA
HETATM   38  C   UNL     1     -47.218  59.222 -45.477  1.00  0.00     0.121 A 
HETATM   39  C   UNL     1     -46.011  59.159 -44.821  1.00  0.00     0.038 A 
HETATM   40  C   UNL     1     -45.180  60.238 -45.008  1.00  0.00     0.121 A 
HETATM   41  N   UNL     1     -45.504  61.296 -45.774  1.00  0.00    -0.235 NA
ENDBRANCH  35  36
ENDBRANCH   5  35
TORSDOF 6
ENDMDL
