MODEL 1
REMARK VINA RESULT:      -7.8      0.000      0.000
REMARK  7 active torsions:
REMARK  status: ('A' for Active; 'I' for Inactive)
REMARK    1  A    between atoms: C_2  and  C_3 
REMARK    2  A    between atoms: C_3  and  N_4 
REMARK    3  A    between atoms: C_7  and  C_8 
REMARK       I    between atoms: C_8  and  N_9 
REMARK    4  A    between atoms: N_9  and  C_10 
REMARK    5  A    between atoms: C_11  and  O_12 
REMARK    6  A    between atoms: C_16  and  C_17 
REMARK       I    between atoms: C_17  and  N_18 
REMARK    7  A    between atoms: C_23  and  C_24 
ROOT
HETATM    1  C   UNL     1     -43.744  55.372 -50.766  1.00  0.00     0.259 C 
HETATM    2  N   UNL     1     -43.476  56.717 -50.713  1.00  0.00    -0.320 N 
HETATM    3  O   UNL     1     -44.768  54.981 -50.204  1.00  0.00    -0.267 OA
HETATM    4  H   UNL     1     -43.971  57.170 -49.949  1.00  0.00     0.169 HD
ENDROOT
BRANCH   2   5
HETATM    5  C   UNL     1     -42.667  57.583 -51.471  1.00  0.00     0.069 A 
HETATM    6  C   UNL     1     -43.193  58.004 -52.712  1.00  0.00     0.095 A 
HETATM    7  C   UNL     1     -42.455  58.857 -53.532  1.00  0.00     0.040 A 
HETATM    8  C   UNL     1     -41.187  59.278 -53.129  1.00  0.00     0.020 A 
HETATM    9  C   UNL     1     -40.641  58.828 -51.921  1.00  0.00     0.034 A 
HETATM   10  C   UNL     1     -41.385  57.983 -51.084  1.00  0.00     0.049 A 
BRANCH   6  11
HETATM   11  O   UNL     1     -44.439  57.516 -53.028  1.00  0.00    -0.354 OA
HETATM   12  C   UNL     1     -44.551  56.855 -54.285  1.00  0.00     0.210 C 
ENDBRANCH   6  11
BRANCH   9  13
HETATM   13  C   UNL     1     -39.263  59.268 -51.583  1.00  0.00     0.251 C 
HETATM   14  N   UNL     1     -39.051  59.662 -50.277  1.00  0.00    -0.361 N 
HETATM   15  C   UNL     1     -37.714  59.941 -49.811  1.00  0.00     0.149 C 
HETATM   16  H   UNL     1     -39.758  59.461 -49.584  1.00  0.00     0.162 HD
HETATM   17  O   UNL     1     -38.375  59.210 -52.428  1.00  0.00    -0.268 OA
ENDBRANCH   9  13
ENDBRANCH   2   5
BRANCH   1  18
HETATM   18  C   UNL     1     -42.770  54.443 -51.332  1.00  0.00     0.076 A 
HETATM   19  C   UNL     1     -42.671  53.997 -52.669  1.00  0.00     0.158 A 
HETATM   20  N   UNL     1     -41.619  53.214 -52.885  1.00  0.00    -0.183 NA
HETATM   21  N   UNL     1     -40.989  53.174 -51.691  1.00  0.00    -0.268 N 
HETATM   22  C   UNL     1     -41.600  53.960 -50.741  1.00  0.00     0.052 A 
BRANCH  21  23
HETATM   23  C   UNL     1     -39.859  52.259 -51.570  1.00  0.00     0.106 C 
HETATM   24  C   UNL     1     -39.424  51.755 -52.947  1.00  0.00     0.034 C 
BRANCH  23  25
HETATM   25  C   UNL     1     -40.140  51.081 -50.612  1.00  0.00     0.022 C 
HETATM   26  C   UNL     1     -39.575  49.761 -51.128  1.00  0.00     0.007 C 
ENDBRANCH  23  25
ENDBRANCH  21  23
BRANCH  22  27
HETATM   27  C   UNL     1     -41.157  54.358 -49.331  1.00  0.00     0.038 A 
HETATM   28  C   UNL     1     -40.500  53.493 -48.290  1.00  0.00     0.011 A 
HETATM   29  C   UNL     1     -39.660  54.417 -49.108  1.00  0.00     0.011 A 
ENDBRANCH  22  27
ENDBRANCH   1  18
TORSDOF 7
ENDMDL
MODEL 2
REMARK VINA RESULT:      -7.6      2.260      3.578
REMARK  7 active torsions:
REMARK  status: ('A' for Active; 'I' for Inactive)
REMARK    1  A    between atoms: C_2  and  C_3 
REMARK    2  A    between atoms: C_3  and  N_4 
REMARK    3  A    between atoms: C_7  and  C_8 
REMARK       I    between atoms: C_8  and  N_9 
REMARK    4  A    between atoms: N_9  and  C_10 
REMARK    5  A    between atoms: C_11  and  O_12 
REMARK    6  A    between atoms: C_16  and  C_17 
REMARK       I    between atoms: C_17  and  N_18 
REMARK    7  A    between atoms: C_23  and  C_24 
ROOT
HETATM    1  C   UNL     1     -43.149  54.430 -54.848  1.00  0.00     0.259 C 
HETATM    2  N   UNL     1     -43.399  55.670 -55.383  1.00  0.00    -0.320 N 
HETATM    3  O   UNL     1     -43.533  53.453 -55.492  1.00  0.00    -0.267 OA
HETATM    4  H   UNL     1     -44.148  55.639 -56.070  1.00  0.00     0.169 HD
ENDROOT
BRANCH   2   5
HETATM    5  C   UNL     1     -42.856  56.951 -55.178  1.00  0.00     0.069 A 
HETATM    6  C   UNL     1     -43.107  57.906 -56.187  1.00  0.00     0.095 A 
HETATM    7  C   UNL     1     -42.598  59.199 -56.070  1.00  0.00     0.040 A 
HETATM    8  C   UNL     1     -41.825  59.539 -54.959  1.00  0.00     0.020 A 
HETATM    9  C   UNL     1     -41.534  58.584 -53.977  1.00  0.00     0.034 A 
HETATM   10  C   UNL     1     -42.056  57.286 -54.082  1.00  0.00     0.049 A 
BRANCH   6  11
HETATM   11  O   UNL     1     -43.860  57.466 -57.251  1.00  0.00    -0.354 OA
HETATM   12  C   UNL     1     -43.168  57.321 -58.487  1.00  0.00     0.210 C 
ENDBRANCH   6  11
BRANCH   9  13
HETATM   13  C   UNL     1     -40.655  58.999 -52.853  1.00  0.00     0.251 C 
HETATM   14  N   UNL     1     -41.269  59.165 -51.628  1.00  0.00    -0.361 N 
HETATM   15  C   UNL     1     -40.476  59.397 -50.446  1.00  0.00     0.149 C 
HETATM   16  H   UNL     1     -42.213  58.825 -51.503  1.00  0.00     0.162 HD
HETATM   17  O   UNL     1     -39.447  59.115 -53.029  1.00  0.00    -0.268 OA
ENDBRANCH   9  13
ENDBRANCH   2   5
BRANCH   1  18
HETATM   18  C   UNL     1     -42.594  54.301 -53.504  1.00  0.00     0.076 A 
HETATM   19  C   UNL     1     -43.220  54.603 -52.273  1.00  0.00     0.158 A 
HETATM   20  N   UNL     1     -42.476  54.297 -51.216  1.00  0.00    -0.183 NA
HETATM   21  N   UNL     1     -41.362  53.747 -51.747  1.00  0.00    -0.268 N 
HETATM   22  C   UNL     1     -41.417  53.655 -53.119  1.00  0.00     0.052 A 
BRANCH  21  23
HETATM   23  C   UNL     1     -40.274  53.437 -50.826  1.00  0.00     0.106 C 
HETATM   24  C   UNL     1     -40.454  52.041 -50.227  1.00  0.00     0.034 C 
BRANCH  23  25
HETATM   25  C   UNL     1     -40.106  54.498 -49.716  1.00  0.00     0.022 C 
HETATM   26  C   UNL     1     -40.367  53.933 -48.324  1.00  0.00     0.007 C 
ENDBRANCH  23  25
ENDBRANCH  21  23
BRANCH  22  27
HETATM   27  C   UNL     1     -40.488  52.958 -54.116  1.00  0.00     0.038 A 
HETATM   28  C   UNL     1     -39.457  51.899 -53.835  1.00  0.00     0.011 A 
HETATM   29  C   UNL     1     -40.789  51.497 -54.379  1.00  0.00     0.011 A 
ENDBRANCH  22  27
ENDBRANCH   1  18
TORSDOF 7
ENDMDL
MODEL 3
REMARK VINA RESULT:      -7.3      2.383      6.496
REMARK  7 active torsions:
REMARK  status: ('A' for Active; 'I' for Inactive)
REMARK    1  A    between atoms: C_2  and  C_3 
REMARK    2  A    between atoms: C_3  and  N_4 
REMARK    3  A    between atoms: C_7  and  C_8 
REMARK       I    between atoms: C_8  and  N_9 
REMARK    4  A    between atoms: N_9  and  C_10 
REMARK    5  A    between atoms: C_11  and  O_12 
REMARK    6  A    between atoms: C_16  and  C_17 
REMARK       I    between atoms: C_17  and  N_18 
REMARK    7  A    between atoms: C_23  and  C_24 
ROOT
HETATM    1  C   UNL     1     -41.596  54.988 -49.977  1.00  0.00     0.259 C 
HETATM    2  N   UNL     1     -41.179  53.876 -50.666  1.00  0.00    -0.320 N 
HETATM    3  O   UNL     1     -41.163  55.133 -48.832  1.00  0.00    -0.267 OA
HETATM    4  H   UNL     1     -40.832  53.153 -50.042  1.00  0.00     0.169 HD
ENDROOT
BRANCH   2   5
HETATM    5  C   UNL     1     -41.141  53.529 -52.029  1.00  0.00     0.069 A 
HETATM    6  C   UNL     1     -40.207  52.535 -52.396  1.00  0.00     0.095 A 
HETATM    7  C   UNL     1     -40.096  52.136 -53.727  1.00  0.00     0.040 A 
HETATM    8  C   UNL     1     -40.899  52.736 -54.698  1.00  0.00     0.020 A 
HETATM    9  C   UNL     1     -41.795  53.754 -54.348  1.00  0.00     0.034 A 
HETATM   10  C   UNL     1     -41.923  54.149 -53.008  1.00  0.00     0.049 A 
BRANCH   6  11
HETATM   11  O   UNL     1     -39.448  52.023 -51.370  1.00  0.00    -0.354 OA
HETATM   12  C   UNL     1     -39.500  50.610 -51.200  1.00  0.00     0.210 C 
ENDBRANCH   6  11
BRANCH   9  13
HETATM   13  C   UNL     1     -42.575  54.390 -55.441  1.00  0.00     0.251 C 
HETATM   14  N   UNL     1     -42.014  55.512 -56.018  1.00  0.00    -0.361 N 
HETATM   15  C   UNL     1     -42.608  56.096 -57.195  1.00  0.00     0.149 C 
HETATM   16  H   UNL     1     -41.049  55.735 -55.818  1.00  0.00     0.162 HD
HETATM   17  O   UNL     1     -43.622  53.881 -55.825  1.00  0.00    -0.268 OA
ENDBRANCH   9  13
ENDBRANCH   2   5
BRANCH   1  18
HETATM   18  C   UNL     1     -42.627  55.861 -50.530  1.00  0.00     0.076 A 
HETATM   19  C   UNL     1     -44.029  55.725 -50.421  1.00  0.00     0.158 A 
HETATM   20  N   UNL     1     -44.699  56.735 -50.967  1.00  0.00    -0.183 NA
HETATM   21  N   UNL     1     -43.732  57.571 -51.405  1.00  0.00    -0.268 N 
HETATM   22  C   UNL     1     -42.466  57.127 -51.098  1.00  0.00     0.052 A 
BRANCH  21  23
HETATM   23  C   UNL     1     -44.160  58.721 -52.195  1.00  0.00     0.106 C 
HETATM   24  C   UNL     1     -45.407  59.360 -51.583  1.00  0.00     0.034 C 
BRANCH  23  25
HETATM   25  C   UNL     1     -44.386  58.378 -53.683  1.00  0.00     0.022 C 
HETATM   26  C   UNL     1     -43.147  58.627 -54.535  1.00  0.00     0.007 C 
ENDBRANCH  23  25
ENDBRANCH  21  23
BRANCH  22  27
HETATM   27  C   UNL     1     -41.102  57.810 -51.232  1.00  0.00     0.038 A 
HETATM   28  C   UNL     1     -40.811  59.205 -51.710  1.00  0.00     0.011 A 
HETATM   29  C   UNL     1     -40.829  58.925 -50.244  1.00  0.00     0.011 A 
ENDBRANCH  22  27
ENDBRANCH   1  18
TORSDOF 7
ENDMDL
MODEL 4
REMARK VINA RESULT:      -7.3      2.756      4.194
REMARK  7 active torsions:
REMARK  status: ('A' for Active; 'I' for Inactive)
REMARK    1  A    between atoms: C_2  and  C_3 
REMARK    2  A    between atoms: C_3  and  N_4 
REMARK    3  A    between atoms: C_7  and  C_8 
REMARK       I    between atoms: C_8  and  N_9 
REMARK    4  A    between atoms: N_9  and  C_10 
REMARK    5  A    between atoms: C_11  and  O_12 
REMARK    6  A    between atoms: C_16  and  C_17 
REMARK       I    between atoms: C_17  and  N_18 
REMARK    7  A    between atoms: C_23  and  C_24 
ROOT
HETATM    1  C   UNL     1     -43.564  54.752 -54.186  1.00  0.00     0.259 C 
HETATM    2  N   UNL     1     -44.259  55.932 -54.294  1.00  0.00    -0.320 N 
HETATM    3  O   UNL     1     -43.678  53.947 -55.112  1.00  0.00    -0.267 OA
HETATM    4  H   UNL     1     -45.027  55.858 -54.956  1.00  0.00     0.169 HD
ENDROOT
BRANCH   2   5
HETATM    5  C   UNL     1     -44.140  57.195 -53.686  1.00  0.00     0.069 A 
HETATM    6  C   UNL     1     -43.219  58.089 -54.276  1.00  0.00     0.095 A 
HETATM    7  C   UNL     1     -43.032  59.360 -53.732  1.00  0.00     0.040 A 
HETATM    8  C   UNL     1     -43.746  59.737 -52.594  1.00  0.00     0.020 A 
HETATM    9  C   UNL     1     -44.627  58.839 -51.979  1.00  0.00     0.034 A 
HETATM   10  C   UNL     1     -44.831  57.565 -52.529  1.00  0.00     0.049 A 
BRANCH   6  11
HETATM   11  O   UNL     1     -42.550  57.614 -55.379  1.00  0.00    -0.354 OA
HETATM   12  C   UNL     1     -42.791  58.305 -56.601  1.00  0.00     0.210 C 
ENDBRANCH   6  11
BRANCH   9  13
HETATM   13  C   UNL     1     -45.307  59.286 -50.736  1.00  0.00     0.251 C 
HETATM   14  N   UNL     1     -44.664  60.266 -50.007  1.00  0.00    -0.361 N 
HETATM   15  C   UNL     1     -45.324  60.885 -48.883  1.00  0.00     0.149 C 
HETATM   16  H   UNL     1     -43.887  60.759 -50.426  1.00  0.00     0.162 HD
HETATM   17  O   UNL     1     -46.408  58.832 -50.441  1.00  0.00    -0.268 OA
ENDBRANCH   9  13
ENDBRANCH   2   5
BRANCH   1  18
HETATM   18  C   UNL     1     -42.856  54.419 -52.954  1.00  0.00     0.076 A 
HETATM   19  C   UNL     1     -43.344  54.478 -51.629  1.00  0.00     0.158 A 
HETATM   20  N   UNL     1     -42.476  54.028 -50.729  1.00  0.00    -0.183 NA
HETATM   21  N   UNL     1     -41.418  53.625 -51.465  1.00  0.00    -0.268 N 
HETATM   22  C   UNL     1     -41.627  53.768 -52.818  1.00  0.00     0.052 A 
BRANCH  21  23
HETATM   23  C   UNL     1     -40.224  53.210 -50.736  1.00  0.00     0.106 C 
HETATM   24  C   UNL     1     -40.445  51.852 -50.069  1.00  0.00     0.034 C 
BRANCH  23  25
HETATM   25  C   UNL     1     -39.751  54.262 -49.709  1.00  0.00     0.022 C 
HETATM   26  C   UNL     1     -40.177  53.919 -48.285  1.00  0.00     0.007 C 
ENDBRANCH  23  25
ENDBRANCH  21  23
BRANCH  22  27
HETATM   27  C   UNL     1     -40.802  53.293 -54.017  1.00  0.00     0.038 A 
HETATM   28  C   UNL     1     -39.652  52.324 -54.022  1.00  0.00     0.011 A 
HETATM   29  C   UNL     1     -41.010  51.849 -54.422  1.00  0.00     0.011 A 
ENDBRANCH  22  27
ENDBRANCH   1  18
TORSDOF 7
ENDMDL
MODEL 5
REMARK VINA RESULT:      -7.1      1.976      3.525
REMARK  7 active torsions:
REMARK  status: ('A' for Active; 'I' for Inactive)
REMARK    1  A    between atoms: C_2  and  C_3 
REMARK    2  A    between atoms: C_3  and  N_4 
REMARK    3  A    between atoms: C_7  and  C_8 
REMARK       I    between atoms: C_8  and  N_9 
REMARK    4  A    between atoms: N_9  and  C_10 
REMARK    5  A    between atoms: C_11  and  O_12 
REMARK    6  A    between atoms: C_16  and  C_17 
REMARK       I    between atoms: C_17  and  N_18 
REMARK    7  A    between atoms: C_23  and  C_24 
ROOT
HETATM    1  C   UNL     1     -43.488  55.236 -51.273  1.00  0.00     0.259 C 
HETATM    2  N   UNL     1     -43.329  56.590 -51.437  1.00  0.00    -0.320 N 
HETATM    3  O   UNL     1     -44.380  54.864 -50.508  1.00  0.00    -0.267 OA
HETATM    4  H   UNL     1     -43.741  57.114 -50.669  1.00  0.00     0.169 HD
ENDROOT
BRANCH   2   5
HETATM    5  C   UNL     1     -42.719  57.390 -52.420  1.00  0.00     0.069 A 
HETATM    6  C   UNL     1     -41.851  58.402 -51.953  1.00  0.00     0.095 A 
HETATM    7  C   UNL     1     -41.211  59.248 -52.858  1.00  0.00     0.040 A 
HETATM    8  C   UNL     1     -41.445  59.100 -54.226  1.00  0.00     0.020 A 
HETATM    9  C   UNL     1     -42.339  58.129 -54.692  1.00  0.00     0.034 A 
HETATM   10  C   UNL     1     -42.975  57.266 -53.788  1.00  0.00     0.049 A 
BRANCH   6  11
HETATM   11  O   UNL     1     -41.706  58.479 -50.588  1.00  0.00    -0.354 OA
HETATM   12  C   UNL     1     -40.726  59.399 -50.116  1.00  0.00     0.210 C 
ENDBRANCH   6  11
BRANCH   9  13
HETATM   13  C   UNL     1     -42.587  58.068 -56.156  1.00  0.00     0.251 C 
HETATM   14  N   UNL     1     -43.256  56.952 -56.616  1.00  0.00    -0.361 N 
HETATM   15  C   UNL     1     -43.693  56.883 -57.989  1.00  0.00     0.149 C 
HETATM   16  H   UNL     1     -43.705  56.340 -55.949  1.00  0.00     0.162 HD
HETATM   17  O   UNL     1     -42.256  59.006 -56.874  1.00  0.00    -0.268 OA
ENDBRANCH   9  13
ENDBRANCH   2   5
BRANCH   1  18
HETATM   18  C   UNL     1     -42.534  54.301 -51.861  1.00  0.00     0.076 A 
HETATM   19  C   UNL     1     -42.425  53.910 -53.215  1.00  0.00     0.158 A 
HETATM   20  N   UNL     1     -41.395  53.103 -53.448  1.00  0.00    -0.183 NA
HETATM   21  N   UNL     1     -40.789  52.990 -52.246  1.00  0.00    -0.268 N 
HETATM   22  C   UNL     1     -41.391  53.755 -51.273  1.00  0.00     0.052 A 
BRANCH  21  23
HETATM   23  C   UNL     1     -39.691  52.034 -52.146  1.00  0.00     0.106 C 
HETATM   24  C   UNL     1     -39.458  51.339 -53.488  1.00  0.00     0.034 C 
BRANCH  23  25
HETATM   25  C   UNL     1     -39.894  51.003 -51.015  1.00  0.00     0.022 C 
HETATM   26  C   UNL     1     -39.585  49.578 -51.462  1.00  0.00     0.007 C 
ENDBRANCH  23  25
ENDBRANCH  21  23
BRANCH  22  27
HETATM   27  C   UNL     1     -40.961  54.077 -49.840  1.00  0.00     0.038 A 
HETATM   28  C   UNL     1     -39.562  54.202 -49.300  1.00  0.00     0.011 A 
HETATM   29  C   UNL     1     -40.329  55.438 -49.637  1.00  0.00     0.011 A 
ENDBRANCH  22  27
ENDBRANCH   1  18
TORSDOF 7
ENDMDL
MODEL 6
REMARK VINA RESULT:      -7.1      2.788      6.704
REMARK  7 active torsions:
REMARK  status: ('A' for Active; 'I' for Inactive)
REMARK    1  A    between atoms: C_2  and  C_3 
REMARK    2  A    between atoms: C_3  and  N_4 
REMARK    3  A    between atoms: C_7  and  C_8 
REMARK       I    between atoms: C_8  and  N_9 
REMARK    4  A    between atoms: N_9  and  C_10 
REMARK    5  A    between atoms: C_11  and  O_12 
REMARK    6  A    between atoms: C_16  and  C_17 
REMARK       I    between atoms: C_17  and  N_18 
REMARK    7  A    between atoms: C_23  and  C_24 
ROOT
HETATM    1  C   UNL     1     -41.388  55.967 -50.224  1.00  0.00     0.259 C 
HETATM    2  N   UNL     1     -41.552  54.888 -51.058  1.00  0.00    -0.320 N 
HETATM    3  O   UNL     1     -41.299  55.735 -49.017  1.00  0.00    -0.267 OA
HETATM    4  H   UNL     1     -41.904  54.076 -50.559  1.00  0.00     0.169 HD
ENDROOT
BRANCH   2   5
HETATM    5  C   UNL     1     -41.348  54.677 -52.434  1.00  0.00     0.069 A 
HETATM    6  C   UNL     1     -40.506  53.598 -52.783  1.00  0.00     0.095 A 
HETATM    7  C   UNL     1     -40.242  53.322 -54.124  1.00  0.00     0.040 A 
HETATM    8  C   UNL     1     -40.801  54.126 -55.118  1.00  0.00     0.020 A 
HETATM    9  C   UNL     1     -41.600  55.224 -54.777  1.00  0.00     0.034 A 
HETATM   10  C   UNL     1     -41.881  55.498 -53.431  1.00  0.00     0.049 A 
BRANCH   6  11
HETATM   11  O   UNL     1     -39.987  52.882 -51.730  1.00  0.00    -0.354 OA
HETATM   12  C   UNL     1     -39.484  51.587 -52.044  1.00  0.00     0.210 C 
ENDBRANCH   6  11
BRANCH   9  13
HETATM   13  C   UNL     1     -42.112  56.073 -55.885  1.00  0.00     0.251 C 
HETATM   14  N   UNL     1     -42.464  55.413 -57.045  1.00  0.00    -0.361 N 
HETATM   15  C   UNL     1     -43.129  56.124 -58.110  1.00  0.00     0.149 C 
HETATM   16  H   UNL     1     -42.542  54.406 -57.032  1.00  0.00     0.162 HD
HETATM   17  O   UNL     1     -42.258  57.279 -55.717  1.00  0.00    -0.268 OA
ENDBRANCH   9  13
ENDBRANCH   2   5
BRANCH   1  18
HETATM   18  C   UNL     1     -41.476  57.327 -50.746  1.00  0.00     0.076 A 
HETATM   19  C   UNL     1     -40.415  58.185 -51.117  1.00  0.00     0.158 A 
HETATM   20  N   UNL     1     -40.827  59.336 -51.637  1.00  0.00    -0.183 NA
HETATM   21  N   UNL     1     -42.173  59.226 -51.652  1.00  0.00    -0.268 N 
HETATM   22  C   UNL     1     -42.612  58.003 -51.197  1.00  0.00     0.052 A 
BRANCH  21  23
HETATM   23  C   UNL     1     -42.930  60.412 -52.040  1.00  0.00     0.106 C 
HETATM   24  C   UNL     1     -42.486  60.908 -53.417  1.00  0.00     0.034 C 
BRANCH  23  25
HETATM   25  C   UNL     1     -42.852  61.543 -50.992  1.00  0.00     0.022 C 
HETATM   26  C   UNL     1     -43.835  61.344 -49.843  1.00  0.00     0.007 C 
ENDBRANCH  23  25
ENDBRANCH  21  23
BRANCH  22  27
HETATM   27  C   UNL     1     -44.007  57.373 -51.199  1.00  0.00     0.038 A 
HETATM   28  C   UNL     1     -45.335  58.066 -51.334  1.00  0.00     0.011 A 
HETATM   29  C   UNL     1     -44.735  57.398 -52.527  1.00  0.00     0.011 A 
ENDBRANCH  22  27
ENDBRANCH   1  18
TORSDOF 7
ENDMDL
MODEL 7
REMARK VINA RESULT:      -7.0     15.261     18.069
REMARK  7 active torsions:
REMARK  status: ('A' for Active; 'I' for Inactive)
REMARK    1  A    between atoms: C_2  and  C_3 
REMARK    2  A    between atoms: C_3  and  N_4 
REMARK    3  A    between atoms: C_7  and  C_8 
REMARK       I    between atoms: C_8  and  N_9 
REMARK    4  A    between atoms: N_9  and  C_10 
REMARK    5  A    between atoms: C_11  and  O_12 
REMARK    6  A    between atoms: C_16  and  C_17 
REMARK       I    between atoms: C_17  and  N_18 
REMARK    7  A    between atoms: C_23  and  C_24 
ROOT
HETATM    1  C   UNL     1     -33.088  40.405 -55.039  1.00  0.00     0.259 C 
HETATM    2  N   UNL     1     -33.387  41.035 -53.856  1.00  0.00    -0.320 N 
HETATM    3  O   UNL     1     -32.005  40.676 -55.561  1.00  0.00    -0.267 OA
HETATM    4  H   UNL     1     -32.835  41.879 -53.728  1.00  0.00     0.169 HD
ENDROOT
BRANCH   2   5
HETATM    5  C   UNL     1     -34.287  40.769 -52.808  1.00  0.00     0.069 A 
HETATM    6  C   UNL     1     -33.715  40.479 -51.550  1.00  0.00     0.095 A 
HETATM    7  C   UNL     1     -34.533  40.195 -50.458  1.00  0.00     0.040 A 
HETATM    8  C   UNL     1     -35.919  40.181 -50.617  1.00  0.00     0.020 A 
HETATM    9  C   UNL     1     -36.492  40.422 -51.872  1.00  0.00     0.034 A 
HETATM   10  C   UNL     1     -35.675  40.724 -52.972  1.00  0.00     0.049 A 
BRANCH   6  11
HETATM   11  O   UNL     1     -32.341  40.496 -51.502  1.00  0.00    -0.354 OA
HETATM   12  C   UNL     1     -31.745  39.795 -50.415  1.00  0.00     0.210 C 
ENDBRANCH   6  11
BRANCH   9  13
HETATM   13  C   UNL     1     -37.971  40.332 -51.983  1.00  0.00     0.251 C 
HETATM   14  N   UNL     1     -38.617  41.458 -52.452  1.00  0.00    -0.361 N 
HETATM   15  C   UNL     1     -40.027  41.411 -52.755  1.00  0.00     0.149 C 
HETATM   16  H   UNL     1     -38.071  42.200 -52.867  1.00  0.00     0.162 HD
HETATM   17  O   UNL     1     -38.542  39.279 -51.723  1.00  0.00    -0.268 OA
ENDBRANCH   9  13
ENDBRANCH   2   5
BRANCH   1  18
HETATM   18  C   UNL     1     -34.084  39.578 -55.712  1.00  0.00     0.076 A 
HETATM   19  C   UNL     1     -34.432  38.237 -55.431  1.00  0.00     0.158 A 
HETATM   20  N   UNL     1     -35.441  37.790 -56.172  1.00  0.00    -0.183 NA
HETATM   21  N   UNL     1     -35.796  38.857 -56.921  1.00  0.00    -0.268 N 
HETATM   22  C   UNL     1     -35.060  39.982 -56.627  1.00  0.00     0.052 A 
BRANCH  21  23
HETATM   23  C   UNL     1     -36.799  38.633 -57.957  1.00  0.00     0.106 C 
HETATM   24  C   UNL     1     -37.580  37.347 -57.682  1.00  0.00     0.034 C 
BRANCH  23  25
HETATM   25  C   UNL     1     -36.202  38.625 -59.380  1.00  0.00     0.022 C 
HETATM   26  C   UNL     1     -36.979  39.514 -60.345  1.00  0.00     0.007 C 
ENDBRANCH  23  25
ENDBRANCH  21  23
BRANCH  22  27
HETATM   27  C   UNL     1     -35.221  41.435 -57.082  1.00  0.00     0.038 A 
HETATM   28  C   UNL     1     -36.404  42.063 -57.765  1.00  0.00     0.011 A 
HETATM   29  C   UNL     1     -36.220  42.259 -56.297  1.00  0.00     0.011 A 
ENDBRANCH  22  27
ENDBRANCH   1  18
TORSDOF 7
ENDMDL
MODEL 8
REMARK VINA RESULT:      -6.9      2.437      4.105
REMARK  7 active torsions:
REMARK  status: ('A' for Active; 'I' for Inactive)
REMARK    1  A    between atoms: C_2  and  C_3 
REMARK    2  A    between atoms: C_3  and  N_4 
REMARK    3  A    between atoms: C_7  and  C_8 
REMARK       I    between atoms: C_8  and  N_9 
REMARK    4  A    between atoms: N_9  and  C_10 
REMARK    5  A    between atoms: C_11  and  O_12 
REMARK    6  A    between atoms: C_16  and  C_17 
REMARK       I    between atoms: C_17  and  N_18 
REMARK    7  A    between atoms: C_23  and  C_24 
ROOT
HETATM    1  C   UNL     1     -43.928  55.967 -50.963  1.00  0.00     0.259 C 
HETATM    2  N   UNL     1     -43.860  57.329 -50.807  1.00  0.00    -0.320 N 
HETATM    3  O   UNL     1     -44.509  55.329 -50.082  1.00  0.00    -0.267 OA
HETATM    4  H   UNL     1     -44.006  57.606 -49.839  1.00  0.00     0.169 HD
ENDROOT
BRANCH   2   5
HETATM    5  C   UNL     1     -43.626  58.403 -51.685  1.00  0.00     0.069 A 
HETATM    6  C   UNL     1     -42.358  59.019 -51.596  1.00  0.00     0.095 A 
HETATM    7  C   UNL     1     -42.044  60.097 -52.423  1.00  0.00     0.040 A 
HETATM    8  C   UNL     1     -42.994  60.574 -53.327  1.00  0.00     0.020 A 
HETATM    9  C   UNL     1     -44.268  59.996 -53.388  1.00  0.00     0.034 A 
HETATM   10  C   UNL     1     -44.585  58.902 -52.570  1.00  0.00     0.049 A 
BRANCH   6  11
HETATM   11  O   UNL     1     -41.502  58.489 -50.659  1.00  0.00    -0.354 OA
HETATM   12  C   UNL     1     -40.117  58.756 -50.857  1.00  0.00     0.210 C 
ENDBRANCH   6  11
BRANCH   9  13
HETATM   13  C   UNL     1     -45.249  60.594 -54.331  1.00  0.00     0.251 C 
HETATM   14  N   UNL     1     -45.089  60.271 -55.664  1.00  0.00    -0.361 N 
HETATM   15  C   UNL     1     -46.087  60.661 -56.629  1.00  0.00     0.149 C 
HETATM   16  H   UNL     1     -44.460  59.521 -55.914  1.00  0.00     0.162 HD
HETATM   17  O   UNL     1     -46.173  61.278 -53.904  1.00  0.00    -0.268 OA
ENDBRANCH   9  13
ENDBRANCH   2   5
BRANCH   1  18
HETATM   18  C   UNL     1     -43.204  55.307 -52.044  1.00  0.00     0.076 A 
HETATM   19  C   UNL     1     -43.617  55.131 -53.385  1.00  0.00     0.158 A 
HETATM   20  N   UNL     1     -42.692  54.560 -54.149  1.00  0.00    -0.183 NA
HETATM   21  N   UNL     1     -41.638  54.395 -53.321  1.00  0.00    -0.268 N 
HETATM   22  C   UNL     1     -41.868  54.899 -52.061  1.00  0.00     0.052 A 
BRANCH  21  23
HETATM   23  C   UNL     1     -40.499  53.646 -53.841  1.00  0.00     0.106 C 
HETATM   24  C   UNL     1     -39.966  54.295 -55.120  1.00  0.00     0.034 C 
BRANCH  23  25
HETATM   25  C   UNL     1     -40.815  52.152 -54.069  1.00  0.00     0.022 C 
HETATM   26  C   UNL     1     -39.643  51.246 -53.710  1.00  0.00     0.007 C 
ENDBRANCH  23  25
ENDBRANCH  21  23
BRANCH  22  27
HETATM   27  C   UNL     1     -40.926  55.093 -50.870  1.00  0.00     0.038 A 
HETATM   28  C   UNL     1     -41.157  54.705 -49.436  1.00  0.00     0.011 A 
HETATM   29  C   UNL     1     -40.318  53.827 -50.304  1.00  0.00     0.011 A 
ENDBRANCH  22  27
ENDBRANCH   1  18
TORSDOF 7
ENDMDL
MODEL 9
REMARK VINA RESULT:      -6.7      2.924      4.451
REMARK  7 active torsions:
REMARK  status: ('A' for Active; 'I' for Inactive)
REMARK    1  A    between atoms: C_2  and  C_3 
REMARK    2  A    between atoms: C_3  and  N_4 
REMARK    3  A    between atoms: C_7  and  C_8 
REMARK       I    between atoms: C_8  and  N_9 
REMARK    4  A    between atoms: N_9  and  C_10 
REMARK    5  A    between atoms: C_11  and  O_12 
REMARK    6  A    between atoms: C_16  and  C_17 
REMARK       I    between atoms: C_17  and  N_18 
REMARK    7  A    between atoms: C_23  and  C_24 
ROOT
HETATM    1  C   UNL     1     -44.155  56.840 -53.363  1.00  0.00     0.259 C 
HETATM    2  N   UNL     1     -44.685  58.074 -53.080  1.00  0.00    -0.320 N 
HETATM    3  O   UNL     1     -44.502  56.309 -54.419  1.00  0.00    -0.267 OA
HETATM    4  H   UNL     1     -45.537  58.249 -53.607  1.00  0.00     0.169 HD
ENDROOT
BRANCH   2   5
HETATM    5  C   UNL     1     -44.311  59.125 -52.223  1.00  0.00     0.069 A 
HETATM    6  C   UNL     1     -43.130  59.820 -52.563  1.00  0.00     0.095 A 
HETATM    7  C   UNL     1     -42.681  60.871 -51.763  1.00  0.00     0.040 A 
HETATM    8  C   UNL     1     -43.395  61.221 -50.617  1.00  0.00     0.020 A 
HETATM    9  C   UNL     1     -44.542  60.506 -50.249  1.00  0.00     0.034 A 
HETATM   10  C   UNL     1     -45.007  59.459 -51.057  1.00  0.00     0.049 A 
BRANCH   6  11
HETATM   11  O   UNL     1     -42.488  59.384 -53.698  1.00  0.00    -0.354 OA
HETATM   12  C   UNL     1     -41.096  59.115 -53.564  1.00  0.00     0.210 C 
ENDBRANCH   6  11
BRANCH   9  13
HETATM   13  C   UNL     1     -45.217  60.894 -48.984  1.00  0.00     0.251 C 
HETATM   14  N   UNL     1     -44.458  60.802 -47.834  1.00  0.00    -0.361 N 
HETATM   15  C   UNL     1     -44.968  61.317 -46.586  1.00  0.00     0.149 C 
HETATM   16  H   UNL     1     -43.460  60.668 -47.915  1.00  0.00     0.162 HD
HETATM   17  O   UNL     1     -46.364  61.327 -49.008  1.00  0.00    -0.268 OA
ENDBRANCH   9  13
ENDBRANCH   2   5
BRANCH   1  18
HETATM   18  C   UNL     1     -43.344  56.137 -52.374  1.00  0.00     0.076 A 
HETATM   19  C   UNL     1     -43.694  55.798 -51.047  1.00  0.00     0.158 A 
HETATM   20  N   UNL     1     -42.764  55.081 -50.425  1.00  0.00    -0.183 NA
HETATM   21  N   UNL     1     -41.806  54.905 -51.360  1.00  0.00    -0.268 N 
HETATM   22  C   UNL     1     -42.142  55.455 -52.576  1.00  0.00     0.052 A 
BRANCH  21  23
HETATM   23  C   UNL     1     -40.567  54.268 -50.926  1.00  0.00     0.106 C 
HETATM   24  C   UNL     1     -40.714  52.746 -50.925  1.00  0.00     0.034 C 
BRANCH  23  25
HETATM   25  C   UNL     1     -40.079  54.778 -49.552  1.00  0.00     0.022 C 
HETATM   26  C   UNL     1     -40.336  53.776 -48.432  1.00  0.00     0.007 C 
ENDBRANCH  23  25
ENDBRANCH  21  23
BRANCH  22  27
HETATM   27  C   UNL     1     -41.465  55.354 -53.945  1.00  0.00     0.038 A 
HETATM   28  C   UNL     1     -40.353  54.430 -54.361  1.00  0.00     0.011 A 
HETATM   29  C   UNL     1     -41.761  54.092 -54.729  1.00  0.00     0.011 A 
ENDBRANCH  22  27
ENDBRANCH   1  18
TORSDOF 7
ENDMDL
MODEL 10
REMARK VINA RESULT:      -6.7      4.352      7.901
REMARK  7 active torsions:
REMARK  status: ('A' for Active; 'I' for Inactive)
REMARK    1  A    between atoms: C_2  and  C_3 
REMARK    2  A    between atoms: C_3  and  N_4 
REMARK    3  A    between atoms: C_7  and  C_8 
REMARK       I    between atoms: C_8  and  N_9 
REMARK    4  A    between atoms: N_9  and  C_10 
REMARK    5  A    between atoms: C_11  and  O_12 
REMARK    6  A    between atoms: C_16  and  C_17 
REMARK       I    between atoms: C_17  and  N_18 
REMARK    7  A    between atoms: C_23  and  C_24 
ROOT
HETATM    1  C   UNL     1     -42.261  59.031 -55.779  1.00  0.00     0.259 C 
HETATM    2  N   UNL     1     -41.958  58.378 -54.609  1.00  0.00    -0.320 N 
HETATM    3  O   UNL     1     -41.682  60.098 -55.992  1.00  0.00    -0.267 OA
HETATM    4  H   UNL     1     -41.549  59.006 -53.922  1.00  0.00     0.169 HD
ENDROOT
BRANCH   2   5
HETATM    5  C   UNL     1     -42.100  57.051 -54.166  1.00  0.00     0.069 A 
HETATM    6  C   UNL     1     -43.169  56.799 -53.278  1.00  0.00     0.095 A 
HETATM    7  C   UNL     1     -43.378  55.512 -52.781  1.00  0.00     0.040 A 
HETATM    8  C   UNL     1     -42.517  54.479 -53.154  1.00  0.00     0.020 A 
HETATM    9  C   UNL     1     -41.429  54.732 -53.998  1.00  0.00     0.034 A 
HETATM   10  C   UNL     1     -41.222  56.020 -54.512  1.00  0.00     0.049 A 
BRANCH   6  11
HETATM   11  O   UNL     1     -43.945  57.887 -52.955  1.00  0.00    -0.354 OA
HETATM   12  C   UNL     1     -44.756  57.752 -51.792  1.00  0.00     0.210 C 
ENDBRANCH   6  11
BRANCH   9  13
HETATM   13  C   UNL     1     -40.518  53.598 -54.304  1.00  0.00     0.251 C 
HETATM   14  N   UNL     1     -40.416  52.620 -53.335  1.00  0.00    -0.361 N 
HETATM   15  C   UNL     1     -39.694  51.401 -53.610  1.00  0.00     0.149 C 
HETATM   16  H   UNL     1     -41.081  52.612 -52.575  1.00  0.00     0.162 HD
HETATM   17  O   UNL     1     -39.955  53.539 -55.392  1.00  0.00    -0.268 OA
ENDBRANCH   9  13
ENDBRANCH   2   5
BRANCH   1  18
HETATM   18  C   UNL     1     -43.335  58.548 -56.641  1.00  0.00     0.076 A 
HETATM   19  C   UNL     1     -44.703  58.397 -56.320  1.00  0.00     0.158 A 
HETATM   20  N   UNL     1     -45.445  58.012 -57.353  1.00  0.00    -0.183 NA
HETATM   21  N   UNL     1     -44.570  57.947 -58.380  1.00  0.00    -0.268 N 
HETATM   22  C   UNL     1     -43.299  58.335 -58.021  1.00  0.00     0.052 A 
BRANCH  21  23
HETATM   23  C   UNL     1     -45.066  57.400 -59.639  1.00  0.00     0.106 C 
HETATM   24  C   UNL     1     -46.427  58.003 -59.988  1.00  0.00     0.034 C 
BRANCH  23  25
HETATM   25  C   UNL     1     -45.126  55.857 -59.642  1.00  0.00     0.022 C 
HETATM   26  C   UNL     1     -43.763  55.219 -59.398  1.00  0.00     0.007 C 
ENDBRANCH  23  25
ENDBRANCH  21  23
BRANCH  22  27
HETATM   27  C   UNL     1     -42.049  58.587 -58.868  1.00  0.00     0.038 A 
HETATM   28  C   UNL     1     -41.892  58.425 -60.354  1.00  0.00     0.011 A 
HETATM   29  C   UNL     1     -42.114  59.788 -59.788  1.00  0.00     0.011 A 
ENDBRANCH  22  27
ENDBRANCH   1  18
TORSDOF 7
ENDMDL
