MODEL 1
REMARK VINA RESULT:      -9.0      0.000      0.000
REMARK  6 active torsions:
REMARK  status: ('A' for Active; 'I' for Inactive)
REMARK    1  A    between atoms: C_7  and  C_8 
REMARK    2  A    between atoms: C_8  and  C_9 
REMARK    3  A    between atoms: C_9  and  N_10 
REMARK    4  A    between atoms: C_12  and  C_13 
REMARK    5  A    between atoms: C_13  and  N_14 
REMARK    6  A    between atoms: C_36  and  O_37 
ROOT
HETATM    1  N   UNL     1     -40.961  56.403 -53.974  1.00  0.00    -0.054 N 
HETATM    2  H   UNL     1     -39.954  56.385 -53.738  1.00  0.00     0.281 HD
HETATM    3  C   UNL     1     -41.577  55.694 -52.760  1.00  0.00     0.240 C 
HETATM    4  C   UNL     1     -40.941  54.315 -52.629  1.00  0.00    -0.020 A 
HETATM    5  C   UNL     1     -40.430  53.640 -53.759  1.00  0.00    -0.048 A 
HETATM    6  C   UNL     1     -40.373  54.287 -55.122  1.00  0.00     0.067 C 
HETATM    7  C   UNL     1     -41.135  55.606 -55.237  1.00  0.00     0.241 C 
HETATM    8  C   UNL     1     -40.892  53.688 -51.373  1.00  0.00     0.010 A 
HETATM    9  C   UNL     1     -40.349  52.410 -51.240  1.00  0.00     0.001 A 
HETATM   10  C   UNL     1     -39.847  51.746 -52.355  1.00  0.00     0.001 A 
HETATM   11  C   UNL     1     -39.883  52.357 -53.607  1.00  0.00     0.008 A 
ENDROOT
BRANCH   1  12
HETATM   12  C   UNL     1     -41.219  57.897 -54.144  1.00  0.00     0.319 C 
BRANCH  12  13
HETATM   13  C   UNL     1     -40.520  58.753 -53.099  1.00  0.00     0.188 C 
HETATM   14  O   UNL     1     -39.298  58.901 -53.205  1.00  0.00    -0.290 OA
BRANCH  13  15
HETATM   15  C   UNL     1     -41.313  59.405 -52.053  1.00  0.00     0.046 A 
HETATM   16  C   UNL     1     -41.392  58.942 -50.742  1.00  0.00     0.020 A 
HETATM   17  C   UNL     1     -40.792  57.748 -50.083  1.00  0.00     0.069 C 
HETATM   18  N   UNL     1     -42.170  59.815 -50.027  1.00  0.00    -0.358 N 
HETATM   19  H   UNL     1     -42.382  59.734 -49.040  1.00  0.00     0.166 HD
HETATM   20  C   UNL     1     -42.624  60.826 -50.835  1.00  0.00     0.043 A 
HETATM   21  C   UNL     1     -42.123  60.598 -52.117  1.00  0.00     0.009 A 
HETATM   22  C   UNL     1     -43.431  61.923 -50.511  1.00  0.00     0.033 A 
HETATM   23  C   UNL     1     -42.480  61.531 -53.120  1.00  0.00     0.051 A 
HETATM   24  C   UNL     1     -43.303  62.629 -52.824  1.00  0.00     0.069 A 
HETATM   25  C   UNL     1     -43.763  62.824 -51.528  1.00  0.00     0.039 A 
BRANCH  24  26
HETATM   26  O   UNL     1     -43.570  63.428 -53.904  1.00  0.00    -0.356 OA
HETATM   27  C   UNL     1     -43.920  62.771 -55.119  1.00  0.00     0.210 C 
ENDBRANCH  24  26
ENDBRANCH  13  15
ENDBRANCH  12  13
ENDBRANCH   1  12
BRANCH   3  28
HETATM   28  C   UNL     1     -43.126  55.516 -52.808  1.00  0.00     0.173 C 
BRANCH  28  29
HETATM   29  N   UNL     1     -43.911  56.719 -52.599  1.00  0.00    -0.278 N 
HETATM   30  C   UNL     1     -44.452  57.093 -51.402  1.00  0.00     0.261 A 
HETATM   31  O   UNL     1     -44.493  56.438 -50.377  1.00  0.00    -0.267 OA
HETATM   32  C   UNL     1     -45.139  58.363 -51.634  1.00  0.00     0.048 A 
HETATM   33  C   UNL     1     -45.024  58.657 -52.985  1.00  0.00     0.048 A 
HETATM   34  C   UNL     1     -45.865  59.158 -50.772  1.00  0.00     0.018 A 
HETATM   35  C   UNL     1     -44.259  57.577 -53.605  1.00  0.00     0.261 A 
HETATM   36  C   UNL     1     -45.621  59.767 -53.546  1.00  0.00     0.018 A 
HETATM   37  O   UNL     1     -44.061  57.430 -54.794  1.00  0.00    -0.267 OA
HETATM   38  C   UNL     1     -46.351  60.595 -52.690  1.00  0.00     0.001 A 
HETATM   39  C   UNL     1     -46.473  60.294 -51.316  1.00  0.00     0.001 A 
ENDBRANCH  28  29
ENDBRANCH   3  28
TORSDOF 6
ENDMDL
MODEL 2
REMARK VINA RESULT:      -8.6      2.907      7.206
REMARK  6 active torsions:
REMARK  status: ('A' for Active; 'I' for Inactive)
REMARK    1  A    between atoms: C_7  and  C_8 
REMARK    2  A    between atoms: C_8  and  C_9 
REMARK    3  A    between atoms: C_9  and  N_10 
REMARK    4  A    between atoms: C_12  and  C_13 
REMARK    5  A    between atoms: C_13  and  N_14 
REMARK    6  A    between atoms: C_36  and  O_37 
ROOT
HETATM    1  N   UNL     1     -43.318  55.900 -56.543  1.00  0.00    -0.054 N 
HETATM    2  H   UNL     1     -44.240  55.432 -56.584  1.00  0.00     0.281 HD
HETATM    3  C   UNL     1     -43.701  57.292 -56.024  1.00  0.00     0.240 C 
HETATM    4  C   UNL     1     -44.723  57.901 -56.977  1.00  0.00    -0.020 A 
HETATM    5  C   UNL     1     -44.756  57.532 -58.339  1.00  0.00    -0.048 A 
HETATM    6  C   UNL     1     -43.876  56.440 -58.897  1.00  0.00     0.067 C 
HETATM    7  C   UNL     1     -42.783  55.952 -57.947  1.00  0.00     0.241 C 
HETATM    8  C   UNL     1     -45.624  58.870 -56.505  1.00  0.00     0.010 A 
HETATM    9  C   UNL     1     -46.540  59.466 -57.370  1.00  0.00     0.001 A 
HETATM   10  C   UNL     1     -46.571  59.103 -58.712  1.00  0.00     0.001 A 
HETATM   11  C   UNL     1     -45.687  58.139 -59.195  1.00  0.00     0.008 A 
ENDROOT
BRANCH   1  12
HETATM   12  C   UNL     1     -42.535  54.975 -55.616  1.00  0.00     0.319 C 
BRANCH  12  13
HETATM   13  C   UNL     1     -43.257  54.678 -54.310  1.00  0.00     0.188 C 
HETATM   14  O   UNL     1     -44.490  54.607 -54.341  1.00  0.00    -0.290 OA
BRANCH  13  15
HETATM   15  C   UNL     1     -42.476  54.434 -53.094  1.00  0.00     0.046 A 
HETATM   16  C   UNL     1     -42.676  55.118 -51.898  1.00  0.00     0.020 A 
HETATM   17  C   UNL     1     -43.616  56.218 -51.540  1.00  0.00     0.069 C 
HETATM   18  N   UNL     1     -41.816  54.605 -50.963  1.00  0.00    -0.358 N 
HETATM   19  H   UNL     1     -41.758  54.904 -49.997  1.00  0.00     0.166 HD
HETATM   20  C   UNL     1     -41.039  53.618 -51.515  1.00  0.00     0.043 A 
HETATM   21  C   UNL     1     -41.410  53.491 -52.854  1.00  0.00     0.009 A 
HETATM   22  C   UNL     1     -40.049  52.832 -50.915  1.00  0.00     0.033 A 
HETATM   23  C   UNL     1     -40.720  52.522 -53.620  1.00  0.00     0.051 A 
HETATM   24  C   UNL     1     -39.710  51.732 -53.047  1.00  0.00     0.069 A 
HETATM   25  C   UNL     1     -39.388  51.884 -51.704  1.00  0.00     0.039 A 
BRANCH  24  26
HETATM   26  O   UNL     1     -39.128  50.855 -53.922  1.00  0.00    -0.356 OA
HETATM   27  C   UNL     1     -39.951  49.806 -54.425  1.00  0.00     0.210 C 
ENDBRANCH  24  26
ENDBRANCH  13  15
ENDBRANCH  12  13
ENDBRANCH   1  12
BRANCH   3  28
HETATM   28  C   UNL     1     -42.515  58.296 -55.872  1.00  0.00     0.173 C 
BRANCH  28  29
HETATM   29  N   UNL     1     -42.183  58.684 -54.514  1.00  0.00    -0.278 N 
HETATM   30  C   UNL     1     -41.216  58.091 -53.752  1.00  0.00     0.261 A 
HETATM   31  O   UNL     1     -40.591  57.081 -54.014  1.00  0.00    -0.267 OA
HETATM   32  C   UNL     1     -41.203  58.797 -52.471  1.00  0.00     0.048 A 
HETATM   33  C   UNL     1     -42.213  59.748 -52.510  1.00  0.00     0.048 A 
HETATM   34  C   UNL     1     -40.437  58.590 -51.343  1.00  0.00     0.018 A 
HETATM   35  C   UNL     1     -42.860  59.646 -53.817  1.00  0.00     0.261 A 
HETATM   36  C   UNL     1     -42.507  60.548 -51.426  1.00  0.00     0.018 A 
HETATM   37  O   UNL     1     -43.862  60.237 -54.168  1.00  0.00    -0.267 OA
HETATM   38  C   UNL     1     -41.736  60.365 -50.275  1.00  0.00     0.001 A 
HETATM   39  C   UNL     1     -40.712  59.394 -50.233  1.00  0.00     0.001 A 
ENDBRANCH  28  29
ENDBRANCH   3  28
TORSDOF 6
ENDMDL
MODEL 3
REMARK VINA RESULT:      -8.5      3.352      7.083
REMARK  6 active torsions:
REMARK  status: ('A' for Active; 'I' for Inactive)
REMARK    1  A    between atoms: C_7  and  C_8 
REMARK    2  A    between atoms: C_8  and  C_9 
REMARK    3  A    between atoms: C_9  and  N_10 
REMARK    4  A    between atoms: C_12  and  C_13 
REMARK    5  A    between atoms: C_13  and  N_14 
REMARK    6  A    between atoms: C_36  and  O_37 
ROOT
HETATM    1  N   UNL     1     -42.373  57.111 -54.340  1.00  0.00    -0.054 N 
HETATM    2  H   UNL     1     -43.400  57.126 -54.462  1.00  0.00     0.281 HD
HETATM    3  C   UNL     1     -42.137  55.666 -53.878  1.00  0.00     0.240 C 
HETATM    4  C   UNL     1     -42.967  55.417 -52.624  1.00  0.00    -0.020 A 
HETATM    5  C   UNL     1     -43.307  56.477 -51.755  1.00  0.00    -0.048 A 
HETATM    6  C   UNL     1     -42.978  57.914 -52.075  1.00  0.00     0.067 C 
HETATM    7  C   UNL     1     -42.038  58.106 -53.264  1.00  0.00     0.241 C 
HETATM    8  C   UNL     1     -43.372  54.110 -52.306  1.00  0.00     0.010 A 
HETATM    9  C   UNL     1     -44.098  53.857 -51.143  1.00  0.00     0.001 A 
HETATM   10  C   UNL     1     -44.431  54.901 -50.287  1.00  0.00     0.001 A 
HETATM   11  C   UNL     1     -44.041  56.205 -50.591  1.00  0.00     0.008 A 
ENDROOT
BRANCH   1  12
HETATM   12  C   UNL     1     -41.884  57.512 -55.729  1.00  0.00     0.319 C 
BRANCH  12  13
HETATM   13  C   UNL     1     -42.546  58.775 -56.260  1.00  0.00     0.188 C 
HETATM   14  O   UNL     1     -41.821  59.748 -56.492  1.00  0.00    -0.290 OA
BRANCH  13  15
HETATM   15  C   UNL     1     -43.988  58.776 -56.525  1.00  0.00     0.046 A 
HETATM   16  C   UNL     1     -44.912  59.490 -55.767  1.00  0.00     0.020 A 
HETATM   17  C   UNL     1     -44.741  60.346 -54.559  1.00  0.00     0.069 C 
HETATM   18  N   UNL     1     -46.151  59.309 -56.322  1.00  0.00    -0.358 N 
HETATM   19  H   UNL     1     -47.009  59.729 -55.985  1.00  0.00     0.166 HD
HETATM   20  C   UNL     1     -46.073  58.477 -57.410  1.00  0.00     0.043 A 
HETATM   21  C   UNL     1     -44.737  58.108 -57.562  1.00  0.00     0.009 A 
HETATM   22  C   UNL     1     -47.092  58.042 -58.266  1.00  0.00     0.033 A 
HETATM   23  C   UNL     1     -44.431  57.236 -58.634  1.00  0.00     0.051 A 
HETATM   24  C   UNL     1     -45.437  56.771 -59.497  1.00  0.00     0.069 A 
HETATM   25  C   UNL     1     -46.752  57.181 -59.315  1.00  0.00     0.039 A 
BRANCH  24  26
HETATM   26  O   UNL     1     -44.983  55.924 -60.471  1.00  0.00    -0.356 OA
HETATM   27  C   UNL     1     -44.721  54.578 -60.083  1.00  0.00     0.210 C 
ENDBRANCH  24  26
ENDBRANCH  13  15
ENDBRANCH  12  13
ENDBRANCH   1  12
BRANCH   3  28
HETATM   28  C   UNL     1     -40.653  55.302 -53.563  1.00  0.00     0.173 C 
BRANCH  28  29
HETATM   29  N   UNL     1     -40.384  53.898 -53.311  1.00  0.00    -0.278 N 
HETATM   30  C   UNL     1     -40.166  53.361 -52.074  1.00  0.00     0.261 A 
HETATM   31  O   UNL     1     -40.021  53.961 -51.027  1.00  0.00    -0.267 OA
HETATM   32  C   UNL     1     -39.956  51.927 -52.274  1.00  0.00     0.048 A 
HETATM   33  C   UNL     1     -39.999  51.687 -53.640  1.00  0.00     0.048 A 
HETATM   34  C   UNL     1     -39.677  50.928 -51.365  1.00  0.00     0.018 A 
HETATM   35  C   UNL     1     -40.244  52.967 -54.302  1.00  0.00     0.261 A 
HETATM   36  C   UNL     1     -39.775  50.434 -54.171  1.00  0.00     0.018 A 
HETATM   37  O   UNL     1     -40.226  53.168 -55.500  1.00  0.00    -0.267 OA
HETATM   38  C   UNL     1     -39.502  49.402 -53.268  1.00  0.00     0.001 A 
HETATM   39  C   UNL     1     -39.452  49.647 -51.878  1.00  0.00     0.001 A 
ENDBRANCH  28  29
ENDBRANCH   3  28
TORSDOF 6
ENDMDL
MODEL 4
REMARK VINA RESULT:      -8.5      2.440      5.245
REMARK  6 active torsions:
REMARK  status: ('A' for Active; 'I' for Inactive)
REMARK    1  A    between atoms: C_7  and  C_8 
REMARK    2  A    between atoms: C_8  and  C_9 
REMARK    3  A    between atoms: C_9  and  N_10 
REMARK    4  A    between atoms: C_12  and  C_13 
REMARK    5  A    between atoms: C_13  and  N_14 
REMARK    6  A    between atoms: C_36  and  O_37 
ROOT
HETATM    1  N   UNL     1     -41.873  59.216 -55.351  1.00  0.00    -0.054 N 
HETATM    2  H   UNL     1     -40.980  58.738 -55.564  1.00  0.00     0.281 HD
HETATM    3  C   UNL     1     -42.886  58.077 -55.537  1.00  0.00     0.240 C 
HETATM    4  C   UNL     1     -42.739  57.524 -56.950  1.00  0.00    -0.020 A 
HETATM    5  C   UNL     1     -42.266  58.337 -58.003  1.00  0.00    -0.048 A 
HETATM    6  C   UNL     1     -41.768  59.743 -57.770  1.00  0.00     0.067 C 
HETATM    7  C   UNL     1     -42.053  60.300 -56.376  1.00  0.00     0.241 C 
HETATM    8  C   UNL     1     -43.113  56.198 -57.220  1.00  0.00     0.010 A 
HETATM    9  C   UNL     1     -43.024  55.686 -58.514  1.00  0.00     0.001 A 
HETATM   10  C   UNL     1     -42.558  56.488 -59.551  1.00  0.00     0.001 A 
HETATM   11  C   UNL     1     -42.178  57.805 -59.298  1.00  0.00     0.008 A 
ENDROOT
BRANCH   1  12
HETATM   12  C   UNL     1     -41.624  59.735 -53.937  1.00  0.00     0.319 C 
BRANCH  12  13
HETATM   13  C   UNL     1     -40.653  58.875 -53.142  1.00  0.00     0.188 C 
HETATM   14  O   UNL     1     -39.445  59.048 -53.334  1.00  0.00    -0.290 OA
BRANCH  13  15
HETATM   15  C   UNL     1     -41.174  57.927 -52.153  1.00  0.00     0.046 A 
HETATM   16  C   UNL     1     -41.558  58.289 -50.864  1.00  0.00     0.020 A 
HETATM   17  C   UNL     1     -41.522  59.601 -50.159  1.00  0.00     0.069 C 
HETATM   18  N   UNL     1     -42.043  57.173 -50.234  1.00  0.00    -0.358 N 
HETATM   19  H   UNL     1     -42.411  57.149 -49.290  1.00  0.00     0.166 HD
HETATM   20  C   UNL     1     -41.969  56.082 -51.062  1.00  0.00     0.043 A 
HETATM   21  C   UNL     1     -41.414  56.509 -52.269  1.00  0.00     0.009 A 
HETATM   22  C   UNL     1     -42.363  54.761 -50.823  1.00  0.00     0.033 A 
HETATM   23  C   UNL     1     -41.240  55.528 -53.275  1.00  0.00     0.051 A 
HETATM   24  C   UNL     1     -41.611  54.193 -53.055  1.00  0.00     0.069 A 
HETATM   25  C   UNL     1     -42.175  53.820 -51.841  1.00  0.00     0.039 A 
BRANCH  24  26
HETATM   26  O   UNL     1     -41.363  53.366 -54.117  1.00  0.00    -0.356 OA
HETATM   27  C   UNL     1     -40.236  53.683 -54.930  1.00  0.00     0.210 C 
ENDBRANCH  24  26
ENDBRANCH  13  15
ENDBRANCH  12  13
ENDBRANCH   1  12
BRANCH   3  28
HETATM   28  C   UNL     1     -44.379  58.472 -55.318  1.00  0.00     0.173 C 
BRANCH  28  29
HETATM   29  N   UNL     1     -44.699  59.055 -54.029  1.00  0.00    -0.278 N 
HETATM   30  C   UNL     1     -44.762  58.356 -52.856  1.00  0.00     0.261 A 
HETATM   31  O   UNL     1     -44.707  57.149 -52.716  1.00  0.00    -0.267 OA
HETATM   32  C   UNL     1     -45.094  59.325 -51.811  1.00  0.00     0.048 A 
HETATM   33  C   UNL     1     -45.274  60.555 -52.426  1.00  0.00     0.048 A 
HETATM   34  C   UNL     1     -45.298  59.147 -50.459  1.00  0.00     0.018 A 
HETATM   35  C   UNL     1     -45.049  60.366 -53.858  1.00  0.00     0.261 A 
HETATM   36  C   UNL     1     -45.659  61.677 -51.722  1.00  0.00     0.018 A 
HETATM   37  O   UNL     1     -45.234  61.194 -54.728  1.00  0.00    -0.267 OA
HETATM   38  C   UNL     1     -45.859  61.525 -50.347  1.00  0.00     0.001 A 
HETATM   39  C   UNL     1     -45.682  60.272 -49.722  1.00  0.00     0.001 A 
ENDBRANCH  28  29
ENDBRANCH   3  28
TORSDOF 6
ENDMDL
MODEL 5
REMARK VINA RESULT:      -8.2      3.399      7.113
REMARK  6 active torsions:
REMARK  status: ('A' for Active; 'I' for Inactive)
REMARK    1  A    between atoms: C_7  and  C_8 
REMARK    2  A    between atoms: C_8  and  C_9 
REMARK    3  A    between atoms: C_9  and  N_10 
REMARK    4  A    between atoms: C_12  and  C_13 
REMARK    5  A    between atoms: C_13  and  N_14 
REMARK    6  A    between atoms: C_36  and  O_37 
ROOT
HETATM    1  N   UNL     1     -42.768  56.935 -55.543  1.00  0.00    -0.054 N 
HETATM    2  H   UNL     1     -43.799  56.972 -55.628  1.00  0.00     0.281 HD
HETATM    3  C   UNL     1     -42.594  56.147 -54.237  1.00  0.00     0.240 C 
HETATM    4  C   UNL     1     -43.336  56.880 -53.126  1.00  0.00    -0.020 A 
HETATM    5  C   UNL     1     -43.534  58.277 -53.182  1.00  0.00    -0.048 A 
HETATM    6  C   UNL     1     -43.136  59.096 -54.386  1.00  0.00     0.067 C 
HETATM    7  C   UNL     1     -42.283  58.352 -55.412  1.00  0.00     0.241 C 
HETATM    8  C   UNL     1     -43.802  56.164 -52.010  1.00  0.00     0.010 A 
HETATM    9  C   UNL     1     -44.448  56.822 -50.965  1.00  0.00     0.001 A 
HETATM   10  C   UNL     1     -44.641  58.199 -51.021  1.00  0.00     0.001 A 
HETATM   11  C   UNL     1     -44.190  58.923 -52.124  1.00  0.00     0.008 A 
ENDROOT
BRANCH   1  12
HETATM   12  C   UNL     1     -42.366  56.261 -56.851  1.00  0.00     0.319 C 
BRANCH  12  13
HETATM   13  C   UNL     1     -42.764  57.055 -58.086  1.00  0.00     0.188 C 
HETATM   14  O   UNL     1     -41.861  57.582 -58.744  1.00  0.00    -0.290 OA
BRANCH  13  15
HETATM   15  C   UNL     1     -44.175  57.119 -58.477  1.00  0.00     0.046 A 
HETATM   16  C   UNL     1     -44.822  56.123 -59.203  1.00  0.00     0.020 A 
HETATM   17  C   UNL     1     -44.321  54.842 -59.777  1.00  0.00     0.069 C 
HETATM   18  N   UNL     1     -46.137  56.481 -59.344  1.00  0.00    -0.358 N 
HETATM   19  H   UNL     1     -46.845  55.931 -59.814  1.00  0.00     0.166 HD
HETATM   20  C   UNL     1     -46.369  57.697 -58.752  1.00  0.00     0.043 A 
HETATM   21  C   UNL     1     -45.162  58.139 -58.211  1.00  0.00     0.009 A 
HETATM   22  C   UNL     1     -47.564  58.420 -58.655  1.00  0.00     0.033 A 
HETATM   23  C   UNL     1     -45.176  59.392 -57.552  1.00  0.00     0.051 A 
HETATM   24  C   UNL     1     -46.357  60.144 -57.456  1.00  0.00     0.069 A 
HETATM   25  C   UNL     1     -47.539  59.654 -57.997  1.00  0.00     0.039 A 
BRANCH  24  26
HETATM   26  O   UNL     1     -46.201  61.339 -56.805  1.00  0.00    -0.356 OA
HETATM   27  C   UNL     1     -46.489  62.519 -57.549  1.00  0.00     0.210 C 
ENDBRANCH  24  26
ENDBRANCH  13  15
ENDBRANCH  12  13
ENDBRANCH   1  12
BRANCH   3  28
HETATM   28  C   UNL     1     -41.117  55.932 -53.781  1.00  0.00     0.173 C 
BRANCH  28  29
HETATM   29  N   UNL     1     -40.755  54.574 -53.423  1.00  0.00    -0.278 N 
HETATM   30  C   UNL     1     -40.610  54.122 -52.142  1.00  0.00     0.261 A 
HETATM   31  O   UNL     1     -40.617  54.785 -51.123  1.00  0.00    -0.267 OA
HETATM   32  C   UNL     1     -40.260  52.704 -52.237  1.00  0.00     0.048 A 
HETATM   33  C   UNL     1     -40.153  52.392 -53.585  1.00  0.00     0.048 A 
HETATM   34  C   UNL     1     -39.984  51.782 -51.249  1.00  0.00     0.018 A 
HETATM   35  C   UNL     1     -40.441  53.610 -54.341  1.00  0.00     0.261 A 
HETATM   36  C   UNL     1     -39.772  51.140 -54.019  1.00  0.00     0.018 A 
HETATM   37  O   UNL     1     -40.327  53.751 -55.542  1.00  0.00    -0.267 OA
HETATM   38  C   UNL     1     -39.500  50.184 -53.036  1.00  0.00     0.001 A 
HETATM   39  C   UNL     1     -39.603  50.503 -51.664  1.00  0.00     0.001 A 
ENDBRANCH  28  29
ENDBRANCH   3  28
TORSDOF 6
ENDMDL
MODEL 6
REMARK VINA RESULT:      -8.1      2.662      6.376
REMARK  6 active torsions:
REMARK  status: ('A' for Active; 'I' for Inactive)
REMARK    1  A    between atoms: C_7  and  C_8 
REMARK    2  A    between atoms: C_8  and  C_9 
REMARK    3  A    between atoms: C_9  and  N_10 
REMARK    4  A    between atoms: C_12  and  C_13 
REMARK    5  A    between atoms: C_13  and  N_14 
REMARK    6  A    between atoms: C_36  and  O_37 
ROOT
HETATM    1  N   UNL     1     -42.941  55.961 -56.930  1.00  0.00    -0.054 N 
HETATM    2  H   UNL     1     -43.801  55.391 -57.001  1.00  0.00     0.281 HD
HETATM    3  C   UNL     1     -43.450  57.197 -56.175  1.00  0.00     0.240 C 
HETATM    4  C   UNL     1     -44.599  57.810 -56.968  1.00  0.00    -0.020 A 
HETATM    5  C   UNL     1     -44.680  57.653 -58.369  1.00  0.00    -0.048 A 
HETATM    6  C   UNL     1     -43.717  56.781 -59.136  1.00  0.00     0.067 C 
HETATM    7  C   UNL     1     -42.512  56.296 -58.331  1.00  0.00     0.241 C 
HETATM    8  C   UNL     1     -45.574  58.572 -56.303  1.00  0.00     0.010 A 
HETATM    9  C   UNL     1     -46.611  59.172 -57.016  1.00  0.00     0.001 A 
HETATM   10  C   UNL     1     -46.689  59.019 -58.397  1.00  0.00     0.001 A 
HETATM   11  C   UNL     1     -45.732  58.261 -59.070  1.00  0.00     0.008 A 
ENDROOT
BRANCH   1  12
HETATM   12  C   UNL     1     -41.993  55.013 -56.202  1.00  0.00     0.319 C 
BRANCH  12  13
HETATM   13  C   UNL     1     -42.699  54.091 -55.219  1.00  0.00     0.188 C 
HETATM   14  O   UNL     1     -43.709  53.499 -55.614  1.00  0.00    -0.290 OA
BRANCH  13  15
HETATM   15  C   UNL     1     -42.136  53.897 -53.880  1.00  0.00     0.046 A 
HETATM   16  C   UNL     1     -41.065  53.050 -53.607  1.00  0.00     0.020 A 
HETATM   17  C   UNL     1     -40.277  52.146 -54.491  1.00  0.00     0.069 C 
HETATM   18  N   UNL     1     -40.768  53.153 -52.273  1.00  0.00    -0.358 N 
HETATM   19  H   UNL     1     -40.019  52.660 -51.802  1.00  0.00     0.166 HD
HETATM   20  C   UNL     1     -41.627  54.026 -51.656  1.00  0.00     0.043 A 
HETATM   21  C   UNL     1     -42.510  54.503 -52.624  1.00  0.00     0.009 A 
HETATM   22  C   UNL     1     -41.669  54.427 -50.315  1.00  0.00     0.033 A 
HETATM   23  C   UNL     1     -43.496  55.423 -52.194  1.00  0.00     0.051 A 
HETATM   24  C   UNL     1     -43.571  55.827 -50.852  1.00  0.00     0.069 A 
HETATM   25  C   UNL     1     -42.657  55.337 -49.927  1.00  0.00     0.039 A 
BRANCH  24  26
HETATM   26  O   UNL     1     -44.588  56.706 -50.594  1.00  0.00    -0.356 OA
HETATM   27  C   UNL     1     -44.899  57.649 -51.616  1.00  0.00     0.210 C 
ENDBRANCH  24  26
ENDBRANCH  13  15
ENDBRANCH  12  13
ENDBRANCH   1  12
BRANCH   3  28
HETATM   28  C   UNL     1     -42.384  58.308 -55.921  1.00  0.00     0.173 C 
BRANCH  28  29
HETATM   29  N   UNL     1     -42.143  58.651 -54.532  1.00  0.00    -0.278 N 
HETATM   30  C   UNL     1     -42.659  59.749 -53.904  1.00  0.00     0.261 A 
HETATM   31  O   UNL     1     -43.265  60.671 -54.415  1.00  0.00    -0.267 OA
HETATM   32  C   UNL     1     -42.183  59.700 -52.521  1.00  0.00     0.048 A 
HETATM   33  C   UNL     1     -41.350  58.596 -52.407  1.00  0.00     0.048 A 
HETATM   34  C   UNL     1     -42.390  60.571 -51.472  1.00  0.00     0.018 A 
HETATM   35  C   UNL     1     -41.304  57.945 -53.715  1.00  0.00     0.261 A 
HETATM   36  C   UNL     1     -40.685  58.299 -51.236  1.00  0.00     0.018 A 
HETATM   37  O   UNL     1     -40.585  57.018 -54.029  1.00  0.00    -0.267 OA
HETATM   38  C   UNL     1     -40.888  59.160 -50.155  1.00  0.00     0.001 A 
HETATM   39  C   UNL     1     -41.731  60.287 -50.272  1.00  0.00     0.001 A 
ENDBRANCH  28  29
ENDBRANCH   3  28
TORSDOF 6
ENDMDL
MODEL 7
REMARK VINA RESULT:      -8.0      3.574      7.490
REMARK  6 active torsions:
REMARK  status: ('A' for Active; 'I' for Inactive)
REMARK    1  A    between atoms: C_7  and  C_8 
REMARK    2  A    between atoms: C_8  and  C_9 
REMARK    3  A    between atoms: C_9  and  N_10 
REMARK    4  A    between atoms: C_12  and  C_13 
REMARK    5  A    between atoms: C_13  and  N_14 
REMARK    6  A    between atoms: C_36  and  O_37 
ROOT
HETATM    1  N   UNL     1     -42.338  56.526 -55.114  1.00  0.00    -0.054 N 
HETATM    2  H   UNL     1     -43.358  56.562 -55.286  1.00  0.00     0.281 HD
HETATM    3  C   UNL     1     -42.266  55.629 -53.871  1.00  0.00     0.240 C 
HETATM    4  C   UNL     1     -43.112  56.257 -52.770  1.00  0.00    -0.020 A 
HETATM    5  C   UNL     1     -43.325  57.652 -52.723  1.00  0.00    -0.048 A 
HETATM    6  C   UNL     1     -42.836  58.575 -53.813  1.00  0.00     0.067 C 
HETATM    7  C   UNL     1     -41.887  57.929 -54.821  1.00  0.00     0.241 C 
HETATM    8  C   UNL     1     -43.662  55.444 -51.765  1.00  0.00     0.010 A 
HETATM    9  C   UNL     1     -44.406  56.005 -50.728  1.00  0.00     0.001 A 
HETATM   10  C   UNL     1     -44.613  57.380 -50.682  1.00  0.00     0.001 A 
HETATM   11  C   UNL     1     -44.080  58.199 -51.675  1.00  0.00     0.008 A 
ENDROOT
BRANCH   1  12
HETATM   12  C   UNL     1     -41.814  55.970 -56.436  1.00  0.00     0.319 C 
BRANCH  12  13
HETATM   13  C   UNL     1     -42.918  55.608 -57.417  1.00  0.00     0.188 C 
HETATM   14  O   UNL     1     -43.626  54.631 -57.149  1.00  0.00    -0.290 OA
BRANCH  13  15
HETATM   15  C   UNL     1     -43.137  56.448 -58.599  1.00  0.00     0.046 A 
HETATM   16  C   UNL     1     -43.858  56.037 -59.716  1.00  0.00     0.020 A 
HETATM   17  C   UNL     1     -44.523  54.742 -60.036  1.00  0.00     0.069 C 
HETATM   18  N   UNL     1     -43.909  57.082 -60.601  1.00  0.00    -0.358 N 
HETATM   19  H   UNL     1     -44.387  57.069 -61.493  1.00  0.00     0.166 HD
HETATM   20  C   UNL     1     -43.222  58.162 -60.107  1.00  0.00     0.043 A 
HETATM   21  C   UNL     1     -42.708  57.801 -58.862  1.00  0.00     0.009 A 
HETATM   22  C   UNL     1     -43.034  59.427 -60.677  1.00  0.00     0.033 A 
HETATM   23  C   UNL     1     -41.950  58.778 -58.174  1.00  0.00     0.051 A 
HETATM   24  C   UNL     1     -41.732  60.048 -58.731  1.00  0.00     0.069 A 
HETATM   25  C   UNL     1     -42.279  60.367 -59.968  1.00  0.00     0.039 A 
BRANCH  24  26
HETATM   26  O   UNL     1     -40.967  60.872 -57.951  1.00  0.00    -0.356 OA
HETATM   27  C   UNL     1     -40.557  62.108 -58.528  1.00  0.00     0.210 C 
ENDBRANCH  24  26
ENDBRANCH  13  15
ENDBRANCH  12  13
ENDBRANCH   1  12
BRANCH   3  28
HETATM   28  C   UNL     1     -40.831  55.386 -53.307  1.00  0.00     0.173 C 
BRANCH  28  29
HETATM   29  N   UNL     1     -40.496  54.010 -52.995  1.00  0.00    -0.278 N 
HETATM   30  C   UNL     1     -40.295  53.031 -53.927  1.00  0.00     0.261 A 
HETATM   31  O   UNL     1     -40.497  53.102 -55.124  1.00  0.00    -0.267 OA
HETATM   32  C   UNL     1     -39.965  51.812 -53.187  1.00  0.00     0.048 A 
HETATM   33  C   UNL     1     -40.045  52.113 -51.835  1.00  0.00     0.048 A 
HETATM   34  C   UNL     1     -39.694  50.537 -53.638  1.00  0.00     0.018 A 
HETATM   35  C   UNL     1     -40.418  53.522 -51.720  1.00  0.00     0.261 A 
HETATM   36  C   UNL     1     -39.848  51.158 -50.859  1.00  0.00     0.018 A 
HETATM   37  O   UNL     1     -40.697  54.108 -50.694  1.00  0.00    -0.267 OA
HETATM   38  C   UNL     1     -39.559  49.861 -51.291  1.00  0.00     0.001 A 
HETATM   39  C   UNL     1     -39.484  49.553 -52.667  1.00  0.00     0.001 A 
ENDBRANCH  28  29
ENDBRANCH   3  28
TORSDOF 6
ENDMDL
MODEL 8
REMARK VINA RESULT:      -7.7      3.815      7.689
REMARK  6 active torsions:
REMARK  status: ('A' for Active; 'I' for Inactive)
REMARK    1  A    between atoms: C_7  and  C_8 
REMARK    2  A    between atoms: C_8  and  C_9 
REMARK    3  A    between atoms: C_9  and  N_10 
REMARK    4  A    between atoms: C_12  and  C_13 
REMARK    5  A    between atoms: C_13  and  N_14 
REMARK    6  A    between atoms: C_36  and  O_37 
ROOT
HETATM    1  N   UNL     1     -42.986  58.345 -55.352  1.00  0.00    -0.054 N 
HETATM    2  H   UNL     1     -44.007  58.353 -55.518  1.00  0.00     0.281 HD
HETATM    3  C   UNL     1     -42.876  57.395 -54.151  1.00  0.00     0.240 C 
HETATM    4  C   UNL     1     -43.737  57.943 -53.019  1.00  0.00    -0.020 A 
HETATM    5  C   UNL     1     -43.999  59.326 -52.908  1.00  0.00    -0.048 A 
HETATM    6  C   UNL     1     -43.548  60.314 -53.957  1.00  0.00     0.067 C 
HETATM    7  C   UNL     1     -42.582  59.749 -54.996  1.00  0.00     0.241 C 
HETATM    8  C   UNL     1     -44.253  57.066 -52.050  1.00  0.00     0.010 A 
HETATM    9  C   UNL     1     -45.010  57.553 -50.986  1.00  0.00     0.001 A 
HETATM   10  C   UNL     1     -45.266  58.916 -50.877  1.00  0.00     0.001 A 
HETATM   11  C   UNL     1     -44.767  59.798 -51.833  1.00  0.00     0.008 A 
ENDROOT
BRANCH   1  12
HETATM   12  C   UNL     1     -42.450  57.868 -56.699  1.00  0.00     0.319 C 
BRANCH  12  13
HETATM   13  C   UNL     1     -42.707  58.851 -57.832  1.00  0.00     0.188 C 
HETATM   14  O   UNL     1     -41.737  59.462 -58.291  1.00  0.00    -0.290 OA
BRANCH  13  15
HETATM   15  C   UNL     1     -44.065  58.994 -58.366  1.00  0.00     0.046 A 
HETATM   16  C   UNL     1     -44.811  60.165 -58.274  1.00  0.00     0.020 A 
HETATM   17  C   UNL     1     -44.507  61.477 -57.635  1.00  0.00     0.069 C 
HETATM   18  N   UNL     1     -46.003  59.965 -58.921  1.00  0.00    -0.358 N 
HETATM   19  H   UNL     1     -46.734  60.659 -59.026  1.00  0.00     0.166 HD
HETATM   20  C   UNL     1     -46.071  58.688 -59.417  1.00  0.00     0.043 A 
HETATM   21  C   UNL     1     -44.883  58.041 -59.076  1.00  0.00     0.009 A 
HETATM   22  C   UNL     1     -47.097  58.076 -60.146  1.00  0.00     0.033 A 
HETATM   23  C   UNL     1     -44.747  56.694 -59.490  1.00  0.00     0.051 A 
HETATM   24  C   UNL     1     -45.768  56.052 -60.208  1.00  0.00     0.069 A 
HETATM   25  C   UNL     1     -46.927  56.745 -60.538  1.00  0.00     0.039 A 
BRANCH  24  26
HETATM   26  O   UNL     1     -45.491  54.748 -60.519  1.00  0.00    -0.356 OA
HETATM   27  C   UNL     1     -44.621  54.046 -59.635  1.00  0.00     0.210 C 
ENDBRANCH  24  26
ENDBRANCH  13  15
ENDBRANCH  12  13
ENDBRANCH   1  12
BRANCH   3  28
HETATM   28  C   UNL     1     -41.430  57.178 -53.604  1.00  0.00     0.173 C 
BRANCH  28  29
HETATM   29  N   UNL     1     -41.037  55.800 -53.380  1.00  0.00    -0.278 N 
HETATM   30  C   UNL     1     -40.838  54.880 -54.370  1.00  0.00     0.261 A 
HETATM   31  O   UNL     1     -41.086  55.008 -55.554  1.00  0.00    -0.267 OA
HETATM   32  C   UNL     1     -40.438  53.637 -53.710  1.00  0.00     0.048 A 
HETATM   33  C   UNL     1     -40.478  53.862 -52.342  1.00  0.00     0.048 A 
HETATM   34  C   UNL     1     -40.141  52.398 -54.239  1.00  0.00     0.018 A 
HETATM   35  C   UNL     1     -40.895  55.248 -52.137  1.00  0.00     0.261 A 
HETATM   36  C   UNL     1     -40.212  52.863 -51.427  1.00  0.00     0.018 A 
HETATM   37  O   UNL     1     -41.155  55.768 -51.071  1.00  0.00    -0.267 OA
HETATM   38  C   UNL     1     -39.895  51.603 -51.940  1.00  0.00     0.001 A 
HETATM   39  C   UNL     1     -39.861  51.371 -53.332  1.00  0.00     0.001 A 
ENDBRANCH  28  29
ENDBRANCH   3  28
TORSDOF 6
ENDMDL
MODEL 9
REMARK VINA RESULT:      -7.6      4.431      7.899
REMARK  6 active torsions:
REMARK  status: ('A' for Active; 'I' for Inactive)
REMARK    1  A    between atoms: C_7  and  C_8 
REMARK    2  A    between atoms: C_8  and  C_9 
REMARK    3  A    between atoms: C_9  and  N_10 
REMARK    4  A    between atoms: C_12  and  C_13 
REMARK    5  A    between atoms: C_13  and  N_14 
REMARK    6  A    between atoms: C_36  and  O_37 
ROOT
HETATM    1  N   UNL     1     -43.163  57.149 -56.971  1.00  0.00    -0.054 N 
HETATM    2  H   UNL     1     -44.185  57.093 -57.121  1.00  0.00     0.281 HD
HETATM    3  C   UNL     1     -43.056  56.896 -55.461  1.00  0.00     0.240 C 
HETATM    4  C   UNL     1     -43.901  57.937 -54.735  1.00  0.00    -0.020 A 
HETATM    5  C   UNL     1     -44.141  59.206 -55.306  1.00  0.00    -0.048 A 
HETATM    6  C   UNL     1     -43.685  59.557 -56.702  1.00  0.00     0.067 C 
HETATM    7  C   UNL     1     -42.736  58.543 -57.338  1.00  0.00     0.241 C 
HETATM    8  C   UNL     1     -44.421  57.646 -53.463  1.00  0.00     0.010 A 
HETATM    9  C   UNL     1     -45.163  58.599 -52.766  1.00  0.00     0.001 A 
HETATM   10  C   UNL     1     -45.398  59.849 -53.329  1.00  0.00     0.001 A 
HETATM   11  C   UNL     1     -44.894  60.151 -54.593  1.00  0.00     0.008 A 
ENDROOT
BRANCH   1  12
HETATM   12  C   UNL     1     -42.644  56.073 -57.921  1.00  0.00     0.319 C 
BRANCH  12  13
HETATM   13  C   UNL     1     -42.972  56.347 -59.380  1.00  0.00     0.188 C 
HETATM   14  O   UNL     1     -42.026  56.487 -60.163  1.00  0.00    -0.290 OA
BRANCH  13  15
HETATM   15  C   UNL     1     -44.373  56.382 -59.810  1.00  0.00     0.046 A 
HETATM   16  C   UNL     1     -45.168  55.247 -59.945  1.00  0.00     0.020 A 
HETATM   17  C   UNL     1     -44.858  53.802 -59.753  1.00  0.00     0.069 C 
HETATM   18  N   UNL     1     -46.426  55.647 -60.309  1.00  0.00    -0.358 N 
HETATM   19  H   UNL     1     -47.215  55.029 -60.458  1.00  0.00     0.166 HD
HETATM   20  C   UNL     1     -46.477  57.012 -60.440  1.00  0.00     0.043 A 
HETATM   21  C   UNL     1     -45.206  57.509 -60.153  1.00  0.00     0.009 A 
HETATM   22  C   UNL     1     -47.562  57.828 -60.783  1.00  0.00     0.033 A 
HETATM   23  C   UNL     1     -45.034  58.912 -60.237  1.00  0.00     0.051 A 
HETATM   24  C   UNL     1     -46.101  59.751 -60.595  1.00  0.00     0.069 A 
HETATM   25  C   UNL     1     -47.353  59.209 -60.856  1.00  0.00     0.039 A 
BRANCH  24  26
HETATM   26  O   UNL     1     -45.768  61.078 -60.648  1.00  0.00    -0.356 OA
HETATM   27  C   UNL     1     -45.102  61.528 -61.824  1.00  0.00     0.210 C 
ENDBRANCH  24  26
ENDBRANCH  13  15
ENDBRANCH  12  13
ENDBRANCH   1  12
BRANCH   3  28
HETATM   28  C   UNL     1     -41.610  56.947 -54.878  1.00  0.00     0.173 C 
BRANCH  28  29
HETATM   29  N   UNL     1     -41.202  55.798 -54.091  1.00  0.00    -0.278 N 
HETATM   30  C   UNL     1     -40.844  54.588 -54.616  1.00  0.00     0.261 A 
HETATM   31  O   UNL     1     -40.941  54.231 -55.774  1.00  0.00    -0.267 OA
HETATM   32  C   UNL     1     -40.492  53.731 -53.483  1.00  0.00     0.048 A 
HETATM   33  C   UNL     1     -40.717  54.460 -52.324  1.00  0.00     0.048 A 
HETATM   34  C   UNL     1     -40.086  52.413 -53.450  1.00  0.00     0.018 A 
HETATM   35  C   UNL     1     -41.204  55.779 -52.724  1.00  0.00     0.261 A 
HETATM   36  C   UNL     1     -40.539  53.915 -51.070  1.00  0.00     0.018 A 
HETATM   37  O   UNL     1     -41.619  56.646 -51.981  1.00  0.00    -0.267 OA
HETATM   38  C   UNL     1     -40.115  52.585 -51.011  1.00  0.00     0.001 A 
HETATM   39  C   UNL     1     -39.892  51.840 -52.190  1.00  0.00     0.001 A 
ENDBRANCH  28  29
ENDBRANCH   3  28
TORSDOF 6
ENDMDL
MODEL 10
REMARK VINA RESULT:      -7.5      3.418      7.100
REMARK  6 active torsions:
REMARK  status: ('A' for Active; 'I' for Inactive)
REMARK    1  A    between atoms: C_7  and  C_8 
REMARK    2  A    between atoms: C_8  and  C_9 
REMARK    3  A    between atoms: C_9  and  N_10 
REMARK    4  A    between atoms: C_12  and  C_13 
REMARK    5  A    between atoms: C_13  and  N_14 
REMARK    6  A    between atoms: C_36  and  O_37 
ROOT
HETATM    1  N   UNL     1     -42.617  55.679 -54.683  1.00  0.00    -0.054 N 
HETATM    2  H   UNL     1     -41.861  55.894 -54.010  1.00  0.00     0.281 HD
HETATM    3  C   UNL     1     -42.502  56.854 -55.664  1.00  0.00     0.240 C 
HETATM    4  C   UNL     1     -42.646  58.154 -54.883  1.00  0.00    -0.020 A 
HETATM    5  C   UNL     1     -43.385  58.203 -53.681  1.00  0.00    -0.048 A 
HETATM    6  C   UNL     1     -43.964  56.962 -53.045  1.00  0.00     0.067 C 
HETATM    7  C   UNL     1     -43.912  55.711 -53.919  1.00  0.00     0.241 C 
HETATM    8  C   UNL     1     -42.066  59.333 -55.381  1.00  0.00     0.010 A 
HETATM    9  C   UNL     1     -42.219  60.540 -54.701  1.00  0.00     0.001 A 
HETATM   10  C   UNL     1     -42.949  60.587 -53.517  1.00  0.00     0.001 A 
HETATM   11  C   UNL     1     -43.526  59.425 -53.007  1.00  0.00     0.008 A 
ENDROOT
BRANCH   1  12
HETATM   12  C   UNL     1     -42.220  54.289 -55.172  1.00  0.00     0.319 C 
BRANCH  12  13
HETATM   13  C   UNL     1     -40.805  53.894 -54.780  1.00  0.00     0.188 C 
HETATM   14  O   UNL     1     -39.901  54.122 -55.591  1.00  0.00    -0.290 OA
BRANCH  13  15
HETATM   15  C   UNL     1     -40.558  53.318 -53.455  1.00  0.00     0.046 A 
HETATM   16  C   UNL     1     -40.153  52.002 -53.249  1.00  0.00     0.020 A 
HETATM   17  C   UNL     1     -39.913  50.885 -54.206  1.00  0.00     0.069 C 
HETATM   18  N   UNL     1     -39.965  51.818 -51.904  1.00  0.00    -0.358 N 
HETATM   19  H   UNL     1     -39.652  50.958 -51.470  1.00  0.00     0.166 HD
HETATM   20  C   UNL     1     -40.257  52.969 -51.217  1.00  0.00     0.043 A 
HETATM   21  C   UNL     1     -40.648  53.928 -52.151  1.00  0.00     0.009 A 
HETATM   22  C   UNL     1     -40.189  53.219 -49.841  1.00  0.00     0.033 A 
HETATM   23  C   UNL     1     -41.004  55.203 -51.648  1.00  0.00     0.051 A 
HETATM   24  C   UNL     1     -40.961  55.475 -50.272  1.00  0.00     0.069 A 
HETATM   25  C   UNL     1     -40.548  54.491 -49.382  1.00  0.00     0.039 A 
BRANCH  24  26
HETATM   26  O   UNL     1     -41.351  56.746 -49.946  1.00  0.00    -0.356 OA
HETATM   27  C   UNL     1     -40.908  57.794 -50.802  1.00  0.00     0.210 C 
ENDBRANCH  24  26
ENDBRANCH  13  15
ENDBRANCH  12  13
ENDBRANCH   1  12
BRANCH   3  28
HETATM   28  C   UNL     1     -43.550  56.860 -56.821  1.00  0.00     0.173 C 
BRANCH  28  29
HETATM   29  N   UNL     1     -43.347  57.857 -57.855  1.00  0.00    -0.278 N 
HETATM   30  C   UNL     1     -44.023  59.042 -57.931  1.00  0.00     0.261 A 
HETATM   31  O   UNL     1     -44.975  59.391 -57.259  1.00  0.00    -0.267 OA
HETATM   32  C   UNL     1     -43.501  59.745 -59.104  1.00  0.00     0.048 A 
HETATM   33  C   UNL     1     -42.574  58.910 -59.710  1.00  0.00     0.048 A 
HETATM   34  C   UNL     1     -43.850  60.965 -59.644  1.00  0.00     0.018 A 
HETATM   35  C   UNL     1     -42.504  57.684 -58.917  1.00  0.00     0.261 A 
HETATM   36  C   UNL     1     -41.937  59.253 -60.884  1.00  0.00     0.018 A 
HETATM   37  O   UNL     1     -41.889  56.677 -59.207  1.00  0.00    -0.267 OA
HETATM   38  C   UNL     1     -42.265  60.491 -61.445  1.00  0.00     0.001 A 
HETATM   39  C   UNL     1     -43.213  61.338 -60.832  1.00  0.00     0.001 A 
ENDBRANCH  28  29
ENDBRANCH   3  28
TORSDOF 6
ENDMDL
