MODEL 1
REMARK VINA RESULT:      -8.3      0.000      0.000
REMARK  11 active torsions:
REMARK  status: ('A' for Active; 'I' for Inactive)
REMARK    1  A    between atoms: O_2  and  C_3 
REMARK    2  A    between atoms: C_6  and  C_7 
REMARK    3  A    between atoms: C_7  and  N_8 
REMARK    4  A    between atoms: C_7  and  C_29 
REMARK       I    between atoms: N_8  and  C_9 
REMARK    5  A    between atoms: N_8  and  C_20 
REMARK    6  A    between atoms: C_9  and  C_10 
REMARK    7  A    between atoms: C_13  and  C_14 
REMARK       I    between atoms: C_14  and  N_15 
REMARK    8  A    between atoms: C_17  and  N_18 
REMARK    9  A    between atoms: C_20  and  C_21 
REMARK   10  A    between atoms: C_21  and  N_22 
REMARK       I    between atoms: C_29  and  N_30 
REMARK   11  A    between atoms: N_30  and  C_31 
ROOT
HETATM    1  N   UNL     1     -42.322  56.732 -54.152  1.00  0.00    -0.328 N 
HETATM    2  C   UNL     1     -43.692  56.572 -53.812  1.00  0.00     0.265 C 
HETATM    3  O   UNL     1     -44.275  55.528 -54.115  1.00  0.00    -0.267 OA
ENDROOT
BRANCH   1   4
HETATM    4  C   UNL     1     -41.713  55.636 -54.950  1.00  0.00     0.213 C 
BRANCH   4   5
HETATM    5  C   UNL     1     -41.199  54.432 -54.164  1.00  0.00    -0.026 A 
HETATM    6  C   UNL     1     -40.531  53.386 -54.823  1.00  0.00     0.012 A 
HETATM    7  C   UNL     1     -39.983  52.311 -54.112  1.00  0.00     0.037 A 
HETATM    8  C   UNL     1     -40.076  52.267 -52.724  1.00  0.00     0.068 A 
HETATM    9  C   UNL     1     -40.718  53.309 -52.055  1.00  0.00     0.037 A 
HETATM   10  C   UNL     1     -41.268  54.382 -52.761  1.00  0.00     0.012 A 
BRANCH   8  11
HETATM   11  O   UNL     1     -39.582  51.287 -51.911  1.00  0.00    -0.356 OA
HETATM   12  C   UNL     1     -39.589  49.960 -52.425  1.00  0.00     0.210 C 
ENDBRANCH   8  11
ENDBRANCH   4   5
BRANCH   4  13
HETATM   13  C   UNL     1     -42.504  55.337 -56.245  1.00  0.00     0.245 C 
HETATM   14  N   UNL     1     -42.423  56.276 -57.242  1.00  0.00    -0.354 N 
HETATM   15  H   UNL     1     -41.969  57.164 -57.017  1.00  0.00     0.162 HD
HETATM   16  O   UNL     1     -43.126  54.279 -56.353  1.00  0.00    -0.271 OA
BRANCH  14  17
HETATM   17  C   UNL     1     -43.185  56.183 -58.467  1.00  0.00     0.084 C 
HETATM   18  C   UNL     1     -44.423  57.077 -58.440  1.00  0.00     0.025 C 
HETATM   19  C   UNL     1     -44.733  57.270 -59.914  1.00  0.00     0.002 C 
HETATM   20  C   UNL     1     -43.362  57.467 -60.544  1.00  0.00     0.002 C 
HETATM   21  C   UNL     1     -42.392  56.645 -59.694  1.00  0.00     0.025 C 
ENDBRANCH  14  17
ENDBRANCH   4  13
ENDBRANCH   1   4
BRANCH   1  22
HETATM   22  C   UNL     1     -41.674  58.059 -54.265  1.00  0.00     0.155 C 
BRANCH  22  23
HETATM   23  C   UNL     1     -40.436  58.253 -53.354  1.00  0.00     0.255 C 
BRANCH  23  24
HETATM   24  N   UNL     1     -40.684  59.190 -52.187  1.00  0.00    -0.066 N 
HETATM   25  H   UNL     1     -39.850  59.778 -52.065  1.00  0.00     0.280 HD
HETATM   26  C   UNL     1     -41.903  60.100 -52.382  1.00  0.00     0.261 C 
HETATM   27  C   UNL     1     -42.047  61.024 -51.167  1.00  0.00     0.195 C 
HETATM   28  O   UNL     1     -42.181  60.261 -49.964  1.00  0.00    -0.388 OA
HETATM   29  C   UNL     1     -41.037  59.437 -49.722  1.00  0.00     0.195 C 
HETATM   30  C   UNL     1     -40.836  58.432 -50.864  1.00  0.00     0.261 C 
ENDBRANCH  23  24
ENDBRANCH  22  23
ENDBRANCH   1  22
BRANCH   2  31
HETATM   31  C   UNL     1     -44.410  57.636 -53.152  1.00  0.00     0.120 A 
HETATM   32  S   UNL     1     -45.028  58.979 -53.993  1.00  0.00     0.020 SA
HETATM   33  N   UNL     1     -45.668  59.751 -52.681  1.00  0.00    -0.203 NA
HETATM   34  C   UNL     1     -45.303  59.096 -51.565  1.00  0.00     0.160 A 
HETATM   35  C   UNL     1     -44.565  57.873 -51.800  1.00  0.00     0.085 A 
BRANCH  34  36
HETATM   36  C   UNL     1     -45.639  59.643 -50.239  1.00  0.00     0.271 C 
HETATM   37  N   UNL     1     -45.347  60.968 -50.059  1.00  0.00    -0.365 N 
HETATM   38  H   UNL     1     -44.872  61.489 -50.785  1.00  0.00     0.159 HD
HETATM   39  H   UNL     1     -45.495  61.381 -49.150  1.00  0.00     0.159 HD
HETATM   40  O   UNL     1     -46.132  58.975 -49.333  1.00  0.00    -0.266 OA
ENDBRANCH  34  36
BRANCH  35  41
HETATM   41  N   UNL     1     -44.090  57.054 -50.828  1.00  0.00    -0.396 N 
HETATM   42  H   UNL     1     -44.748  56.700 -50.121  1.00  0.00     0.156 HD
HETATM   43  H   UNL     1     -43.164  57.205 -50.426  1.00  0.00     0.156 HD
ENDBRANCH  35  41
ENDBRANCH   2  31
TORSDOF 11
ENDMDL
MODEL 2
REMARK VINA RESULT:      -8.1      2.273      5.905
REMARK  11 active torsions:
REMARK  status: ('A' for Active; 'I' for Inactive)
REMARK    1  A    between atoms: O_2  and  C_3 
REMARK    2  A    between atoms: C_6  and  C_7 
REMARK    3  A    between atoms: C_7  and  N_8 
REMARK    4  A    between atoms: C_7  and  C_29 
REMARK       I    between atoms: N_8  and  C_9 
REMARK    5  A    between atoms: N_8  and  C_20 
REMARK    6  A    between atoms: C_9  and  C_10 
REMARK    7  A    between atoms: C_13  and  C_14 
REMARK       I    between atoms: C_14  and  N_15 
REMARK    8  A    between atoms: C_17  and  N_18 
REMARK    9  A    between atoms: C_20  and  C_21 
REMARK   10  A    between atoms: C_21  and  N_22 
REMARK       I    between atoms: C_29  and  N_30 
REMARK   11  A    between atoms: N_30  and  C_31 
ROOT
HETATM    1  N   UNL     1     -43.271  57.209 -53.785  1.00  0.00    -0.328 N 
HETATM    2  C   UNL     1     -44.082  57.114 -54.948  1.00  0.00     0.265 C 
HETATM    3  O   UNL     1     -45.251  56.736 -54.843  1.00  0.00    -0.267 OA
ENDROOT
BRANCH   1   4
HETATM    4  C   UNL     1     -43.887  56.740 -52.516  1.00  0.00     0.213 C 
BRANCH   4   5
HETATM    5  C   UNL     1     -43.030  55.824 -51.646  1.00  0.00    -0.026 A 
HETATM    6  C   UNL     1     -42.835  54.479 -52.007  1.00  0.00     0.012 A 
HETATM    7  C   UNL     1     -41.990  53.643 -51.267  1.00  0.00     0.037 A 
HETATM    8  C   UNL     1     -41.307  54.138 -50.160  1.00  0.00     0.068 A 
HETATM    9  C   UNL     1     -41.474  55.476 -49.803  1.00  0.00     0.037 A 
HETATM   10  C   UNL     1     -42.317  56.313 -50.538  1.00  0.00     0.012 A 
BRANCH   8  11
HETATM   11  O   UNL     1     -40.450  53.437 -49.359  1.00  0.00    -0.356 OA
HETATM   12  C   UNL     1     -40.281  53.910 -48.028  1.00  0.00     0.210 C 
ENDBRANCH   8  11
ENDBRANCH   4   5
BRANCH   4  13
HETATM   13  C   UNL     1     -44.669  57.859 -51.791  1.00  0.00     0.245 C 
HETATM   14  N   UNL     1     -44.514  59.131 -52.280  1.00  0.00    -0.354 N 
HETATM   15  H   UNL     1     -43.793  59.277 -52.991  1.00  0.00     0.162 HD
HETATM   16  O   UNL     1     -45.416  57.575 -50.853  1.00  0.00    -0.271 OA
BRANCH  14  17
HETATM   17  C   UNL     1     -45.101  60.290 -51.645  1.00  0.00     0.084 C 
HETATM   18  C   UNL     1     -44.351  61.574 -51.992  1.00  0.00     0.025 C 
HETATM   19  C   UNL     1     -45.388  62.652 -51.732  1.00  0.00     0.002 C 
HETATM   20  C   UNL     1     -46.672  62.054 -52.290  1.00  0.00     0.002 C 
HETATM   21  C   UNL     1     -46.544  60.543 -52.096  1.00  0.00     0.025 C 
ENDBRANCH  14  17
ENDBRANCH   4  13
ENDBRANCH   1   4
BRANCH   1  22
HETATM   22  C   UNL     1     -41.791  57.191 -53.837  1.00  0.00     0.155 C 
BRANCH  22  23
HETATM   23  C   UNL     1     -41.119  58.566 -53.601  1.00  0.00     0.255 C 
BRANCH  23  24
HETATM   24  N   UNL     1     -40.449  58.689 -52.246  1.00  0.00    -0.066 N 
HETATM   25  H   UNL     1     -40.493  57.772 -51.783  1.00  0.00     0.280 HD
HETATM   26  C   UNL     1     -38.984  59.131 -52.325  1.00  0.00     0.261 C 
HETATM   27  C   UNL     1     -38.395  59.195 -50.910  1.00  0.00     0.195 C 
HETATM   28  O   UNL     1     -39.144  60.096 -50.090  1.00  0.00    -0.388 OA
HETATM   29  C   UNL     1     -40.508  59.685 -49.951  1.00  0.00     0.195 C 
HETATM   30  C   UNL     1     -41.207  59.642 -51.316  1.00  0.00     0.261 C 
ENDBRANCH  23  24
ENDBRANCH  22  23
ENDBRANCH   1  22
BRANCH   2  31
HETATM   31  C   UNL     1     -43.534  57.422 -56.247  1.00  0.00     0.120 A 
HETATM   32  S   UNL     1     -43.305  59.018 -56.787  1.00  0.00     0.020 SA
HETATM   33  N   UNL     1     -42.699  58.635 -58.274  1.00  0.00    -0.203 NA
HETATM   34  C   UNL     1     -42.795  57.306 -58.458  1.00  0.00     0.160 A 
HETATM   35  C   UNL     1     -43.284  56.574 -57.309  1.00  0.00     0.085 A 
BRANCH  34  36
HETATM   36  C   UNL     1     -42.437  56.707 -59.756  1.00  0.00     0.271 C 
HETATM   37  N   UNL     1     -41.237  57.109 -60.277  1.00  0.00    -0.365 N 
HETATM   38  H   UNL     1     -40.691  57.821 -59.809  1.00  0.00     0.159 HD
HETATM   39  H   UNL     1     -40.969  56.782 -61.194  1.00  0.00     0.159 HD
HETATM   40  O   UNL     1     -43.154  55.912 -60.358  1.00  0.00    -0.266 OA
ENDBRANCH  34  36
BRANCH  35  41
HETATM   41  N   UNL     1     -43.468  55.231 -57.265  1.00  0.00    -0.396 N 
HETATM   42  H   UNL     1     -42.810  54.664 -56.715  1.00  0.00     0.156 HD
HETATM   43  H   UNL     1     -43.792  54.722 -58.089  1.00  0.00     0.156 HD
ENDBRANCH  35  41
ENDBRANCH   2  31
TORSDOF 11
ENDMDL
MODEL 3
REMARK VINA RESULT:      -7.7      2.042      3.170
REMARK  11 active torsions:
REMARK  status: ('A' for Active; 'I' for Inactive)
REMARK    1  A    between atoms: O_2  and  C_3 
REMARK    2  A    between atoms: C_6  and  C_7 
REMARK    3  A    between atoms: C_7  and  N_8 
REMARK    4  A    between atoms: C_7  and  C_29 
REMARK       I    between atoms: N_8  and  C_9 
REMARK    5  A    between atoms: N_8  and  C_20 
REMARK    6  A    between atoms: C_9  and  C_10 
REMARK    7  A    between atoms: C_13  and  C_14 
REMARK       I    between atoms: C_14  and  N_15 
REMARK    8  A    between atoms: C_17  and  N_18 
REMARK    9  A    between atoms: C_20  and  C_21 
REMARK   10  A    between atoms: C_21  and  N_22 
REMARK       I    between atoms: C_29  and  N_30 
REMARK   11  A    between atoms: N_30  and  C_31 
ROOT
HETATM    1  N   UNL     1     -43.076  57.572 -54.796  1.00  0.00    -0.328 N 
HETATM    2  C   UNL     1     -42.632  58.853 -54.371  1.00  0.00     0.265 C 
HETATM    3  O   UNL     1     -41.606  59.332 -54.857  1.00  0.00    -0.267 OA
ENDROOT
BRANCH   1   4
HETATM    4  C   UNL     1     -42.189  56.854 -55.748  1.00  0.00     0.213 C 
BRANCH   4   5
HETATM    5  C   UNL     1     -41.751  55.450 -55.339  1.00  0.00    -0.026 A 
HETATM    6  C   UNL     1     -40.457  55.227 -54.838  1.00  0.00     0.012 A 
HETATM    7  C   UNL     1     -40.062  53.963 -54.382  1.00  0.00     0.037 A 
HETATM    8  C   UNL     1     -40.958  52.898 -54.402  1.00  0.00     0.068 A 
HETATM    9  C   UNL     1     -42.252  53.110 -54.877  1.00  0.00     0.037 A 
HETATM   10  C   UNL     1     -42.649  54.369 -55.333  1.00  0.00     0.012 A 
BRANCH   8  11
HETATM   11  O   UNL     1     -40.706  51.623 -53.983  1.00  0.00    -0.356 OA
HETATM   12  C   UNL     1     -39.661  51.451 -53.033  1.00  0.00     0.210 C 
ENDBRANCH   8  11
ENDBRANCH   4   5
BRANCH   4  13
HETATM   13  C   UNL     1     -42.623  57.048 -57.220  1.00  0.00     0.245 C 
HETATM   14  N   UNL     1     -43.600  56.205 -57.686  1.00  0.00    -0.354 N 
HETATM   15  H   UNL     1     -43.875  55.425 -57.085  1.00  0.00     0.162 HD
HETATM   16  O   UNL     1     -42.123  57.951 -57.892  1.00  0.00    -0.271 OA
BRANCH  14  17
HETATM   17  C   UNL     1     -44.036  56.201 -59.065  1.00  0.00     0.084 C 
HETATM   18  C   UNL     1     -44.258  54.784 -59.589  1.00  0.00     0.025 C 
HETATM   19  C   UNL     1     -45.200  55.001 -60.760  1.00  0.00     0.002 C 
HETATM   20  C   UNL     1     -46.176  56.048 -60.243  1.00  0.00     0.002 C 
HETATM   21  C   UNL     1     -45.381  56.909 -59.262  1.00  0.00     0.025 C 
ENDBRANCH  14  17
ENDBRANCH   4  13
ENDBRANCH   1   4
BRANCH   1  22
HETATM   22  C   UNL     1     -43.979  56.726 -53.982  1.00  0.00     0.155 C 
BRANCH  22  23
HETATM   23  C   UNL     1     -43.774  56.847 -52.452  1.00  0.00     0.255 C 
BRANCH  23  24
HETATM   24  N   UNL     1     -42.671  55.956 -51.916  1.00  0.00    -0.066 N 
HETATM   25  H   UNL     1     -41.973  55.827 -52.660  1.00  0.00     0.280 HD
HETATM   26  C   UNL     1     -41.970  56.527 -50.678  1.00  0.00     0.261 C 
HETATM   27  C   UNL     1     -40.857  55.568 -50.236  1.00  0.00     0.195 C 
HETATM   28  O   UNL     1     -41.389  54.270 -49.954  1.00  0.00    -0.388 OA
HETATM   29  C   UNL     1     -42.006  53.684 -51.104  1.00  0.00     0.195 C 
HETATM   30  C   UNL     1     -43.177  54.545 -51.595  1.00  0.00     0.261 C 
ENDBRANCH  23  24
ENDBRANCH  22  23
ENDBRANCH   1  22
BRANCH   2  31
HETATM   31  C   UNL     1     -43.355  59.574 -53.351  1.00  0.00     0.120 A 
HETATM   32  S   UNL     1     -44.943  60.137 -53.582  1.00  0.00     0.020 SA
HETATM   33  N   UNL     1     -45.117  60.843 -52.100  1.00  0.00    -0.203 NA
HETATM   34  C   UNL     1     -43.937  60.805 -51.455  1.00  0.00     0.160 A 
HETATM   35  C   UNL     1     -42.893  60.088 -52.154  1.00  0.00     0.085 A 
BRANCH  34  36
HETATM   36  C   UNL     1     -43.779  61.478 -50.154  1.00  0.00     0.271 C 
HETATM   37  N   UNL     1     -44.255  60.787 -49.074  1.00  0.00    -0.365 N 
HETATM   38  H   UNL     1     -44.738  59.907 -49.203  1.00  0.00     0.159 HD
HETATM   39  H   UNL     1     -44.233  61.226 -48.165  1.00  0.00     0.159 HD
HETATM   40  O   UNL     1     -43.272  62.589 -50.021  1.00  0.00    -0.266 OA
ENDBRANCH  34  36
BRANCH  35  41
HETATM   41  N   UNL     1     -41.624  59.925 -51.701  1.00  0.00    -0.396 N 
HETATM   42  H   UNL     1     -41.283  60.553 -50.963  1.00  0.00     0.156 HD
HETATM   43  H   UNL     1     -40.872  59.667 -52.341  1.00  0.00     0.156 HD
ENDBRANCH  35  41
ENDBRANCH   2  31
TORSDOF 11
ENDMDL
MODEL 4
REMARK VINA RESULT:      -7.7      1.668      3.080
REMARK  11 active torsions:
REMARK  status: ('A' for Active; 'I' for Inactive)
REMARK    1  A    between atoms: O_2  and  C_3 
REMARK    2  A    between atoms: C_6  and  C_7 
REMARK    3  A    between atoms: C_7  and  N_8 
REMARK    4  A    between atoms: C_7  and  C_29 
REMARK       I    between atoms: N_8  and  C_9 
REMARK    5  A    between atoms: N_8  and  C_20 
REMARK    6  A    between atoms: C_9  and  C_10 
REMARK    7  A    between atoms: C_13  and  C_14 
REMARK       I    between atoms: C_14  and  N_15 
REMARK    8  A    between atoms: C_17  and  N_18 
REMARK    9  A    between atoms: C_20  and  C_21 
REMARK   10  A    between atoms: C_21  and  N_22 
REMARK       I    between atoms: C_29  and  N_30 
REMARK   11  A    between atoms: N_30  and  C_31 
ROOT
HETATM    1  N   UNL     1     -42.003  56.851 -53.794  1.00  0.00    -0.328 N 
HETATM    2  C   UNL     1     -41.027  57.771 -53.325  1.00  0.00     0.265 C 
HETATM    3  O   UNL     1     -39.868  57.690 -53.738  1.00  0.00    -0.267 OA
ENDROOT
BRANCH   1   4
HETATM    4  C   UNL     1     -41.511  55.777 -54.697  1.00  0.00     0.213 C 
BRANCH   4   5
HETATM    5  C   UNL     1     -40.921  54.542 -54.020  1.00  0.00    -0.026 A 
HETATM    6  C   UNL     1     -41.086  54.342 -52.638  1.00  0.00     0.012 A 
HETATM    7  C   UNL     1     -40.623  53.179 -52.012  1.00  0.00     0.037 A 
HETATM    8  C   UNL     1     -40.000  52.181 -52.756  1.00  0.00     0.068 A 
HETATM    9  C   UNL     1     -39.849  52.357 -54.131  1.00  0.00     0.037 A 
HETATM   10  C   UNL     1     -40.308  53.517 -54.760  1.00  0.00     0.012 A 
BRANCH   8  11
HETATM   11  O   UNL     1     -39.511  51.000 -52.275  1.00  0.00    -0.356 OA
HETATM   12  C   UNL     1     -39.713  49.844 -53.080  1.00  0.00     0.210 C 
ENDBRANCH   8  11
ENDBRANCH   4   5
BRANCH   4  13
HETATM   13  C   UNL     1     -42.458  55.531 -55.894  1.00  0.00     0.245 C 
HETATM   14  N   UNL     1     -42.497  56.509 -56.855  1.00  0.00    -0.354 N 
HETATM   15  H   UNL     1     -42.013  57.387 -56.654  1.00  0.00     0.162 HD
HETATM   16  O   UNL     1     -43.095  54.479 -55.965  1.00  0.00    -0.271 OA
BRANCH  14  17
HETATM   17  C   UNL     1     -43.406  56.465 -57.979  1.00  0.00     0.084 C 
HETATM   18  C   UNL     1     -43.991  57.839 -58.295  1.00  0.00     0.025 C 
HETATM   19  C   UNL     1     -44.418  57.699 -59.745  1.00  0.00     0.002 C 
HETATM   20  C   UNL     1     -43.274  56.922 -60.380  1.00  0.00     0.002 C 
HETATM   21  C   UNL     1     -42.722  56.020 -59.276  1.00  0.00     0.025 C 
ENDBRANCH  14  17
ENDBRANCH   4  13
ENDBRANCH   1   4
BRANCH   1  22
HETATM   22  C   UNL     1     -43.250  56.558 -53.052  1.00  0.00     0.155 C 
BRANCH  22  23
HETATM   23  C   UNL     1     -44.479  57.389 -53.498  1.00  0.00     0.255 C 
BRANCH  23  24
HETATM   24  N   UNL     1     -44.789  58.553 -52.577  1.00  0.00    -0.066 N 
HETATM   25  H   UNL     1     -43.904  59.020 -52.343  1.00  0.00     0.280 HD
HETATM   26  C   UNL     1     -45.741  59.584 -53.195  1.00  0.00     0.261 C 
HETATM   27  C   UNL     1     -45.965  60.730 -52.200  1.00  0.00     0.195 C 
HETATM   28  O   UNL     1     -46.498  60.234 -50.968  1.00  0.00    -0.388 OA
HETATM   29  C   UNL     1     -45.610  59.306 -50.336  1.00  0.00     0.195 C 
HETATM   30  C   UNL     1     -45.363  58.087 -51.235  1.00  0.00     0.261 C 
ENDBRANCH  23  24
ENDBRANCH  22  23
ENDBRANCH   1  22
BRANCH   2  31
HETATM   31  C   UNL     1     -41.378  58.770 -52.345  1.00  0.00     0.120 A 
HETATM   32  S   UNL     1     -41.291  58.477 -50.672  1.00  0.00     0.020 SA
HETATM   33  N   UNL     1     -41.825  59.962 -50.187  1.00  0.00    -0.203 NA
HETATM   34  C   UNL     1     -42.224  60.659 -51.266  1.00  0.00     0.160 A 
HETATM   35  C   UNL     1     -41.989  59.996 -52.530  1.00  0.00     0.085 A 
BRANCH  34  36
HETATM   36  C   UNL     1     -42.861  61.978 -51.105  1.00  0.00     0.271 C 
HETATM   37  N   UNL     1     -43.400  62.223 -49.871  1.00  0.00    -0.365 N 
HETATM   38  H   UNL     1     -43.402  61.501 -49.162  1.00  0.00     0.159 HD
HETATM   39  H   UNL     1     -43.907  63.083 -49.722  1.00  0.00     0.159 HD
HETATM   40  O   UNL     1     -42.932  62.812 -52.004  1.00  0.00    -0.266 OA
ENDBRANCH  34  36
BRANCH  35  41
HETATM   41  N   UNL     1     -42.313  60.503 -53.746  1.00  0.00    -0.396 N 
HETATM   42  H   UNL     1     -41.553  60.761 -54.388  1.00  0.00     0.156 HD
HETATM   43  H   UNL     1     -43.112  61.130 -53.852  1.00  0.00     0.156 HD
ENDBRANCH  35  41
ENDBRANCH   2  31
TORSDOF 11
ENDMDL
MODEL 5
REMARK VINA RESULT:      -7.6      2.211      3.368
REMARK  11 active torsions:
REMARK  status: ('A' for Active; 'I' for Inactive)
REMARK    1  A    between atoms: O_2  and  C_3 
REMARK    2  A    between atoms: C_6  and  C_7 
REMARK    3  A    between atoms: C_7  and  N_8 
REMARK    4  A    between atoms: C_7  and  C_29 
REMARK       I    between atoms: N_8  and  C_9 
REMARK    5  A    between atoms: N_8  and  C_20 
REMARK    6  A    between atoms: C_9  and  C_10 
REMARK    7  A    between atoms: C_13  and  C_14 
REMARK       I    between atoms: C_14  and  N_15 
REMARK    8  A    between atoms: C_17  and  N_18 
REMARK    9  A    between atoms: C_20  and  C_21 
REMARK   10  A    between atoms: C_21  and  N_22 
REMARK       I    between atoms: C_29  and  N_30 
REMARK   11  A    between atoms: N_30  and  C_31 
ROOT
HETATM    1  N   UNL     1     -42.600  57.419 -53.615  1.00  0.00    -0.328 N 
HETATM    2  C   UNL     1     -42.465  58.831 -53.518  1.00  0.00     0.265 C 
HETATM    3  O   UNL     1     -41.966  59.458 -54.455  1.00  0.00    -0.267 OA
ENDROOT
BRANCH   1   4
HETATM    4  C   UNL     1     -42.026  56.788 -54.832  1.00  0.00     0.213 C 
BRANCH   4   5
HETATM    5  C   UNL     1     -41.584  55.334 -54.695  1.00  0.00    -0.026 A 
HETATM    6  C   UNL     1     -42.537  54.313 -54.532  1.00  0.00     0.012 A 
HETATM    7  C   UNL     1     -42.159  52.966 -54.484  1.00  0.00     0.037 A 
HETATM    8  C   UNL     1     -40.820  52.607 -54.615  1.00  0.00     0.068 A 
HETATM    9  C   UNL     1     -39.866  53.608 -54.798  1.00  0.00     0.037 A 
HETATM   10  C   UNL     1     -40.239  54.954 -54.846  1.00  0.00     0.012 A 
BRANCH   8  11
HETATM   11  O   UNL     1     -40.318  51.338 -54.594  1.00  0.00    -0.356 OA
HETATM   12  C   UNL     1     -39.522  50.978 -53.471  1.00  0.00     0.210 C 
ENDBRANCH   8  11
ENDBRANCH   4   5
BRANCH   4  13
HETATM   13  C   UNL     1     -42.805  57.162 -56.114  1.00  0.00     0.245 C 
HETATM   14  N   UNL     1     -42.060  57.618 -57.172  1.00  0.00    -0.354 N 
HETATM   15  H   UNL     1     -41.071  57.812 -57.002  1.00  0.00     0.162 HD
HETATM   16  O   UNL     1     -44.026  57.003 -56.158  1.00  0.00    -0.271 OA
BRANCH  14  17
HETATM   17  C   UNL     1     -42.656  58.098 -58.399  1.00  0.00     0.084 C 
HETATM   18  C   UNL     1     -42.411  59.590 -58.608  1.00  0.00     0.025 C 
HETATM   19  C   UNL     1     -42.589  59.756 -60.107  1.00  0.00     0.002 C 
HETATM   20  C   UNL     1     -41.896  58.530 -60.686  1.00  0.00     0.002 C 
HETATM   21  C   UNL     1     -42.071  57.424 -59.645  1.00  0.00     0.025 C 
ENDBRANCH  14  17
ENDBRANCH   4  13
ENDBRANCH   1   4
BRANCH   1  22
HETATM   22  C   UNL     1     -42.735  56.544 -52.428  1.00  0.00     0.155 C 
BRANCH  22  23
HETATM   23  C   UNL     1     -41.452  56.416 -51.569  1.00  0.00     0.255 C 
BRANCH  23  24
HETATM   24  N   UNL     1     -41.419  55.166 -50.711  1.00  0.00    -0.066 N 
HETATM   25  H   UNL     1     -42.375  54.797 -50.647  1.00  0.00     0.280 HD
HETATM   26  C   UNL     1     -40.504  54.068 -51.266  1.00  0.00     0.261 C 
HETATM   27  C   UNL     1     -40.565  52.843 -50.345  1.00  0.00     0.195 C 
HETATM   28  O   UNL     1     -40.176  53.191 -49.013  1.00  0.00    -0.388 OA
HETATM   29  C   UNL     1     -41.041  54.178 -48.443  1.00  0.00     0.195 C 
HETATM   30  C   UNL     1     -41.009  55.472 -49.267  1.00  0.00     0.261 C 
ENDBRANCH  23  24
ENDBRANCH  22  23
ENDBRANCH   1  22
BRANCH   2  31
HETATM   31  C   UNL     1     -42.872  59.522 -52.318  1.00  0.00     0.120 A 
HETATM   32  S   UNL     1     -41.759  60.045 -51.144  1.00  0.00     0.020 SA
HETATM   33  N   UNL     1     -42.865  60.698 -50.106  1.00  0.00    -0.203 NA
HETATM   34  C   UNL     1     -44.102  60.406 -50.543  1.00  0.00     0.160 A 
HETATM   35  C   UNL     1     -44.144  59.717 -51.815  1.00  0.00     0.085 A 
BRANCH  34  36
HETATM   36  C   UNL     1     -45.280  60.766 -49.735  1.00  0.00     0.271 C 
HETATM   37  N   UNL     1     -45.121  60.651 -48.380  1.00  0.00    -0.365 N 
HETATM   38  H   UNL     1     -44.261  60.277 -47.998  1.00  0.00     0.159 HD
HETATM   39  H   UNL     1     -45.914  60.821 -47.779  1.00  0.00     0.159 HD
HETATM   40  O   UNL     1     -46.349  61.132 -50.217  1.00  0.00    -0.266 OA
ENDBRANCH  34  36
BRANCH  35  41
HETATM   41  N   UNL     1     -45.277  59.319 -52.446  1.00  0.00    -0.396 N 
HETATM   42  H   UNL     1     -45.349  58.340 -52.752  1.00  0.00     0.156 HD
HETATM   43  H   UNL     1     -45.758  59.943 -53.096  1.00  0.00     0.156 HD
ENDBRANCH  35  41
ENDBRANCH   2  31
TORSDOF 11
ENDMDL
MODEL 6
REMARK VINA RESULT:      -7.6      2.700      7.380
REMARK  11 active torsions:
REMARK  status: ('A' for Active; 'I' for Inactive)
REMARK    1  A    between atoms: O_2  and  C_3 
REMARK    2  A    between atoms: C_6  and  C_7 
REMARK    3  A    between atoms: C_7  and  N_8 
REMARK    4  A    between atoms: C_7  and  C_29 
REMARK       I    between atoms: N_8  and  C_9 
REMARK    5  A    between atoms: N_8  and  C_20 
REMARK    6  A    between atoms: C_9  and  C_10 
REMARK    7  A    between atoms: C_13  and  C_14 
REMARK       I    between atoms: C_14  and  N_15 
REMARK    8  A    between atoms: C_17  and  N_18 
REMARK    9  A    between atoms: C_20  and  C_21 
REMARK   10  A    between atoms: C_21  and  N_22 
REMARK       I    between atoms: C_29  and  N_30 
REMARK   11  A    between atoms: N_30  and  C_31 
ROOT
HETATM    1  N   UNL     1     -43.045  58.034 -54.237  1.00  0.00    -0.328 N 
HETATM    2  C   UNL     1     -43.945  57.203 -54.957  1.00  0.00     0.265 C 
HETATM    3  O   UNL     1     -44.579  56.332 -54.357  1.00  0.00    -0.267 OA
ENDROOT
BRANCH   1   4
HETATM    4  C   UNL     1     -42.866  57.713 -52.797  1.00  0.00     0.213 C 
BRANCH   4   5
HETATM    5  C   UNL     1     -43.704  58.527 -51.814  1.00  0.00    -0.026 A 
HETATM    6  C   UNL     1     -43.165  59.669 -51.197  1.00  0.00     0.012 A 
HETATM    7  C   UNL     1     -43.941  60.475 -50.355  1.00  0.00     0.037 A 
HETATM    8  C   UNL     1     -45.278  60.165 -50.122  1.00  0.00     0.068 A 
HETATM    9  C   UNL     1     -45.831  59.046 -50.744  1.00  0.00     0.037 A 
HETATM   10  C   UNL     1     -45.060  58.239 -51.585  1.00  0.00     0.012 A 
BRANCH   8  11
HETATM   11  O   UNL     1     -46.145  60.865 -49.333  1.00  0.00    -0.356 OA
HETATM   12  C   UNL     1     -46.227  62.268 -49.554  1.00  0.00     0.210 C 
ENDBRANCH   8  11
ENDBRANCH   4   5
BRANCH   4  13
HETATM   13  C   UNL     1     -42.770  56.192 -52.538  1.00  0.00     0.245 C 
HETATM   14  N   UNL     1     -41.878  55.494 -53.312  1.00  0.00    -0.354 N 
HETATM   15  H   UNL     1     -41.444  55.990 -54.094  1.00  0.00     0.162 HD
HETATM   16  O   UNL     1     -43.444  55.679 -51.643  1.00  0.00    -0.271 OA
BRANCH  14  17
HETATM   17  C   UNL     1     -41.750  54.055 -53.253  1.00  0.00     0.084 C 
HETATM   18  C   UNL     1     -41.186  53.477 -54.548  1.00  0.00     0.025 C 
HETATM   19  C   UNL     1     -40.622  52.139 -54.105  1.00  0.00     0.002 C 
HETATM   20  C   UNL     1     -39.960  52.455 -52.771  1.00  0.00     0.002 C 
HETATM   21  C   UNL     1     -40.781  53.591 -52.160  1.00  0.00     0.025 C 
ENDBRANCH  14  17
ENDBRANCH   4  13
ENDBRANCH   1   4
BRANCH   1  22
HETATM   22  C   UNL     1     -41.929  58.758 -54.887  1.00  0.00     0.155 C 
BRANCH  22  23
HETATM   23  C   UNL     1     -42.061  60.301 -54.869  1.00  0.00     0.255 C 
BRANCH  23  24
HETATM   24  N   UNL     1     -42.099  60.922 -56.252  1.00  0.00    -0.066 N 
HETATM   25  H   UNL     1     -41.397  61.671 -56.287  1.00  0.00     0.280 HD
HETATM   26  C   UNL     1     -41.810  59.924 -57.379  1.00  0.00     0.261 C 
HETATM   27  C   UNL     1     -41.843  60.655 -58.727  1.00  0.00     0.195 C 
HETATM   28  O   UNL     1     -43.112  61.284 -58.931  1.00  0.00    -0.388 OA
HETATM   29  C   UNL     1     -43.393  62.261 -57.924  1.00  0.00     0.195 C 
HETATM   30  C   UNL     1     -43.437  61.616 -56.533  1.00  0.00     0.261 C 
ENDBRANCH  23  24
ENDBRANCH  22  23
ENDBRANCH   1  22
BRANCH   2  31
HETATM   31  C   UNL     1     -44.090  57.349 -56.385  1.00  0.00     0.120 A 
HETATM   32  S   UNL     1     -45.285  58.338 -57.085  1.00  0.00     0.020 SA
HETATM   33  N   UNL     1     -44.896  58.027 -58.659  1.00  0.00    -0.203 NA
HETATM   34  C   UNL     1     -43.962  57.060 -58.697  1.00  0.00     0.160 A 
HETATM   35  C   UNL     1     -43.481  56.637 -57.400  1.00  0.00     0.085 A 
BRANCH  34  36
HETATM   36  C   UNL     1     -43.522  56.502 -59.988  1.00  0.00     0.271 C 
HETATM   37  N   UNL     1     -44.519  56.262 -60.895  1.00  0.00    -0.365 N 
HETATM   38  H   UNL     1     -45.487  56.406 -60.638  1.00  0.00     0.159 HD
HETATM   39  H   UNL     1     -44.285  55.820 -61.771  1.00  0.00     0.159 HD
HETATM   40  O   UNL     1     -42.351  56.247 -60.255  1.00  0.00    -0.266 OA
ENDBRANCH  34  36
BRANCH  35  41
HETATM   41  N   UNL     1     -42.546  55.676 -57.194  1.00  0.00    -0.396 N 
HETATM   42  H   UNL     1     -41.955  55.388 -57.984  1.00  0.00     0.156 HD
HETATM   43  H   UNL     1     -42.738  54.888 -56.573  1.00  0.00     0.156 HD
ENDBRANCH  35  41
ENDBRANCH   2  31
TORSDOF 11
ENDMDL
MODEL 7
REMARK VINA RESULT:      -7.6      2.851      7.742
REMARK  11 active torsions:
REMARK  status: ('A' for Active; 'I' for Inactive)
REMARK    1  A    between atoms: O_2  and  C_3 
REMARK    2  A    between atoms: C_6  and  C_7 
REMARK    3  A    between atoms: C_7  and  N_8 
REMARK    4  A    between atoms: C_7  and  C_29 
REMARK       I    between atoms: N_8  and  C_9 
REMARK    5  A    between atoms: N_8  and  C_20 
REMARK    6  A    between atoms: C_9  and  C_10 
REMARK    7  A    between atoms: C_13  and  C_14 
REMARK       I    between atoms: C_14  and  N_15 
REMARK    8  A    between atoms: C_17  and  N_18 
REMARK    9  A    between atoms: C_20  and  C_21 
REMARK   10  A    between atoms: C_21  and  N_22 
REMARK       I    between atoms: C_29  and  N_30 
REMARK   11  A    between atoms: N_30  and  C_31 
ROOT
HETATM    1  N   UNL     1     -43.236  56.826 -55.661  1.00  0.00    -0.328 N 
HETATM    2  C   UNL     1     -42.707  56.160 -56.800  1.00  0.00     0.265 C 
HETATM    3  O   UNL     1     -41.748  55.398 -56.665  1.00  0.00    -0.267 OA
ENDROOT
BRANCH   1   4
HETATM    4  C   UNL     1     -42.510  56.615 -54.382  1.00  0.00     0.213 C 
BRANCH   4   5
HETATM    5  C   UNL     1     -42.719  57.674 -53.303  1.00  0.00    -0.026 A 
HETATM    6  C   UNL     1     -41.835  58.762 -53.194  1.00  0.00     0.012 A 
HETATM    7  C   UNL     1     -42.053  59.786 -52.264  1.00  0.00     0.037 A 
HETATM    8  C   UNL     1     -43.169  59.753 -51.433  1.00  0.00     0.068 A 
HETATM    9  C   UNL     1     -44.066  58.691 -51.544  1.00  0.00     0.037 A 
HETATM   10  C   UNL     1     -43.851  57.667 -52.471  1.00  0.00     0.012 A 
BRANCH   8  11
HETATM   11  O   UNL     1     -43.504  60.685 -50.492  1.00  0.00    -0.356 OA
HETATM   12  C   UNL     1     -44.827  60.626 -49.970  1.00  0.00     0.210 C 
ENDBRANCH   8  11
ENDBRANCH   4   5
BRANCH   4  13
HETATM   13  C   UNL     1     -42.536  55.139 -53.924  1.00  0.00     0.245 C 
HETATM   14  N   UNL     1     -41.322  54.557 -53.660  1.00  0.00    -0.354 N 
HETATM   15  H   UNL     1     -40.483  55.084 -53.915  1.00  0.00     0.162 HD
HETATM   16  O   UNL     1     -43.615  54.563 -53.774  1.00  0.00    -0.271 OA
BRANCH  14  17
HETATM   17  C   UNL     1     -41.182  53.159 -53.320  1.00  0.00     0.084 C 
HETATM   18  C   UNL     1     -40.337  52.404 -54.344  1.00  0.00     0.025 C 
HETATM   19  C   UNL     1     -39.858  51.195 -53.560  1.00  0.00     0.002 C 
HETATM   20  C   UNL     1     -39.509  51.770 -52.195  1.00  0.00     0.002 C 
HETATM   21  C   UNL     1     -40.465  52.945 -51.983  1.00  0.00     0.025 C 
ENDBRANCH  14  17
ENDBRANCH   4  13
ENDBRANCH   1   4
BRANCH   1  22
HETATM   22  C   UNL     1     -44.036  58.069 -55.760  1.00  0.00     0.155 C 
BRANCH  22  23
HETATM   23  C   UNL     1     -45.569  57.860 -55.674  1.00  0.00     0.255 C 
BRANCH  23  24
HETATM   24  N   UNL     1     -46.363  58.859 -56.491  1.00  0.00    -0.066 N 
HETATM   25  H   UNL     1     -47.239  59.057 -55.992  1.00  0.00     0.280 HD
HETATM   26  C   UNL     1     -45.623  60.181 -56.730  1.00  0.00     0.261 C 
HETATM   27  C   UNL     1     -46.520  61.128 -57.536  1.00  0.00     0.195 C 
HETATM   28  O   UNL     1     -46.893  60.533 -58.783  1.00  0.00    -0.388 OA
HETATM   29  C   UNL     1     -47.632  59.322 -58.598  1.00  0.00     0.195 C 
HETATM   30  C   UNL     1     -46.795  58.281 -57.843  1.00  0.00     0.261 C 
ENDBRANCH  23  24
ENDBRANCH  22  23
ENDBRANCH   1  22
BRANCH   2  31
HETATM   31  C   UNL     1     -43.261  56.402 -58.110  1.00  0.00     0.120 A 
HETATM   32  S   UNL     1     -43.263  57.943 -58.830  1.00  0.00     0.020 SA
HETATM   33  N   UNL     1     -44.025  57.504 -60.227  1.00  0.00    -0.203 NA
HETATM   34  C   UNL     1     -44.431  56.226 -60.122  1.00  0.00     0.160 A 
HETATM   35  C   UNL     1     -44.015  55.561 -58.906  1.00  0.00     0.085 A 
BRANCH  34  36
HETATM   36  C   UNL     1     -45.249  55.616 -61.185  1.00  0.00     0.271 C 
HETATM   37  N   UNL     1     -46.495  56.157 -61.350  1.00  0.00    -0.365 N 
HETATM   38  H   UNL     1     -46.825  56.881 -60.723  1.00  0.00     0.159 HD
HETATM   39  H   UNL     1     -47.125  55.738 -62.018  1.00  0.00     0.159 HD
HETATM   40  O   UNL     1     -44.871  54.676 -61.879  1.00  0.00    -0.266 OA
ENDBRANCH  34  36
BRANCH  35  41
HETATM   41  N   UNL     1     -44.311  54.277 -58.581  1.00  0.00    -0.396 N 
HETATM   42  H   UNL     1     -43.929  53.523 -59.166  1.00  0.00     0.156 HD
HETATM   43  H   UNL     1     -45.235  54.031 -58.222  1.00  0.00     0.156 HD
ENDBRANCH  35  41
ENDBRANCH   2  31
TORSDOF 11
ENDMDL
MODEL 8
REMARK VINA RESULT:      -7.5      2.588      3.805
REMARK  11 active torsions:
REMARK  status: ('A' for Active; 'I' for Inactive)
REMARK    1  A    between atoms: O_2  and  C_3 
REMARK    2  A    between atoms: C_6  and  C_7 
REMARK    3  A    between atoms: C_7  and  N_8 
REMARK    4  A    between atoms: C_7  and  C_29 
REMARK       I    between atoms: N_8  and  C_9 
REMARK    5  A    between atoms: N_8  and  C_20 
REMARK    6  A    between atoms: C_9  and  C_10 
REMARK    7  A    between atoms: C_13  and  C_14 
REMARK       I    between atoms: C_14  and  N_15 
REMARK    8  A    between atoms: C_17  and  N_18 
REMARK    9  A    between atoms: C_20  and  C_21 
REMARK   10  A    between atoms: C_21  and  N_22 
REMARK       I    between atoms: C_29  and  N_30 
REMARK   11  A    between atoms: N_30  and  C_31 
ROOT
HETATM    1  N   UNL     1     -42.933  57.859 -55.012  1.00  0.00    -0.328 N 
HETATM    2  C   UNL     1     -42.324  58.306 -53.808  1.00  0.00     0.265 C 
HETATM    3  O   UNL     1     -41.158  57.989 -53.563  1.00  0.00    -0.267 OA
ENDROOT
BRANCH   1   4
HETATM    4  C   UNL     1     -42.122  56.943 -55.855  1.00  0.00     0.213 C 
BRANCH   4   5
HETATM    5  C   UNL     1     -41.832  55.564 -55.268  1.00  0.00    -0.026 A 
HETATM    6  C   UNL     1     -42.885  54.736 -54.843  1.00  0.00     0.012 A 
HETATM    7  C   UNL     1     -42.647  53.437 -54.376  1.00  0.00     0.037 A 
HETATM    8  C   UNL     1     -41.350  52.932 -54.339  1.00  0.00     0.068 A 
HETATM    9  C   UNL     1     -40.298  53.735 -54.777  1.00  0.00     0.037 A 
HETATM   10  C   UNL     1     -40.531  55.031 -55.243  1.00  0.00     0.012 A 
BRANCH   8  11
HETATM   11  O   UNL     1     -40.980  51.687 -53.917  1.00  0.00    -0.356 OA
HETATM   12  C   UNL     1     -39.609  51.501 -53.584  1.00  0.00     0.210 C 
ENDBRANCH   8  11
ENDBRANCH   4   5
BRANCH   4  13
HETATM   13  C   UNL     1     -42.531  56.994 -57.345  1.00  0.00     0.245 C 
HETATM   14  N   UNL     1     -43.425  56.043 -57.768  1.00  0.00    -0.354 N 
HETATM   15  H   UNL     1     -43.651  55.287 -57.117  1.00  0.00     0.162 HD
HETATM   16  O   UNL     1     -42.088  57.885 -58.072  1.00  0.00    -0.271 OA
BRANCH  14  17
HETATM   17  C   UNL     1     -43.822  55.904 -59.151  1.00  0.00     0.084 C 
HETATM   18  C   UNL     1     -44.241  54.474 -59.485  1.00  0.00     0.025 C 
HETATM   19  C   UNL     1     -45.111  54.655 -60.717  1.00  0.00     0.002 C 
HETATM   20  C   UNL     1     -45.932  55.895 -60.394  1.00  0.00     0.002 C 
HETATM   21  C   UNL     1     -45.040  56.764 -59.506  1.00  0.00     0.025 C 
ENDBRANCH  14  17
ENDBRANCH   4  13
ENDBRANCH   1   4
BRANCH   1  22
HETATM   22  C   UNL     1     -44.402  57.777 -55.184  1.00  0.00     0.155 C 
BRANCH  22  23
HETATM   23  C   UNL     1     -45.063  59.069 -55.727  1.00  0.00     0.255 C 
BRANCH  23  24
HETATM   24  N   UNL     1     -44.319  59.685 -56.896  1.00  0.00    -0.066 N 
HETATM   25  H   UNL     1     -43.630  59.001 -57.233  1.00  0.00     0.280 HD
HETATM   26  C   UNL     1     -45.232  60.080 -58.062  1.00  0.00     0.261 C 
HETATM   27  C   UNL     1     -44.382  60.663 -59.198  1.00  0.00     0.195 C 
HETATM   28  O   UNL     1     -43.636  61.795 -58.743  1.00  0.00    -0.388 OA
HETATM   29  C   UNL     1     -42.733  61.452 -57.687  1.00  0.00     0.195 C 
HETATM   30  C   UNL     1     -43.495  60.906 -56.473  1.00  0.00     0.261 C 
ENDBRANCH  23  24
ENDBRANCH  22  23
ENDBRANCH   1  22
BRANCH   2  31
HETATM   31  C   UNL     1     -43.075  59.093 -52.859  1.00  0.00     0.120 A 
HETATM   32  S   UNL     1     -42.862  60.773 -52.695  1.00  0.00     0.020 SA
HETATM   33  N   UNL     1     -43.965  60.991 -51.486  1.00  0.00    -0.203 NA
HETATM   34  C   UNL     1     -44.408  59.790 -51.075  1.00  0.00     0.160 A 
HETATM   35  C   UNL     1     -43.905  58.669 -51.840  1.00  0.00     0.085 A 
BRANCH  34  36
HETATM   36  C   UNL     1     -45.313  59.689 -49.917  1.00  0.00     0.271 C 
HETATM   37  N   UNL     1     -45.054  60.556 -48.891  1.00  0.00    -0.365 N 
HETATM   38  H   UNL     1     -44.246  61.165 -48.929  1.00  0.00     0.159 HD
HETATM   39  H   UNL     1     -45.600  60.489 -48.044  1.00  0.00     0.159 HD
HETATM   40  O   UNL     1     -46.236  58.881 -49.844  1.00  0.00    -0.266 OA
ENDBRANCH  34  36
BRANCH  35  41
HETATM   41  N   UNL     1     -44.210  57.368 -51.604  1.00  0.00    -0.396 N 
HETATM   42  H   UNL     1     -44.688  57.128 -50.725  1.00  0.00     0.156 HD
HETATM   43  H   UNL     1     -43.573  56.624 -51.891  1.00  0.00     0.156 HD
ENDBRANCH  35  41
ENDBRANCH   2  31
TORSDOF 11
ENDMDL
MODEL 9
REMARK VINA RESULT:      -7.5      2.752      6.601
REMARK  11 active torsions:
REMARK  status: ('A' for Active; 'I' for Inactive)
REMARK    1  A    between atoms: O_2  and  C_3 
REMARK    2  A    between atoms: C_6  and  C_7 
REMARK    3  A    between atoms: C_7  and  N_8 
REMARK    4  A    between atoms: C_7  and  C_29 
REMARK       I    between atoms: N_8  and  C_9 
REMARK    5  A    between atoms: N_8  and  C_20 
REMARK    6  A    between atoms: C_9  and  C_10 
REMARK    7  A    between atoms: C_13  and  C_14 
REMARK       I    between atoms: C_14  and  N_15 
REMARK    8  A    between atoms: C_17  and  N_18 
REMARK    9  A    between atoms: C_20  and  C_21 
REMARK   10  A    between atoms: C_21  and  N_22 
REMARK       I    between atoms: C_29  and  N_30 
REMARK   11  A    between atoms: N_30  and  C_31 
ROOT
HETATM    1  N   UNL     1     -42.970  57.834 -54.143  1.00  0.00    -0.328 N 
HETATM    2  C   UNL     1     -43.886  57.062 -54.908  1.00  0.00     0.265 C 
HETATM    3  O   UNL     1     -44.491  56.131 -54.371  1.00  0.00    -0.267 OA
ENDROOT
BRANCH   1   4
HETATM    4  C   UNL     1     -42.741  57.383 -52.746  1.00  0.00     0.213 C 
BRANCH   4   5
HETATM    5  C   UNL     1     -42.007  56.055 -52.575  1.00  0.00    -0.026 A 
HETATM    6  C   UNL     1     -42.294  55.220 -51.482  1.00  0.00     0.012 A 
HETATM    7  C   UNL     1     -41.691  53.963 -51.349  1.00  0.00     0.037 A 
HETATM    8  C   UNL     1     -40.799  53.507 -52.315  1.00  0.00     0.068 A 
HETATM    9  C   UNL     1     -40.520  54.316 -53.416  1.00  0.00     0.037 A 
HETATM   10  C   UNL     1     -41.119  55.571 -53.551  1.00  0.00     0.012 A 
BRANCH   8  11
HETATM   11  O   UNL     1     -40.149  52.305 -52.312  1.00  0.00    -0.356 OA
HETATM   12  C   UNL     1     -39.811  51.753 -53.579  1.00  0.00     0.210 C 
ENDBRANCH   8  11
ENDBRANCH   4   5
BRANCH   4  13
HETATM   13  C   UNL     1     -42.313  58.541 -51.814  1.00  0.00     0.245 C 
HETATM   14  N   UNL     1     -43.310  59.377 -51.379  1.00  0.00    -0.354 N 
HETATM   15  H   UNL     1     -44.234  59.268 -51.803  1.00  0.00     0.162 HD
HETATM   16  O   UNL     1     -41.135  58.646 -51.469  1.00  0.00    -0.271 OA
BRANCH  14  17
HETATM   17  C   UNL     1     -43.049  60.557 -50.586  1.00  0.00     0.084 C 
HETATM   18  C   UNL     1     -42.916  61.809 -51.451  1.00  0.00     0.025 C 
HETATM   19  C   UNL     1     -43.212  62.930 -50.471  1.00  0.00     0.002 C 
HETATM   20  C   UNL     1     -44.377  62.391 -49.653  1.00  0.00     0.002 C 
HETATM   21  C   UNL     1     -44.184  60.874 -49.606  1.00  0.00     0.025 C 
ENDBRANCH  14  17
ENDBRANCH   4  13
ENDBRANCH   1   4
BRANCH   1  22
HETATM   22  C   UNL     1     -41.883  58.629 -54.759  1.00  0.00     0.155 C 
BRANCH  22  23
HETATM   23  C   UNL     1     -42.090  60.163 -54.700  1.00  0.00     0.255 C 
BRANCH  23  24
HETATM   24  N   UNL     1     -42.110  60.824 -56.065  1.00  0.00    -0.066 N 
HETATM   25  H   UNL     1     -41.419  61.584 -56.063  1.00  0.00     0.280 HD
HETATM   26  C   UNL     1     -41.781  59.864 -57.214  1.00  0.00     0.261 C 
HETATM   27  C   UNL     1     -41.798  60.634 -58.540  1.00  0.00     0.195 C 
HETATM   28  O   UNL     1     -43.073  61.248 -58.753  1.00  0.00    -0.388 OA
HETATM   29  C   UNL     1     -43.391  62.190 -57.724  1.00  0.00     0.195 C 
HETATM   30  C   UNL     1     -43.452  61.504 -56.354  1.00  0.00     0.261 C 
ENDBRANCH  23  24
ENDBRANCH  22  23
ENDBRANCH   1  22
BRANCH   2  31
HETATM   31  C   UNL     1     -44.080  57.339 -56.311  1.00  0.00     0.120 A 
HETATM   32  S   UNL     1     -45.302  58.378 -56.877  1.00  0.00     0.020 SA
HETATM   33  N   UNL     1     -44.964  58.216 -58.485  1.00  0.00    -0.203 NA
HETATM   34  C   UNL     1     -44.027  57.265 -58.643  1.00  0.00     0.160 A 
HETATM   35  C   UNL     1     -43.501  56.728 -57.407  1.00  0.00     0.085 A 
BRANCH  34  36
HETATM   36  C   UNL     1     -43.628  56.832 -59.994  1.00  0.00     0.271 C 
HETATM   37  N   UNL     1     -44.656  56.648 -60.879  1.00  0.00    -0.365 N 
HETATM   38  H   UNL     1     -45.616  56.746 -60.574  1.00  0.00     0.159 HD
HETATM   39  H   UNL     1     -44.448  56.290 -61.800  1.00  0.00     0.159 HD
HETATM   40  O   UNL     1     -42.463  56.628 -60.326  1.00  0.00    -0.266 OA
ENDBRANCH  34  36
BRANCH  35  41
HETATM   41  N   UNL     1     -42.555  55.759 -57.321  1.00  0.00    -0.396 N 
HETATM   42  H   UNL     1     -42.721  54.867 -57.805  1.00  0.00     0.156 HD
HETATM   43  H   UNL     1     -42.034  55.615 -56.455  1.00  0.00     0.156 HD
ENDBRANCH  35  41
ENDBRANCH   2  31
TORSDOF 11
ENDMDL
MODEL 10
REMARK VINA RESULT:      -7.2      2.795      7.802
REMARK  11 active torsions:
REMARK  status: ('A' for Active; 'I' for Inactive)
REMARK    1  A    between atoms: O_2  and  C_3 
REMARK    2  A    between atoms: C_6  and  C_7 
REMARK    3  A    between atoms: C_7  and  N_8 
REMARK    4  A    between atoms: C_7  and  C_29 
REMARK       I    between atoms: N_8  and  C_9 
REMARK    5  A    between atoms: N_8  and  C_20 
REMARK    6  A    between atoms: C_9  and  C_10 
REMARK    7  A    between atoms: C_13  and  C_14 
REMARK       I    between atoms: C_14  and  N_15 
REMARK    8  A    between atoms: C_17  and  N_18 
REMARK    9  A    between atoms: C_20  and  C_21 
REMARK   10  A    between atoms: C_21  and  N_22 
REMARK       I    between atoms: C_29  and  N_30 
REMARK   11  A    between atoms: N_30  and  C_31 
ROOT
HETATM    1  N   UNL     1     -42.496  57.846 -55.464  1.00  0.00    -0.328 N 
HETATM    2  C   UNL     1     -42.163  59.164 -55.876  1.00  0.00     0.265 C 
HETATM    3  O   UNL     1     -41.500  59.885 -55.126  1.00  0.00    -0.267 OA
ENDROOT
BRANCH   1   4
HETATM    4  C   UNL     1     -42.088  57.467 -54.086  1.00  0.00     0.213 C 
BRANCH   4   5
HETATM    5  C   UNL     1     -43.027  57.895 -52.961  1.00  0.00    -0.026 A 
HETATM    6  C   UNL     1     -42.709  58.999 -52.152  1.00  0.00     0.012 A 
HETATM    7  C   UNL     1     -43.593  59.458 -51.167  1.00  0.00     0.037 A 
HETATM    8  C   UNL     1     -44.821  58.831 -50.980  1.00  0.00     0.068 A 
HETATM    9  C   UNL     1     -45.159  57.746 -51.789  1.00  0.00     0.037 A 
HETATM   10  C   UNL     1     -44.279  57.286 -52.772  1.00  0.00     0.012 A 
BRANCH   8  11
HETATM   11  O   UNL     1     -45.775  59.178 -50.066  1.00  0.00    -0.356 OA
HETATM   12  C   UNL     1     -45.570  60.390 -49.350  1.00  0.00     0.210 C 
ENDBRANCH   8  11
ENDBRANCH   4   5
BRANCH   4  13
HETATM   13  C   UNL     1     -41.521  56.030 -54.012  1.00  0.00     0.245 C 
HETATM   14  N   UNL     1     -42.399  55.043 -53.641  1.00  0.00    -0.354 N 
HETATM   15  H   UNL     1     -43.320  55.334 -53.306  1.00  0.00     0.162 HD
HETATM   16  O   UNL     1     -40.347  55.818 -54.320  1.00  0.00    -0.271 OA
BRANCH  14  17
HETATM   17  C   UNL     1     -41.990  53.672 -53.432  1.00  0.00     0.084 C 
HETATM   18  C   UNL     1     -41.140  53.147 -54.586  1.00  0.00     0.025 C 
HETATM   19  C   UNL     1     -40.386  51.992 -53.952  1.00  0.00     0.002 C 
HETATM   20  C   UNL     1     -40.001  52.528 -52.581  1.00  0.00     0.002 C 
HETATM   21  C   UNL     1     -41.115  53.499 -52.187  1.00  0.00     0.025 C 
ENDBRANCH  14  17
ENDBRANCH   4  13
ENDBRANCH   1   4
BRANCH   1  22
HETATM   22  C   UNL     1     -43.633  57.090 -56.039  1.00  0.00     0.155 C 
BRANCH  22  23
HETATM   23  C   UNL     1     -43.238  56.043 -57.110  1.00  0.00     0.255 C 
BRANCH  23  24
HETATM   24  N   UNL     1     -44.248  55.914 -58.233  1.00  0.00    -0.066 N 
HETATM   25  H   UNL     1     -44.879  55.134 -58.009  1.00  0.00     0.280 HD
HETATM   26  C   UNL     1     -45.088  57.179 -58.448  1.00  0.00     0.261 C 
HETATM   27  C   UNL     1     -46.094  56.935 -59.580  1.00  0.00     0.195 C 
HETATM   28  O   UNL     1     -45.418  56.573 -60.788  1.00  0.00    -0.388 OA
HETATM   29  C   UNL     1     -44.664  55.366 -60.639  1.00  0.00     0.195 C 
HETATM   30  C   UNL     1     -43.586  55.525 -59.559  1.00  0.00     0.261 C 
ENDBRANCH  23  24
ENDBRANCH  22  23
ENDBRANCH   1  22
BRANCH   2  31
HETATM   31  C   UNL     1     -42.627  59.672 -57.145  1.00  0.00     0.120 A 
HETATM   32  S   UNL     1     -43.923  60.766 -57.271  1.00  0.00     0.020 SA
HETATM   33  N   UNL     1     -43.913  60.889 -58.917  1.00  0.00    -0.203 NA
HETATM   34  C   UNL     1     -43.039  59.998 -59.418  1.00  0.00     0.160 A 
HETATM   35  C   UNL     1     -42.285  59.270 -58.421  1.00  0.00     0.085 A 
BRANCH  34  36
HETATM   36  C   UNL     1     -42.921  59.811 -60.875  1.00  0.00     0.271 C 
HETATM   37  N   UNL     1     -44.106  59.700 -61.551  1.00  0.00    -0.365 N 
HETATM   38  H   UNL     1     -44.982  59.684 -61.044  1.00  0.00     0.159 HD
HETATM   39  H   UNL     1     -44.087  59.505 -62.541  1.00  0.00     0.159 HD
HETATM   40  O   UNL     1     -41.847  59.741 -61.467  1.00  0.00    -0.266 OA
ENDBRANCH  34  36
BRANCH  35  41
HETATM   41  N   UNL     1     -41.353  58.321 -58.691  1.00  0.00    -0.396 N 
HETATM   42  H   UNL     1     -40.565  58.208 -58.041  1.00  0.00     0.156 HD
HETATM   43  H   UNL     1     -41.066  58.132 -59.653  1.00  0.00     0.156 HD
ENDBRANCH  35  41
ENDBRANCH   2  31
TORSDOF 11
ENDMDL
