MODEL 1
REMARK VINA RESULT:      -7.2      0.000      0.000
REMARK  7 active torsions:
REMARK  status: ('A' for Active; 'I' for Inactive)
REMARK    1  A    between atoms: O_2  and  C_3 
REMARK    2  A    between atoms: C_4  and  O_5 
REMARK    3  A    between atoms: C_6  and  C_7 
REMARK    4  A    between atoms: C_7  and  N_8 
REMARK    5  A    between atoms: C_11  and  C_12 
REMARK    6  A    between atoms: C_12  and  N_13 
REMARK    7  A    between atoms: N_13  and  C_14 
ROOT
HETATM    1  N   UNL     1     -44.556  56.716 -53.802  1.00  0.00    -0.067 N 
HETATM    2  H   UNL     1     -45.551  56.472 -53.981  1.00  0.00     0.280 HD
HETATM    3  C   UNL     1     -43.725  55.470 -53.979  1.00  0.00     0.241 C 
HETATM    4  C   UNL     1     -42.478  55.969 -54.700  1.00  0.00     0.031 C 
HETATM    5  C   UNL     1     -43.073  56.988 -55.670  1.00  0.00     0.035 C 
HETATM    6  C   UNL     1     -44.106  57.727 -54.830  1.00  0.00     0.235 C 
ENDROOT
BRANCH   1   7
HETATM    7  C   UNL     1     -44.596  57.268 -52.396  1.00  0.00     0.276 C 
BRANCH   7   8
HETATM    8  C   UNL     1     -43.324  57.051 -51.627  1.00  0.00     0.005 A 
HETATM    9  C   UNL     1     -43.148  55.918 -50.826  1.00  0.00     0.107 A 
HETATM   10  C   UNL     1     -41.997  55.722 -50.049  1.00  0.00     0.103 A 
HETATM   11  C   UNL     1     -40.980  56.672 -50.096  1.00  0.00     0.058 A 
HETATM   12  C   UNL     1     -41.137  57.804 -50.899  1.00  0.00     0.014 A 
HETATM   13  C   UNL     1     -42.299  58.004 -51.650  1.00  0.00     0.030 A 
HETATM   14 BR   UNL     1     -39.755  59.093 -50.977  1.00  0.00    -0.051 Br
BRANCH   9  15
HETATM   15  O   UNL     1     -44.137  54.962 -50.815  1.00  0.00    -0.357 OA
HETATM   16  H   UNL     1     -44.950  55.457 -50.556  1.00  0.00     0.218 HD
ENDBRANCH   9  15
BRANCH  10  17
HETATM   17  O   UNL     1     -41.996  54.568 -49.311  1.00  0.00    -0.353 OA
HETATM   18  C   UNL     1     -40.828  54.314 -48.530  1.00  0.00     0.210 C 
ENDBRANCH  10  17
ENDBRANCH   7   8
ENDBRANCH   1   7
BRANCH   4  19
HETATM   19  C   UNL     1     -41.692  54.840 -55.376  1.00  0.00     0.127 C 
BRANCH  19  20
HETATM   20  N   UNL     1     -42.033  53.549 -54.770  1.00  0.00    -0.376 N 
HETATM   21  H   UNL     1     -42.556  52.926 -55.379  1.00  0.00     0.161 HD
BRANCH  20  22
HETATM   22  C   UNL     1     -41.145  52.938 -53.895  1.00  0.00     0.100 A 
HETATM   23  N   UNL     1     -40.511  51.822 -54.305  1.00  0.00    -0.353 N 
HETATM   24  H   UNL     1     -40.709  51.471 -55.237  1.00  0.00     0.166 HD
HETATM   25  C   UNL     1     -39.643  51.133 -53.548  1.00  0.00     0.089 A 
HETATM   26  C   UNL     1     -39.361  51.549 -52.257  1.00  0.00     0.017 A 
HETATM   27  C   UNL     1     -40.004  52.676 -51.768  1.00  0.00     0.005 A 
HETATM   28  C   UNL     1     -40.900  53.368 -52.584  1.00  0.00     0.048 A 
ENDBRANCH  20  22
ENDBRANCH  19  20
ENDBRANCH   4  19
TORSDOF 7
ENDMDL
MODEL 2
REMARK VINA RESULT:      -7.0      3.338      5.701
REMARK  7 active torsions:
REMARK  status: ('A' for Active; 'I' for Inactive)
REMARK    1  A    between atoms: O_2  and  C_3 
REMARK    2  A    between atoms: C_4  and  O_5 
REMARK    3  A    between atoms: C_6  and  C_7 
REMARK    4  A    between atoms: C_7  and  N_8 
REMARK    5  A    between atoms: C_11  and  C_12 
REMARK    6  A    between atoms: C_12  and  N_13 
REMARK    7  A    between atoms: N_13  and  C_14 
ROOT
HETATM    1  N   UNL     1     -43.365  55.989 -53.375  1.00  0.00    -0.067 N 
HETATM    2  H   UNL     1     -44.039  56.523 -52.791  1.00  0.00     0.280 HD
HETATM    3  C   UNL     1     -43.747  56.172 -54.823  1.00  0.00     0.241 C 
HETATM    4  C   UNL     1     -42.406  56.330 -55.531  1.00  0.00     0.031 C 
HETATM    5  C   UNL     1     -41.630  57.183 -54.530  1.00  0.00     0.035 C 
HETATM    6  C   UNL     1     -41.983  56.568 -53.181  1.00  0.00     0.235 C 
ENDROOT
BRANCH   1   7
HETATM    7  C   UNL     1     -43.506  54.582 -52.845  1.00  0.00     0.276 C 
BRANCH   7   8
HETATM    8  C   UNL     1     -42.227  54.012 -52.303  1.00  0.00     0.005 A 
HETATM    9  C   UNL     1     -41.388  53.230 -53.103  1.00  0.00     0.107 A 
HETATM   10  C   UNL     1     -40.220  52.634 -52.604  1.00  0.00     0.103 A 
HETATM   11  C   UNL     1     -39.867  52.848 -51.275  1.00  0.00     0.058 A 
HETATM   12  C   UNL     1     -40.690  53.634 -50.464  1.00  0.00     0.014 A 
HETATM   13  C   UNL     1     -41.865  54.204 -50.963  1.00  0.00     0.030 A 
HETATM   14 BR   UNL     1     -40.210  53.939 -48.661  1.00  0.00    -0.051 Br
BRANCH   9  15
HETATM   15  O   UNL     1     -41.719  53.056 -54.427  1.00  0.00    -0.357 OA
HETATM   16  H   UNL     1     -41.488  53.917 -54.849  1.00  0.00     0.218 HD
ENDBRANCH   9  15
BRANCH  10  17
HETATM   17  O   UNL     1     -39.524  51.888 -53.519  1.00  0.00    -0.353 OA
HETATM   18  C   UNL     1     -39.643  50.470 -53.405  1.00  0.00     0.210 C 
ENDBRANCH  10  17
ENDBRANCH   7   8
ENDBRANCH   1   7
BRANCH   4  19
HETATM   19  C   UNL     1     -42.542  56.959 -56.922  1.00  0.00     0.127 C 
BRANCH  19  20
HETATM   20  N   UNL     1     -42.668  55.915 -57.944  1.00  0.00    -0.376 N 
HETATM   21  H   UNL     1     -42.316  55.006 -57.658  1.00  0.00     0.161 HD
BRANCH  20  22
HETATM   22  C   UNL     1     -43.770  55.901 -58.788  1.00  0.00     0.100 A 
HETATM   23  N   UNL     1     -44.734  56.822 -58.595  1.00  0.00    -0.353 N 
HETATM   24  H   UNL     1     -44.617  57.488 -57.839  1.00  0.00     0.166 HD
HETATM   25  C   UNL     1     -45.852  56.901 -59.333  1.00  0.00     0.089 A 
HETATM   26  C   UNL     1     -46.077  55.996 -60.356  1.00  0.00     0.017 A 
HETATM   27  C   UNL     1     -45.134  55.006 -60.586  1.00  0.00     0.005 A 
HETATM   28  C   UNL     1     -43.983  54.953 -59.799  1.00  0.00     0.048 A 
ENDBRANCH  20  22
ENDBRANCH  19  20
ENDBRANCH   4  19
TORSDOF 7
ENDMDL
MODEL 3
REMARK VINA RESULT:      -7.0      4.050      6.341
REMARK  7 active torsions:
REMARK  status: ('A' for Active; 'I' for Inactive)
REMARK    1  A    between atoms: O_2  and  C_3 
REMARK    2  A    between atoms: C_4  and  O_5 
REMARK    3  A    between atoms: C_6  and  C_7 
REMARK    4  A    between atoms: C_7  and  N_8 
REMARK    5  A    between atoms: C_11  and  C_12 
REMARK    6  A    between atoms: C_12  and  N_13 
REMARK    7  A    between atoms: N_13  and  C_14 
ROOT
HETATM    1  N   UNL     1     -42.199  56.406 -55.494  1.00  0.00    -0.067 N 
HETATM    2  H   UNL     1     -41.596  56.312 -56.335  1.00  0.00     0.280 HD
HETATM    3  C   UNL     1     -42.365  55.040 -54.876  1.00  0.00     0.241 C 
HETATM    4  C   UNL     1     -42.277  55.310 -53.378  1.00  0.00     0.031 C 
HETATM    5  C   UNL     1     -41.177  56.367 -53.322  1.00  0.00     0.035 C 
HETATM    6  C   UNL     1     -41.503  57.292 -54.487  1.00  0.00     0.235 C 
ENDROOT
BRANCH   1   7
HETATM    7  C   UNL     1     -43.463  57.015 -56.056  1.00  0.00     0.276 C 
BRANCH   7   8
HETATM    8  C   UNL     1     -43.392  57.293 -57.530  1.00  0.00     0.005 A 
HETATM    9  C   UNL     1     -43.602  56.278 -58.469  1.00  0.00     0.107 A 
HETATM   10  C   UNL     1     -43.480  56.497 -59.849  1.00  0.00     0.103 A 
HETATM   11  C   UNL     1     -43.168  57.775 -60.305  1.00  0.00     0.058 A 
HETATM   12  C   UNL     1     -42.964  58.803 -59.381  1.00  0.00     0.014 A 
HETATM   13  C   UNL     1     -43.063  58.569 -58.005  1.00  0.00     0.030 A 
HETATM   14 BR   UNL     1     -42.551  60.543 -59.993  1.00  0.00    -0.051 Br
BRANCH   9  15
HETATM   15  O   UNL     1     -43.952  55.027 -58.015  1.00  0.00    -0.357 OA
HETATM   16  H   UNL     1     -44.796  54.827 -58.485  1.00  0.00     0.218 HD
ENDBRANCH   9  15
BRANCH  10  17
HETATM   17  O   UNL     1     -43.703  55.390 -60.625  1.00  0.00    -0.353 OA
HETATM   18  C   UNL     1     -45.038  55.198 -61.089  1.00  0.00     0.210 C 
ENDBRANCH  10  17
ENDBRANCH   7   8
ENDBRANCH   1   7
BRANCH   4  19
HETATM   19  C   UNL     1     -41.978  54.046 -52.565  1.00  0.00     0.127 C 
BRANCH  19  20
HETATM   20  N   UNL     1     -40.583  53.637 -52.752  1.00  0.00    -0.376 N 
HETATM   21  H   UNL     1     -39.914  54.167 -52.200  1.00  0.00     0.161 HD
BRANCH  20  22
HETATM   22  C   UNL     1     -40.274  52.299 -52.959  1.00  0.00     0.100 A 
HETATM   23  N   UNL     1     -39.792  51.587 -51.921  1.00  0.00    -0.353 N 
HETATM   24  H   UNL     1     -39.673  52.058 -51.030  1.00  0.00     0.166 HD
HETATM   25  C   UNL     1     -39.444  50.294 -51.999  1.00  0.00     0.089 A 
HETATM   26  C   UNL     1     -39.556  49.613 -53.200  1.00  0.00     0.017 A 
HETATM   27  C   UNL     1     -40.019  50.299 -54.311  1.00  0.00     0.005 A 
HETATM   28  C   UNL     1     -40.373  51.644 -54.194  1.00  0.00     0.048 A 
ENDBRANCH  20  22
ENDBRANCH  19  20
ENDBRANCH   4  19
TORSDOF 7
ENDMDL
MODEL 4
REMARK VINA RESULT:      -6.9      3.738      5.762
REMARK  7 active torsions:
REMARK  status: ('A' for Active; 'I' for Inactive)
REMARK    1  A    between atoms: O_2  and  C_3 
REMARK    2  A    between atoms: C_4  and  O_5 
REMARK    3  A    between atoms: C_6  and  C_7 
REMARK    4  A    between atoms: C_7  and  N_8 
REMARK    5  A    between atoms: C_11  and  C_12 
REMARK    6  A    between atoms: C_12  and  N_13 
REMARK    7  A    between atoms: N_13  and  C_14 
ROOT
HETATM    1  N   UNL     1     -42.364  57.692 -53.454  1.00  0.00    -0.067 N 
HETATM    2  H   UNL     1     -41.751  58.500 -53.682  1.00  0.00     0.280 HD
HETATM    3  C   UNL     1     -41.536  56.433 -53.531  1.00  0.00     0.241 C 
HETATM    4  C   UNL     1     -42.020  55.611 -52.343  1.00  0.00     0.031 C 
HETATM    5  C   UNL     1     -42.202  56.689 -51.278  1.00  0.00     0.035 C 
HETATM    6  C   UNL     1     -42.859  57.837 -52.034  1.00  0.00     0.235 C 
ENDROOT
BRANCH   1   7
HETATM    7  C   UNL     1     -43.462  57.805 -54.486  1.00  0.00     0.276 C 
BRANCH   7   8
HETATM    8  C   UNL     1     -42.954  57.988 -55.887  1.00  0.00     0.005 A 
HETATM    9  C   UNL     1     -42.168  59.092 -56.233  1.00  0.00     0.107 A 
HETATM   10  C   UNL     1     -41.733  59.320 -57.547  1.00  0.00     0.103 A 
HETATM   11  C   UNL     1     -42.070  58.403 -58.539  1.00  0.00     0.058 A 
HETATM   12  C   UNL     1     -42.847  57.290 -58.208  1.00  0.00     0.014 A 
HETATM   13  C   UNL     1     -43.297  57.084 -56.900  1.00  0.00     0.030 A 
HETATM   14 BR   UNL     1     -43.299  56.033 -59.547  1.00  0.00    -0.051 Br
BRANCH   9  15
HETATM   15  O   UNL     1     -41.802  59.973 -55.242  1.00  0.00    -0.357 OA
HETATM   16  H   UNL     1     -40.821  59.883 -55.188  1.00  0.00     0.218 HD
ENDBRANCH   9  15
BRANCH  10  17
HETATM   17  O   UNL     1     -40.987  60.457 -57.713  1.00  0.00    -0.353 OA
HETATM   18  C   UNL     1     -41.508  61.433 -58.614  1.00  0.00     0.210 C 
ENDBRANCH  10  17
ENDBRANCH   7   8
ENDBRANCH   1   7
BRANCH   4  19
HETATM   19  C   UNL     1     -41.040  54.499 -51.954  1.00  0.00     0.127 C 
BRANCH  19  20
HETATM   20  N   UNL     1     -40.453  53.893 -53.153  1.00  0.00    -0.376 N 
HETATM   21  H   UNL     1     -39.755  54.469 -53.615  1.00  0.00     0.161 HD
BRANCH  20  22
HETATM   22  C   UNL     1     -40.237  52.523 -53.202  1.00  0.00     0.100 A 
HETATM   23  N   UNL     1     -39.750  51.913 -52.104  1.00  0.00    -0.353 N 
HETATM   24  H   UNL     1     -39.558  52.481 -51.285  1.00  0.00     0.166 HD
HETATM   25  C   UNL     1     -39.485  50.599 -52.033  1.00  0.00     0.089 A 
HETATM   26  C   UNL     1     -39.697  49.785 -53.133  1.00  0.00     0.017 A 
HETATM   27  C   UNL     1     -40.171  50.359 -54.302  1.00  0.00     0.005 A 
HETATM   28  C   UNL     1     -40.436  51.728 -54.340  1.00  0.00     0.048 A 
ENDBRANCH  20  22
ENDBRANCH  19  20
ENDBRANCH   4  19
TORSDOF 7
ENDMDL
MODEL 5
REMARK VINA RESULT:      -6.9      3.408      5.641
REMARK  7 active torsions:
REMARK  status: ('A' for Active; 'I' for Inactive)
REMARK    1  A    between atoms: O_2  and  C_3 
REMARK    2  A    between atoms: C_4  and  O_5 
REMARK    3  A    between atoms: C_6  and  C_7 
REMARK    4  A    between atoms: C_7  and  N_8 
REMARK    5  A    between atoms: C_11  and  C_12 
REMARK    6  A    between atoms: C_12  and  N_13 
REMARK    7  A    between atoms: N_13  and  C_14 
ROOT
HETATM    1  N   UNL     1     -43.066  56.285 -53.907  1.00  0.00    -0.067 N 
HETATM    2  H   UNL     1     -43.379  55.326 -53.657  1.00  0.00     0.280 HD
HETATM    3  C   UNL     1     -42.656  56.285 -55.359  1.00  0.00     0.241 C 
HETATM    4  C   UNL     1     -43.196  57.609 -55.886  1.00  0.00     0.031 C 
HETATM    5  C   UNL     1     -44.542  57.697 -55.170  1.00  0.00     0.035 C 
HETATM    6  C   UNL     1     -44.229  57.237 -53.752  1.00  0.00     0.235 C 
ENDROOT
BRANCH   1   7
HETATM    7  C   UNL     1     -41.948  56.538 -52.923  1.00  0.00     0.276 C 
BRANCH   7   8
HETATM    8  C   UNL     1     -41.517  55.310 -52.173  1.00  0.00     0.005 A 
HETATM    9  C   UNL     1     -41.661  55.223 -50.785  1.00  0.00     0.107 A 
HETATM   10  C   UNL     1     -41.210  54.115 -50.053  1.00  0.00     0.103 A 
HETATM   11  C   UNL     1     -40.623  53.051 -50.732  1.00  0.00     0.058 A 
HETATM   12  C   UNL     1     -40.479  53.118 -52.120  1.00  0.00     0.014 A 
HETATM   13  C   UNL     1     -40.909  54.238 -52.838  1.00  0.00     0.030 A 
HETATM   14 BR   UNL     1     -39.693  51.671 -53.050  1.00  0.00    -0.051 Br
BRANCH   9  15
HETATM   15  O   UNL     1     -42.280  56.258 -50.123  1.00  0.00    -0.357 OA
HETATM   16  H   UNL     1     -41.640  57.006 -50.191  1.00  0.00     0.218 HD
ENDBRANCH   9  15
BRANCH  10  17
HETATM   17  O   UNL     1     -41.416  54.201 -48.701  1.00  0.00    -0.353 OA
HETATM   18  C   UNL     1     -40.296  53.903 -47.868  1.00  0.00     0.210 C 
ENDBRANCH  10  17
ENDBRANCH   7   8
ENDBRANCH   1   7
BRANCH   4  19
HETATM   19  C   UNL     1     -43.292  57.643 -57.415  1.00  0.00     0.127 C 
BRANCH  19  20
HETATM   20  N   UNL     1     -43.549  56.298 -57.940  1.00  0.00    -0.376 N 
HETATM   21  H   UNL     1     -43.545  55.566 -57.235  1.00  0.00     0.161 HD
BRANCH  20  22
HETATM   22  C   UNL     1     -44.438  56.123 -58.992  1.00  0.00     0.100 A 
HETATM   23  N   UNL     1     -45.627  56.753 -58.936  1.00  0.00    -0.353 N 
HETATM   24  H   UNL     1     -45.826  57.330 -58.125  1.00  0.00     0.166 HD
HETATM   25  C   UNL     1     -46.574  56.651 -59.881  1.00  0.00     0.089 A 
HETATM   26  C   UNL     1     -46.366  55.850 -60.991  1.00  0.00     0.017 A 
HETATM   27  C   UNL     1     -45.172  55.153 -61.093  1.00  0.00     0.005 A 
HETATM   28  C   UNL     1     -44.210  55.283 -60.091  1.00  0.00     0.048 A 
ENDBRANCH  20  22
ENDBRANCH  19  20
ENDBRANCH   4  19
TORSDOF 7
ENDMDL
MODEL 6
REMARK VINA RESULT:      -6.9      2.825      5.039
REMARK  7 active torsions:
REMARK  status: ('A' for Active; 'I' for Inactive)
REMARK    1  A    between atoms: O_2  and  C_3 
REMARK    2  A    between atoms: C_4  and  O_5 
REMARK    3  A    between atoms: C_6  and  C_7 
REMARK    4  A    between atoms: C_7  and  N_8 
REMARK    5  A    between atoms: C_11  and  C_12 
REMARK    6  A    between atoms: C_12  and  N_13 
REMARK    7  A    between atoms: N_13  and  C_14 
ROOT
HETATM    1  N   UNL     1     -41.939  56.764 -52.519  1.00  0.00    -0.067 N 
HETATM    2  H   UNL     1     -41.242  57.288 -53.085  1.00  0.00     0.280 HD
HETATM    3  C   UNL     1     -41.515  55.317 -52.469  1.00  0.00     0.241 C 
HETATM    4  C   UNL     1     -41.806  54.907 -51.030  1.00  0.00     0.031 C 
HETATM    5  C   UNL     1     -41.382  56.157 -50.263  1.00  0.00     0.035 C 
HETATM    6  C   UNL     1     -41.927  57.302 -51.107  1.00  0.00     0.235 C 
ENDROOT
BRANCH   1   7
HETATM    7  C   UNL     1     -43.232  57.031 -53.252  1.00  0.00     0.276 C 
BRANCH   7   8
HETATM    8  C   UNL     1     -43.051  57.282 -54.721  1.00  0.00     0.005 A 
HETATM    9  C   UNL     1     -43.241  56.262 -55.659  1.00  0.00     0.107 A 
HETATM   10  C   UNL     1     -43.017  56.453 -57.030  1.00  0.00     0.103 A 
HETATM   11  C   UNL     1     -42.618  57.708 -57.481  1.00  0.00     0.058 A 
HETATM   12  C   UNL     1     -42.433  58.741 -56.559  1.00  0.00     0.014 A 
HETATM   13  C   UNL     1     -42.635  58.535 -55.190  1.00  0.00     0.030 A 
HETATM   14 BR   UNL     1     -41.904  60.453 -57.165  1.00  0.00    -0.051 Br
BRANCH   9  15
HETATM   15  O   UNL     1     -43.675  55.035 -55.213  1.00  0.00    -0.357 OA
HETATM   16  H   UNL     1     -44.521  54.887 -55.697  1.00  0.00     0.218 HD
ENDBRANCH   9  15
BRANCH  10  17
HETATM   17  O   UNL     1     -43.234  55.344 -57.804  1.00  0.00    -0.353 OA
HETATM   18  C   UNL     1     -43.600  55.580 -59.163  1.00  0.00     0.210 C 
ENDBRANCH  10  17
ENDBRANCH   7   8
ENDBRANCH   1   7
BRANCH   4  19
HETATM   19  C   UNL     1     -41.064  53.632 -50.616  1.00  0.00     0.127 C 
BRANCH  19  20
HETATM   20  N   UNL     1     -39.950  53.370 -51.533  1.00  0.00    -0.376 N 
HETATM   21  H   UNL     1     -39.051  53.716 -51.210  1.00  0.00     0.161 HD
BRANCH  20  22
HETATM   22  C   UNL     1     -39.917  52.191 -52.265  1.00  0.00     0.100 A 
HETATM   23  N   UNL     1     -39.591  51.051 -51.626  1.00  0.00    -0.353 N 
HETATM   24  H   UNL     1     -39.381  51.100 -50.634  1.00  0.00     0.166 HD
HETATM   25  C   UNL     1     -39.511  49.853 -52.225  1.00  0.00     0.089 A 
HETATM   26  C   UNL     1     -39.755  49.735 -53.584  1.00  0.00     0.017 A 
HETATM   27  C   UNL     1     -40.068  50.879 -54.302  1.00  0.00     0.005 A 
HETATM   28  C   UNL     1     -40.144  52.108 -53.646  1.00  0.00     0.048 A 
ENDBRANCH  20  22
ENDBRANCH  19  20
ENDBRANCH   4  19
TORSDOF 7
ENDMDL
MODEL 7
REMARK VINA RESULT:      -6.8      3.758      6.080
REMARK  7 active torsions:
REMARK  status: ('A' for Active; 'I' for Inactive)
REMARK    1  A    between atoms: O_2  and  C_3 
REMARK    2  A    between atoms: C_4  and  O_5 
REMARK    3  A    between atoms: C_6  and  C_7 
REMARK    4  A    between atoms: C_7  and  N_8 
REMARK    5  A    between atoms: C_11  and  C_12 
REMARK    6  A    between atoms: C_12  and  N_13 
REMARK    7  A    between atoms: N_13  and  C_14 
ROOT
HETATM    1  N   UNL     1     -42.480  55.974 -54.445  1.00  0.00    -0.067 N 
HETATM    2  H   UNL     1     -42.839  56.948 -54.375  1.00  0.00     0.280 HD
HETATM    3  C   UNL     1     -41.487  55.756 -53.331  1.00  0.00     0.241 C 
HETATM    4  C   UNL     1     -41.792  54.344 -52.848  1.00  0.00     0.031 C 
HETATM    5  C   UNL     1     -43.317  54.319 -52.921  1.00  0.00     0.035 C 
HETATM    6  C   UNL     1     -43.629  55.014 -54.239  1.00  0.00     0.235 C 
ENDROOT
BRANCH   1   7
HETATM    7  C   UNL     1     -41.903  55.930 -55.840  1.00  0.00     0.276 C 
BRANCH   7   8
HETATM    8  C   UNL     1     -42.840  56.441 -56.896  1.00  0.00     0.005 A 
HETATM    9  C   UNL     1     -43.376  57.731 -56.824  1.00  0.00     0.107 A 
HETATM   10  C   UNL     1     -44.302  58.211 -57.762  1.00  0.00     0.103 A 
HETATM   11  C   UNL     1     -44.681  57.388 -58.819  1.00  0.00     0.058 A 
HETATM   12  C   UNL     1     -44.148  56.100 -58.911  1.00  0.00     0.014 A 
HETATM   13  C   UNL     1     -43.245  55.621 -57.956  1.00  0.00     0.030 A 
HETATM   14 BR   UNL     1     -44.650  54.980 -60.349  1.00  0.00    -0.051 Br
BRANCH   9  15
HETATM   15  O   UNL     1     -42.966  58.556 -55.802  1.00  0.00    -0.357 OA
HETATM   16  H   UNL     1     -41.999  58.379 -55.722  1.00  0.00     0.218 HD
ENDBRANCH   9  15
BRANCH  10  17
HETATM   17  O   UNL     1     -44.737  59.490 -57.533  1.00  0.00    -0.353 OA
HETATM   18  C   UNL     1     -46.132  59.650 -57.280  1.00  0.00     0.210 C 
ENDBRANCH  10  17
ENDBRANCH   7   8
ENDBRANCH   1   7
BRANCH   4  19
HETATM   19  C   UNL     1     -41.223  54.058 -51.454  1.00  0.00     0.127 C 
BRANCH  19  20
HETATM   20  N   UNL     1     -39.912  53.411 -51.561  1.00  0.00    -0.376 N 
HETATM   21  H   UNL     1     -39.242  53.702 -50.855  1.00  0.00     0.161 HD
BRANCH  20  22
HETATM   22  C   UNL     1     -39.824  52.088 -51.972  1.00  0.00     0.100 A 
HETATM   23  N   UNL     1     -39.751  51.129 -51.028  1.00  0.00    -0.353 N 
HETATM   24  H   UNL     1     -39.762  51.413 -50.054  1.00  0.00     0.166 HD
HETATM   25  C   UNL     1     -39.648  49.819 -51.298  1.00  0.00     0.089 A 
HETATM   26  C   UNL     1     -39.596  49.380 -52.611  1.00  0.00     0.017 A 
HETATM   27  C   UNL     1     -39.638  50.321 -53.627  1.00  0.00     0.005 A 
HETATM   28  C   UNL     1     -39.746  51.676 -53.310  1.00  0.00     0.048 A 
ENDBRANCH  20  22
ENDBRANCH  19  20
ENDBRANCH   4  19
TORSDOF 7
ENDMDL
MODEL 8
REMARK VINA RESULT:      -6.6     15.136     17.187
REMARK  7 active torsions:
REMARK  status: ('A' for Active; 'I' for Inactive)
REMARK    1  A    between atoms: O_2  and  C_3 
REMARK    2  A    between atoms: C_4  and  O_5 
REMARK    3  A    between atoms: C_6  and  C_7 
REMARK    4  A    between atoms: C_7  and  N_8 
REMARK    5  A    between atoms: C_11  and  C_12 
REMARK    6  A    between atoms: C_12  and  N_13 
REMARK    7  A    between atoms: N_13  and  C_14 
ROOT
HETATM    1  N   UNL     1     -36.799  41.572 -58.150  1.00  0.00    -0.067 N 
HETATM    2  H   UNL     1     -37.470  41.845 -57.404  1.00  0.00     0.280 HD
HETATM    3  C   UNL     1     -36.874  40.076 -58.327  1.00  0.00     0.241 C 
HETATM    4  C   UNL     1     -36.792  39.888 -59.837  1.00  0.00     0.031 C 
HETATM    5  C   UNL     1     -37.643  41.054 -60.337  1.00  0.00     0.035 C 
HETATM    6  C   UNL     1     -37.222  42.217 -59.449  1.00  0.00     0.235 C 
ENDROOT
BRANCH   1   7
HETATM    7  C   UNL     1     -35.483  42.092 -57.621  1.00  0.00     0.276 C 
BRANCH   7   8
HETATM    8  C   UNL     1     -35.219  41.719 -56.191  1.00  0.00     0.005 A 
HETATM    9  C   UNL     1     -36.125  42.048 -55.178  1.00  0.00     0.107 A 
HETATM   10  C   UNL     1     -35.874  41.768 -53.827  1.00  0.00     0.103 A 
HETATM   11  C   UNL     1     -34.695  41.114 -53.481  1.00  0.00     0.058 A 
HETATM   12  C   UNL     1     -33.782  40.770 -54.482  1.00  0.00     0.014 A 
HETATM   13  C   UNL     1     -34.030  41.076 -55.823  1.00  0.00     0.030 A 
HETATM   14 BR   UNL     1     -32.184  39.870 -54.021  1.00  0.00    -0.051 Br
BRANCH   9  15
HETATM   15  O   UNL     1     -37.308  42.657 -55.529  1.00  0.00    -0.357 OA
HETATM   16  H   UNL     1     -37.872  42.573 -54.724  1.00  0.00     0.218 HD
ENDBRANCH   9  15
BRANCH  10  17
HETATM   17  O   UNL     1     -36.859  42.174 -52.966  1.00  0.00    -0.353 OA
HETATM   18  C   UNL     1     -37.699  41.150 -52.435  1.00  0.00     0.210 C 
ENDBRANCH  10  17
ENDBRANCH   7   8
ENDBRANCH   1   7
BRANCH   4  19
HETATM   19  C   UNL     1     -37.284  38.509 -60.291  1.00  0.00     0.127 C 
BRANCH  19  20
HETATM   20  N   UNL     1     -38.694  38.327 -59.930  1.00  0.00    -0.376 N 
HETATM   21  H   UNL     1     -38.995  38.874 -59.129  1.00  0.00     0.161 HD
BRANCH  20  22
HETATM   22  C   UNL     1     -39.644  38.132 -60.924  1.00  0.00     0.100 A 
HETATM   23  N   UNL     1     -39.217  37.963 -62.191  1.00  0.00    -0.353 N 
HETATM   24  H   UNL     1     -38.218  37.986 -62.368  1.00  0.00     0.166 HD
HETATM   25  C   UNL     1     -40.036  37.782 -63.238  1.00  0.00     0.089 A 
HETATM   26  C   UNL     1     -41.409  37.775 -63.056  1.00  0.00     0.017 A 
HETATM   27  C   UNL     1     -41.910  37.973 -61.779  1.00  0.00     0.005 A 
HETATM   28  C   UNL     1     -41.029  38.157 -60.713  1.00  0.00     0.048 A 
ENDBRANCH  20  22
ENDBRANCH  19  20
ENDBRANCH   4  19
TORSDOF 7
ENDMDL
MODEL 9
REMARK VINA RESULT:      -6.5      3.266      4.479
REMARK  7 active torsions:
REMARK  status: ('A' for Active; 'I' for Inactive)
REMARK    1  A    between atoms: O_2  and  C_3 
REMARK    2  A    between atoms: C_4  and  O_5 
REMARK    3  A    between atoms: C_6  and  C_7 
REMARK    4  A    between atoms: C_7  and  N_8 
REMARK    5  A    between atoms: C_11  and  C_12 
REMARK    6  A    between atoms: C_12  and  N_13 
REMARK    7  A    between atoms: N_13  and  C_14 
ROOT
HETATM    1  N   UNL     1     -42.035  57.064 -51.954  1.00  0.00    -0.067 N 
HETATM    2  H   UNL     1     -42.877  57.529 -51.561  1.00  0.00     0.280 HD
HETATM    3  C   UNL     1     -41.488  56.119 -50.913  1.00  0.00     0.241 C 
HETATM    4  C   UNL     1     -41.080  54.892 -51.720  1.00  0.00     0.031 C 
HETATM    5  C   UNL     1     -42.219  54.800 -52.733  1.00  0.00     0.035 C 
HETATM    6  C   UNL     1     -42.445  56.245 -53.156  1.00  0.00     0.235 C 
ENDROOT
BRANCH   1   7
HETATM    7  C   UNL     1     -41.140  58.230 -52.300  1.00  0.00     0.276 C 
BRANCH   7   8
HETATM    8  C   UNL     1     -41.857  59.549 -52.341  1.00  0.00     0.005 A 
HETATM    9  C   UNL     1     -42.233  60.204 -51.165  1.00  0.00     0.107 A 
HETATM   10  C   UNL     1     -42.959  61.404 -51.176  1.00  0.00     0.103 A 
HETATM   11  C   UNL     1     -43.294  61.981 -52.398  1.00  0.00     0.058 A 
HETATM   12  C   UNL     1     -42.918  61.343 -53.582  1.00  0.00     0.014 A 
HETATM   13  C   UNL     1     -42.216  60.134 -53.562  1.00  0.00     0.030 A 
HETATM   14 BR   UNL     1     -43.359  62.125 -55.247  1.00  0.00    -0.051 Br
BRANCH   9  15
HETATM   15  O   UNL     1     -41.864  59.653 -49.960  1.00  0.00    -0.357 OA
HETATM   16  H   UNL     1     -41.138  60.239 -49.639  1.00  0.00     0.218 HD
ENDBRANCH   9  15
BRANCH  10  17
HETATM   17  O   UNL     1     -43.259  61.902 -49.935  1.00  0.00    -0.353 OA
HETATM   18  C   UNL     1     -44.643  61.952 -49.588  1.00  0.00     0.210 C 
ENDBRANCH  10  17
ENDBRANCH   7   8
ENDBRANCH   1   7
BRANCH   4  19
HETATM   19  C   UNL     1     -40.907  53.642 -50.850  1.00  0.00     0.127 C 
BRANCH  19  20
HETATM   20  N   UNL     1     -39.683  52.926 -51.223  1.00  0.00    -0.376 N 
HETATM   21  H   UNL     1     -39.020  52.805 -50.463  1.00  0.00     0.161 HD
BRANCH  20  22
HETATM   22  C   UNL     1     -39.740  51.892 -52.148  1.00  0.00     0.100 A 
HETATM   23  N   UNL     1     -39.562  50.631 -51.709  1.00  0.00    -0.353 N 
HETATM   24  H   UNL     1     -39.392  50.488 -50.719  1.00  0.00     0.166 HD
HETATM   25  C   UNL     1     -39.580  49.552 -52.505  1.00  0.00     0.089 A 
HETATM   26  C   UNL     1     -39.774  49.695 -53.869  1.00  0.00     0.017 A 
HETATM   27  C   UNL     1     -39.936  50.971 -54.386  1.00  0.00     0.005 A 
HETATM   28  C   UNL     1     -39.913  52.071 -53.528  1.00  0.00     0.048 A 
ENDBRANCH  20  22
ENDBRANCH  19  20
ENDBRANCH   4  19
TORSDOF 7
ENDMDL
MODEL 10
REMARK VINA RESULT:      -6.3      2.679      5.824
REMARK  7 active torsions:
REMARK  status: ('A' for Active; 'I' for Inactive)
REMARK    1  A    between atoms: O_2  and  C_3 
REMARK    2  A    between atoms: C_4  and  O_5 
REMARK    3  A    between atoms: C_6  and  C_7 
REMARK    4  A    between atoms: C_7  and  N_8 
REMARK    5  A    between atoms: C_11  and  C_12 
REMARK    6  A    between atoms: C_12  and  N_13 
REMARK    7  A    between atoms: N_13  and  C_14 
ROOT
HETATM    1  N   UNL     1     -41.928  55.150 -55.544  1.00  0.00    -0.067 N 
HETATM    2  H   UNL     1     -41.802  55.123 -56.576  1.00  0.00     0.280 HD
HETATM    3  C   UNL     1     -42.557  56.471 -55.180  1.00  0.00     0.241 C 
HETATM    4  C   UNL     1     -43.566  56.103 -54.099  1.00  0.00     0.031 C 
HETATM    5  C   UNL     1     -44.119  54.783 -54.632  1.00  0.00     0.035 C 
HETATM    6  C   UNL     1     -42.882  54.052 -55.138  1.00  0.00     0.235 C 
ENDROOT
BRANCH   1   7
HETATM    7  C   UNL     1     -40.522  54.944 -55.032  1.00  0.00     0.276 C 
BRANCH   7   8
HETATM    8  C   UNL     1     -40.425  53.926 -53.932  1.00  0.00     0.005 A 
HETATM    9  C   UNL     1     -40.616  54.287 -52.594  1.00  0.00     0.107 A 
HETATM   10  C   UNL     1     -40.470  53.370 -51.543  1.00  0.00     0.103 A 
HETATM   11  C   UNL     1     -40.151  52.048 -51.839  1.00  0.00     0.058 A 
HETATM   12  C   UNL     1     -39.966  51.669 -53.171  1.00  0.00     0.014 A 
HETATM   13  C   UNL     1     -40.090  52.595 -54.211  1.00  0.00     0.030 A 
HETATM   14 BR   UNL     1     -39.545  49.872 -53.583  1.00  0.00    -0.051 Br
BRANCH   9  15
HETATM   15  O   UNL     1     -40.972  55.585 -52.309  1.00  0.00    -0.357 OA
HETATM   16  H   UNL     1     -41.165  55.982 -53.191  1.00  0.00     0.218 HD
ENDBRANCH   9  15
BRANCH  10  17
HETATM   17  O   UNL     1     -40.676  53.895 -50.294  1.00  0.00    -0.353 OA
HETATM   18  C   UNL     1     -39.509  54.189 -49.528  1.00  0.00     0.210 C 
ENDBRANCH  10  17
ENDBRANCH   7   8
ENDBRANCH   1   7
BRANCH   4  19
HETATM   19  C   UNL     1     -44.627  57.189 -53.883  1.00  0.00     0.127 C 
BRANCH  19  20
HETATM   20  N   UNL     1     -44.737  57.517 -52.458  1.00  0.00    -0.376 N 
HETATM   21  H   UNL     1     -44.823  56.710 -51.847  1.00  0.00     0.161 HD
BRANCH  20  22
HETATM   22  C   UNL     1     -44.036  58.598 -51.940  1.00  0.00     0.100 A 
HETATM   23  N   UNL     1     -44.559  59.830 -52.090  1.00  0.00    -0.353 N 
HETATM   24  H   UNL     1     -45.445  59.919 -52.578  1.00  0.00     0.166 HD
HETATM   25  C   UNL     1     -43.971  60.952 -51.648  1.00  0.00     0.089 A 
HETATM   26  C   UNL     1     -42.745  60.890 -51.005  1.00  0.00     0.017 A 
HETATM   27  C   UNL     1     -42.143  59.652 -50.845  1.00  0.00     0.005 A 
HETATM   28  C   UNL     1     -42.783  58.506 -51.317  1.00  0.00     0.048 A 
ENDBRANCH  20  22
ENDBRANCH  19  20
ENDBRANCH   4  19
TORSDOF 7
ENDMDL
