MODEL 1
REMARK VINA RESULT:      -8.2      0.000      0.000
REMARK  2 active torsions:
REMARK  status: ('A' for Active; 'I' for Inactive)
REMARK    1  A    between atoms: N_8  and  C_9 
REMARK    2  A    between atoms: C_11  and  C_12 
ROOT
HETATM    1  C   UNL     1     -41.596  59.723 -50.957  1.00  0.00     0.269 C 
HETATM    2  N   UNL     1     -40.724  58.582 -51.406  1.00  0.00    -0.075 N 
HETATM    3  H   UNL     1     -39.894  58.632 -50.799  1.00  0.00     0.279 HD
HETATM    4  C   UNL     1     -41.322  57.223 -51.134  1.00  0.00     0.235 C 
HETATM    5  C   UNL     1     -42.410  56.904 -52.151  1.00  0.00     0.039 C 
HETATM    6  C   UNL     1     -41.909  56.982 -53.618  1.00  0.00    -0.021 C 
HETATM    7  C   UNL     1     -40.872  55.867 -53.914  1.00  0.00     0.151 C 
HETATM    8  N   UNL     1     -41.534  54.589 -53.741  1.00  0.00    -0.213 N 
HETATM    9  C   UNL     1     -42.587  54.275 -54.696  1.00  0.00     0.141 C 
HETATM   10  C   UNL     1     -43.668  55.360 -54.589  1.00  0.00     0.021 C 
HETATM   11  C   UNL     1     -43.091  56.784 -54.610  1.00  0.00     0.013 C 
HETATM   12  C   UNL     1     -41.279  58.376 -53.840  1.00  0.00     0.039 C 
HETATM   13  C   UNL     1     -40.207  58.731 -52.812  1.00  0.00     0.235 C 
ENDROOT
BRANCH   8  14
HETATM   14  C   UNL     1     -40.887  53.584 -53.063  1.00  0.00     0.724 A 
HETATM   15  N   UNL     1     -40.744  52.407 -53.693  1.00  0.00    -0.058 NA
HETATM   16  C   UNL     1     -40.026  51.424 -53.083  1.00  0.00     0.160 A 
HETATM   17  C   UNL     1     -39.467  51.601 -51.835  1.00  0.00     0.057 A 
HETATM   18  C   UNL     1     -39.662  52.831 -51.267  1.00  0.00     0.139 A 
HETATM   19  N   UNL     1     -40.348  53.823 -51.863  1.00  0.00    -0.075 NA
BRANCH  16  20
HETATM   20  C   UNL     1     -39.842  50.106 -53.811  1.00  0.00     0.435 C 
HETATM   21  F   UNL     1     -39.651  49.048 -52.962  1.00  0.00    -0.165 F 
HETATM   22  F   UNL     1     -40.918  49.769 -54.576  1.00  0.00    -0.165 F 
HETATM   23  F   UNL     1     -38.769  50.108 -54.648  1.00  0.00    -0.165 F 
ENDBRANCH  16  20
ENDBRANCH   8  14
TORSDOF 2
ENDMDL
MODEL 2
REMARK VINA RESULT:      -8.2      1.240      1.662
REMARK  2 active torsions:
REMARK  status: ('A' for Active; 'I' for Inactive)
REMARK    1  A    between atoms: N_8  and  C_9 
REMARK    2  A    between atoms: C_11  and  C_12 
ROOT
HETATM    1  C   UNL     1     -44.841  58.202 -51.077  1.00  0.00     0.269 C 
HETATM    2  N   UNL     1     -43.508  57.508 -50.991  1.00  0.00    -0.075 N 
HETATM    3  H   UNL     1     -43.300  57.463 -49.984  1.00  0.00     0.279 HD
HETATM    4  C   UNL     1     -43.546  56.070 -51.445  1.00  0.00     0.235 C 
HETATM    5  C   UNL     1     -43.587  55.990 -52.966  1.00  0.00     0.039 C 
HETATM    6  C   UNL     1     -42.403  56.730 -53.643  1.00  0.00    -0.021 C 
HETATM    7  C   UNL     1     -41.055  56.029 -53.332  1.00  0.00     0.151 C 
HETATM    8  N   UNL     1     -41.113  54.691 -53.885  1.00  0.00    -0.213 N 
HETATM    9  C   UNL     1     -41.168  54.597 -55.337  1.00  0.00     0.141 C 
HETATM   10  C   UNL     1     -42.424  55.337 -55.818  1.00  0.00     0.021 C 
HETATM   11  C   UNL     1     -42.573  56.731 -55.189  1.00  0.00     0.013 C 
HETATM   12  C   UNL     1     -42.385  58.187 -53.126  1.00  0.00     0.039 C 
HETATM   13  C   UNL     1     -42.376  58.292 -51.602  1.00  0.00     0.235 C 
ENDROOT
BRANCH   8  14
HETATM   14  C   UNL     1     -40.655  53.634 -53.136  1.00  0.00     0.724 A 
HETATM   15  N   UNL     1     -40.515  52.451 -53.757  1.00  0.00    -0.058 NA
HETATM   16  C   UNL     1     -39.975  51.411 -53.064  1.00  0.00     0.160 A 
HETATM   17  C   UNL     1     -39.594  51.537 -51.745  1.00  0.00     0.057 A 
HETATM   18  C   UNL     1     -39.773  52.777 -51.192  1.00  0.00     0.139 A 
HETATM   19  N   UNL     1     -40.281  53.824 -51.866  1.00  0.00    -0.075 NA
BRANCH  16  20
HETATM   20  C   UNL     1     -39.791  50.086 -53.778  1.00  0.00     0.435 C 
HETATM   21  F   UNL     1     -38.706  50.073 -54.612  1.00  0.00    -0.165 F 
HETATM   22  F   UNL     1     -39.602  49.045 -52.919  1.00  0.00    -0.165 F 
HETATM   23  F   UNL     1     -40.858  49.747 -54.551  1.00  0.00    -0.165 F 
ENDBRANCH  16  20
ENDBRANCH   8  14
TORSDOF 2
ENDMDL
MODEL 3
REMARK VINA RESULT:      -7.7      1.571      3.224
REMARK  2 active torsions:
REMARK  status: ('A' for Active; 'I' for Inactive)
REMARK    1  A    between atoms: N_8  and  C_9 
REMARK    2  A    between atoms: C_11  and  C_12 
ROOT
HETATM    1  C   UNL     1     -42.892  57.736 -56.489  1.00  0.00     0.269 C 
HETATM    2  N   UNL     1     -43.070  56.552 -55.577  1.00  0.00    -0.075 N 
HETATM    3  H   UNL     1     -43.328  55.776 -56.203  1.00  0.00     0.279 HD
HETATM    4  C   UNL     1     -41.791  56.106 -54.912  1.00  0.00     0.235 C 
HETATM    5  C   UNL     1     -41.429  57.043 -53.767  1.00  0.00     0.039 C 
HETATM    6  C   UNL     1     -42.560  57.174 -52.712  1.00  0.00    -0.021 C 
HETATM    7  C   UNL     1     -42.781  55.836 -51.960  1.00  0.00     0.151 C 
HETATM    8  N   UNL     1     -41.556  55.516 -51.255  1.00  0.00    -0.213 N 
HETATM    9  C   UNL     1     -41.188  56.410 -50.167  1.00  0.00     0.141 C 
HETATM   10  C   UNL     1     -41.019  57.822 -50.744  1.00  0.00     0.021 C 
HETATM   11  C   UNL     1     -42.190  58.244 -51.645  1.00  0.00     0.013 C 
HETATM   12  C   UNL     1     -43.854  57.602 -53.442  1.00  0.00     0.039 C 
HETATM   13  C   UNL     1     -44.220  56.695 -54.616  1.00  0.00     0.235 C 
ENDROOT
BRANCH   8  14
HETATM   14  C   UNL     1     -41.078  54.228 -51.290  1.00  0.00     0.724 A 
HETATM   15  N   UNL     1     -40.842  53.689 -52.497  1.00  0.00    -0.058 NA
HETATM   16  C   UNL     1     -40.281  52.451 -52.560  1.00  0.00     0.160 A 
HETATM   17  C   UNL     1     -39.971  51.735 -51.423  1.00  0.00     0.057 A 
HETATM   18  C   UNL     1     -40.245  52.361 -50.236  1.00  0.00     0.139 A 
HETATM   19  N   UNL     1     -40.778  53.593 -50.152  1.00  0.00    -0.075 NA
BRANCH  16  20
HETATM   20  C   UNL     1     -39.989  51.858 -53.925  1.00  0.00     0.435 C 
HETATM   21  F   UNL     1     -38.798  51.184 -53.972  1.00  0.00    -0.165 F 
HETATM   22  F   UNL     1     -40.932  50.959 -54.324  1.00  0.00    -0.165 F 
HETATM   23  F   UNL     1     -39.923  52.797 -54.908  1.00  0.00    -0.165 F 
ENDBRANCH  16  20
ENDBRANCH   8  14
TORSDOF 2
ENDMDL
MODEL 4
REMARK VINA RESULT:      -7.7      1.985      3.459
REMARK  2 active torsions:
REMARK  status: ('A' for Active; 'I' for Inactive)
REMARK    1  A    between atoms: N_8  and  C_9 
REMARK    2  A    between atoms: C_11  and  C_12 
ROOT
HETATM    1  C   UNL     1     -43.092  58.063 -56.058  1.00  0.00     0.269 C 
HETATM    2  N   UNL     1     -43.100  56.648 -55.546  1.00  0.00    -0.075 N 
HETATM    3  H   UNL     1     -43.324  56.072 -56.370  1.00  0.00     0.279 HD
HETATM    4  C   UNL     1     -41.745  56.163 -55.092  1.00  0.00     0.235 C 
HETATM    5  C   UNL     1     -41.399  56.746 -53.728  1.00  0.00     0.039 C 
HETATM    6  C   UNL     1     -42.467  56.431 -52.646  1.00  0.00    -0.021 C 
HETATM    7  C   UNL     1     -42.513  54.914 -52.332  1.00  0.00     0.151 C 
HETATM    8  N   UNL     1     -41.221  54.531 -51.800  1.00  0.00    -0.213 N 
HETATM    9  C   UNL     1     -40.868  55.091 -50.503  1.00  0.00     0.141 C 
HETATM   10  C   UNL     1     -40.869  56.621 -50.627  1.00  0.00     0.021 C 
HETATM   11  C   UNL     1     -42.129  57.165 -51.317  1.00  0.00     0.013 C 
HETATM   12  C   UNL     1     -43.839  56.916 -53.168  1.00  0.00     0.039 C 
HETATM   13  C   UNL     1     -44.194  56.370 -54.549  1.00  0.00     0.235 C 
ENDROOT
BRANCH   8  14
HETATM   14  C   UNL     1     -40.628  53.373 -52.242  1.00  0.00     0.724 A 
HETATM   15  N   UNL     1     -40.435  52.395 -51.343  1.00  0.00    -0.058 NA
HETATM   16  C   UNL     1     -39.936  51.204 -51.772  1.00  0.00     0.160 A 
HETATM   17  C   UNL     1     -39.607  50.987 -53.093  1.00  0.00     0.057 A 
HETATM   18  C   UNL     1     -39.837  52.039 -53.941  1.00  0.00     0.139 A 
HETATM   19  N   UNL     1     -40.351  53.215 -53.541  1.00  0.00    -0.075 NA
BRANCH  16  20
HETATM   20  C   UNL     1     -39.747  50.092 -50.758  1.00  0.00     0.435 C 
HETATM   21  F   UNL     1     -38.450  49.661 -50.672  1.00  0.00    -0.165 F 
HETATM   22  F   UNL     1     -40.091  50.465 -49.494  1.00  0.00    -0.165 F 
HETATM   23  F   UNL     1     -40.488  48.985 -51.040  1.00  0.00    -0.165 F 
ENDBRANCH  16  20
ENDBRANCH   8  14
TORSDOF 2
ENDMDL
MODEL 5
REMARK VINA RESULT:      -7.2      2.681      3.228
REMARK  2 active torsions:
REMARK  status: ('A' for Active; 'I' for Inactive)
REMARK    1  A    between atoms: N_8  and  C_9 
REMARK    2  A    between atoms: C_11  and  C_12 
ROOT
HETATM    1  C   UNL     1     -44.614  58.925 -51.535  1.00  0.00     0.269 C 
HETATM    2  N   UNL     1     -43.288  58.217 -51.453  1.00  0.00    -0.075 N 
HETATM    3  H   UNL     1     -42.990  58.332 -50.474  1.00  0.00     0.279 HD
HETATM    4  C   UNL     1     -43.388  56.725 -51.654  1.00  0.00     0.235 C 
HETATM    5  C   UNL     1     -43.570  56.396 -53.130  1.00  0.00     0.039 C 
HETATM    6  C   UNL     1     -42.443  56.979 -54.024  1.00  0.00    -0.021 C 
HETATM    7  C   UNL     1     -41.082  56.301 -53.720  1.00  0.00     0.151 C 
HETATM    8  N   UNL     1     -41.209  54.892 -54.034  1.00  0.00    -0.213 N 
HETATM    9  C   UNL     1     -41.399  54.560 -55.440  1.00  0.00     0.141 C 
HETATM   10  C   UNL     1     -42.683  55.247 -55.924  1.00  0.00     0.021 C 
HETATM   11  C   UNL     1     -42.755  56.730 -55.527  1.00  0.00     0.013 C 
HETATM   12  C   UNL     1     -42.358  58.500 -53.761  1.00  0.00     0.039 C 
HETATM   13  C   UNL     1     -42.208  58.856 -52.283  1.00  0.00     0.235 C 
ENDROOT
BRANCH   8  14
HETATM   14  C   UNL     1     -40.699  53.960 -53.163  1.00  0.00     0.724 A 
HETATM   15  N   UNL     1     -40.736  54.254 -51.853  1.00  0.00    -0.058 NA
HETATM   16  C   UNL     1     -40.324  53.312 -50.962  1.00  0.00     0.160 A 
HETATM   17  C   UNL     1     -39.852  52.082 -51.370  1.00  0.00     0.057 A 
HETATM   18  C   UNL     1     -39.849  51.868 -52.723  1.00  0.00     0.139 A 
HETATM   19  N   UNL     1     -40.274  52.777 -53.619  1.00  0.00    -0.075 NA
BRANCH  16  20
HETATM   20  C   UNL     1     -40.396  53.636 -49.482  1.00  0.00     0.435 C 
HETATM   21  F   UNL     1     -41.449  54.451 -49.163  1.00  0.00    -0.165 F 
HETATM   22  F   UNL     1     -40.545  52.528 -48.704  1.00  0.00    -0.165 F 
HETATM   23  F   UNL     1     -39.283  54.271 -49.024  1.00  0.00    -0.165 F 
ENDBRANCH  16  20
ENDBRANCH   8  14
TORSDOF 2
ENDMDL
MODEL 6
REMARK VINA RESULT:      -7.2      1.410      1.622
REMARK  2 active torsions:
REMARK  status: ('A' for Active; 'I' for Inactive)
REMARK    1  A    between atoms: N_8  and  C_9 
REMARK    2  A    between atoms: C_11  and  C_12 
ROOT
HETATM    1  C   UNL     1     -44.397  59.967 -51.096  1.00  0.00     0.269 C 
HETATM    2  N   UNL     1     -43.190  59.077 -50.971  1.00  0.00    -0.075 N 
HETATM    3  H   UNL     1     -42.988  59.049 -49.961  1.00  0.00     0.279 HD
HETATM    4  C   UNL     1     -43.457  57.642 -51.353  1.00  0.00     0.235 C 
HETATM    5  C   UNL     1     -43.516  57.493 -52.868  1.00  0.00     0.039 C 
HETATM    6  C   UNL     1     -42.232  58.002 -53.576  1.00  0.00    -0.021 C 
HETATM    7  C   UNL     1     -41.011  57.114 -53.225  1.00  0.00     0.151 C 
HETATM    8  N   UNL     1     -41.281  55.776 -53.711  1.00  0.00    -0.213 N 
HETATM    9  C   UNL     1     -41.356  55.619 -55.157  1.00  0.00     0.141 C 
HETATM   10  C   UNL     1     -42.481  56.524 -55.678  1.00  0.00     0.021 C 
HETATM   11  C   UNL     1     -42.406  57.954 -55.121  1.00  0.00     0.013 C 
HETATM   12  C   UNL     1     -41.982  59.462 -53.132  1.00  0.00     0.039 C 
HETATM   13  C   UNL     1     -41.951  59.641 -51.615  1.00  0.00     0.235 C 
ENDROOT
BRANCH   8  14
HETATM   14  C   UNL     1     -40.993  54.698 -52.908  1.00  0.00     0.724 A 
HETATM   15  N   UNL     1     -40.658  53.548 -53.515  1.00  0.00    -0.058 NA
HETATM   16  C   UNL     1     -40.278  52.492 -52.745  1.00  0.00     0.160 A 
HETATM   17  C   UNL     1     -40.250  52.569 -51.369  1.00  0.00     0.057 A 
HETATM   18  C   UNL     1     -40.607  53.779 -50.835  1.00  0.00     0.139 A 
HETATM   19  N   UNL     1     -40.963  54.842 -51.579  1.00  0.00    -0.075 NA
BRANCH  16  20
HETATM   20  C   UNL     1     -39.872  51.204 -53.435  1.00  0.00     0.435 C 
HETATM   21  F   UNL     1     -39.795  50.139 -52.578  1.00  0.00    -0.165 F 
HETATM   22  F   UNL     1     -40.748  50.826 -54.408  1.00  0.00    -0.165 F 
HETATM   23  F   UNL     1     -38.653  51.285 -54.036  1.00  0.00    -0.165 F 
ENDBRANCH  16  20
ENDBRANCH   8  14
TORSDOF 2
ENDMDL
MODEL 7
REMARK VINA RESULT:      -7.0      3.955      5.899
REMARK  2 active torsions:
REMARK  status: ('A' for Active; 'I' for Inactive)
REMARK    1  A    between atoms: N_8  and  C_9 
REMARK    2  A    between atoms: C_11  and  C_12 
ROOT
HETATM    1  C   UNL     1     -39.970  59.161 -51.134  1.00  0.00     0.269 C 
HETATM    2  N   UNL     1     -41.236  58.945 -51.918  1.00  0.00    -0.075 N 
HETATM    3  H   UNL     1     -41.690  59.869 -51.943  1.00  0.00     0.279 HD
HETATM    4  C   UNL     1     -40.996  58.592 -53.366  1.00  0.00     0.235 C 
HETATM    5  C   UNL     1     -40.564  57.138 -53.497  1.00  0.00     0.039 C 
HETATM    6  C   UNL     1     -41.580  56.146 -52.869  1.00  0.00    -0.021 C 
HETATM    7  C   UNL     1     -42.917  56.145 -53.654  1.00  0.00     0.151 C 
HETATM    8  N   UNL     1     -42.640  55.695 -55.003  1.00  0.00    -0.213 N 
HETATM    9  C   UNL     1     -42.211  54.311 -55.145  1.00  0.00     0.141 C 
HETATM   10  C   UNL     1     -40.922  54.124 -54.334  1.00  0.00     0.021 C 
HETATM   11  C   UNL     1     -41.022  54.694 -52.911  1.00  0.00     0.013 C 
HETATM   12  C   UNL     1     -41.817  56.564 -51.400  1.00  0.00     0.039 C 
HETATM   13  C   UNL     1     -42.220  58.029 -51.240  1.00  0.00     0.235 C 
ENDROOT
BRANCH   8  14
HETATM   14  C   UNL     1     -43.208  56.360 -56.063  1.00  0.00     0.724 A 
HETATM   15  N   UNL     1     -42.960  55.887 -57.294  1.00  0.00    -0.058 NA
HETATM   16  C   UNL     1     -43.585  56.467 -58.355  1.00  0.00     0.160 A 
HETATM   17  C   UNL     1     -44.442  57.536 -58.197  1.00  0.00     0.057 A 
HETATM   18  C   UNL     1     -44.637  57.954 -56.907  1.00  0.00     0.139 A 
HETATM   19  N   UNL     1     -44.047  57.378 -55.844  1.00  0.00    -0.075 NA
BRANCH  16  20
HETATM   20  C   UNL     1     -43.324  55.911 -59.741  1.00  0.00     0.435 C 
HETATM   21  F   UNL     1     -43.903  56.654 -60.734  1.00  0.00    -0.165 F 
HETATM   22  F   UNL     1     -41.998  55.860 -60.051  1.00  0.00    -0.165 F 
HETATM   23  F   UNL     1     -43.797  54.645 -59.902  1.00  0.00    -0.165 F 
ENDBRANCH  16  20
ENDBRANCH   8  14
TORSDOF 2
ENDMDL
MODEL 8
REMARK VINA RESULT:      -6.7     13.912     16.762
REMARK  2 active torsions:
REMARK  status: ('A' for Active; 'I' for Inactive)
REMARK    1  A    between atoms: N_8  and  C_9 
REMARK    2  A    between atoms: C_11  and  C_12 
ROOT
HETATM    1  C   UNL     1     -31.875  39.633 -50.087  1.00  0.00     0.269 C 
HETATM    2  N   UNL     1     -33.047  39.544 -51.027  1.00  0.00    -0.075 N 
HETATM    3  H   UNL     1     -33.874  39.685 -50.429  1.00  0.00     0.279 HD
HETATM    4  C   UNL     1     -33.100  40.668 -52.033  1.00  0.00     0.235 C 
HETATM    5  C   UNL     1     -32.082  40.441 -53.143  1.00  0.00     0.039 C 
HETATM    6  C   UNL     1     -32.263  39.077 -53.860  1.00  0.00    -0.021 C 
HETATM    7  C   UNL     1     -33.598  39.033 -54.649  1.00  0.00     0.151 C 
HETATM    8  N   UNL     1     -33.545  40.062 -55.668  1.00  0.00    -0.213 N 
HETATM    9  C   UNL     1     -32.566  39.868 -56.728  1.00  0.00     0.141 C 
HETATM   10  C   UNL     1     -31.173  39.797 -56.087  1.00  0.00     0.021 C 
HETATM   11  C   UNL     1     -31.116  38.843 -54.885  1.00  0.00     0.013 C 
HETATM   12  C   UNL     1     -32.233  37.961 -52.790  1.00  0.00     0.039 C 
HETATM   13  C   UNL     1     -33.223  38.184 -51.649  1.00  0.00     0.235 C 
ENDROOT
BRANCH   8  14
HETATM   14  C   UNL     1     -34.643  40.863 -55.871  1.00  0.00     0.724 A 
HETATM   15  N   UNL     1     -35.220  40.823 -57.083  1.00  0.00    -0.058 NA
HETATM   16  C   UNL     1     -36.363  41.533 -57.284  1.00  0.00     0.160 A 
HETATM   17  C   UNL     1     -36.925  42.304 -56.288  1.00  0.00     0.057 A 
HETATM   18  C   UNL     1     -36.270  42.286 -55.085  1.00  0.00     0.139 A 
HETATM   19  N   UNL     1     -35.153  41.572 -54.859  1.00  0.00    -0.075 NA
BRANCH  16  20
HETATM   20  C   UNL     1     -37.029  41.462 -58.645  1.00  0.00     0.435 C 
HETATM   21  F   UNL     1     -38.338  41.067 -58.581  1.00  0.00    -0.165 F 
HETATM   22  F   UNL     1     -37.041  42.662 -59.291  1.00  0.00    -0.165 F 
HETATM   23  F   UNL     1     -36.418  40.586 -59.489  1.00  0.00    -0.165 F 
ENDBRANCH  16  20
ENDBRANCH   8  14
TORSDOF 2
ENDMDL
MODEL 9
REMARK VINA RESULT:      -6.6      4.381      6.881
REMARK  2 active torsions:
REMARK  status: ('A' for Active; 'I' for Inactive)
REMARK    1  A    between atoms: N_8  and  C_9 
REMARK    2  A    between atoms: C_11  and  C_12 
ROOT
HETATM    1  C   UNL     1     -41.170  52.809 -53.865  1.00  0.00     0.269 C 
HETATM    2  N   UNL     1     -41.273  53.850 -54.948  1.00  0.00    -0.075 N 
HETATM    3  H   UNL     1     -40.889  53.393 -55.788  1.00  0.00     0.279 HD
HETATM    4  C   UNL     1     -42.695  54.201 -55.313  1.00  0.00     0.235 C 
HETATM    5  C   UNL     1     -43.308  55.113 -54.259  1.00  0.00     0.039 C 
HETATM    6  C   UNL     1     -42.483  56.407 -54.025  1.00  0.00    -0.021 C 
HETATM    7  C   UNL     1     -42.509  57.320 -55.278  1.00  0.00     0.151 C 
HETATM    8  N   UNL     1     -43.885  57.711 -55.515  1.00  0.00    -0.213 N 
HETATM    9  C   UNL     1     -44.491  58.571 -54.508  1.00  0.00     0.141 C 
HETATM   10  C   UNL     1     -44.457  57.832 -53.163  1.00  0.00     0.021 C 
HETATM   11  C   UNL     1     -43.079  57.229 -52.847  1.00  0.00     0.013 C 
HETATM   12  C   UNL     1     -41.031  55.999 -53.685  1.00  0.00     0.039 C 
HETATM   13  C   UNL     1     -40.406  55.058 -54.713  1.00  0.00     0.235 C 
ENDROOT
BRANCH   8  14
HETATM   14  C   UNL     1     -44.381  57.681 -56.795  1.00  0.00     0.724 A 
HETATM   15  N   UNL     1     -43.853  56.783 -57.642  1.00  0.00    -0.058 NA
HETATM   16  C   UNL     1     -44.389  56.667 -58.887  1.00  0.00     0.160 A 
HETATM   17  C   UNL     1     -45.438  57.460 -59.304  1.00  0.00     0.057 A 
HETATM   18  C   UNL     1     -45.914  58.348 -58.376  1.00  0.00     0.139 A 
HETATM   19  N   UNL     1     -45.413  58.461 -57.132  1.00  0.00    -0.075 NA
BRANCH  16  20
HETATM   20  C   UNL     1     -43.810  55.630 -59.831  1.00  0.00     0.435 C 
HETATM   21  F   UNL     1     -42.446  55.698 -59.928  1.00  0.00    -0.165 F 
HETATM   22  F   UNL     1     -44.084  54.352 -59.445  1.00  0.00    -0.165 F 
HETATM   23  F   UNL     1     -44.279  55.750 -61.103  1.00  0.00    -0.165 F 
ENDBRANCH  16  20
ENDBRANCH   8  14
TORSDOF 2
ENDMDL
MODEL 10
REMARK VINA RESULT:      -6.6      2.454      3.611
REMARK  2 active torsions:
REMARK  status: ('A' for Active; 'I' for Inactive)
REMARK    1  A    between atoms: N_8  and  C_9 
REMARK    2  A    between atoms: C_11  and  C_12 
ROOT
HETATM    1  C   UNL     1     -45.860  61.048 -50.389  1.00  0.00     0.269 C 
HETATM    2  N   UNL     1     -44.784  60.052 -50.051  1.00  0.00    -0.075 N 
HETATM    3  H   UNL     1     -45.065  59.662 -49.139  1.00  0.00     0.279 HD
HETATM    4  C   UNL     1     -44.745  58.866 -50.984  1.00  0.00     0.235 C 
HETATM    5  C   UNL     1     -44.095  59.248 -52.307  1.00  0.00     0.039 C 
HETATM    6  C   UNL     1     -42.669  59.835 -52.133  1.00  0.00    -0.021 C 
HETATM    7  C   UNL     1     -41.684  58.762 -51.602  1.00  0.00     0.151 C 
HETATM    8  N   UNL     1     -41.607  57.703 -52.588  1.00  0.00    -0.213 N 
HETATM    9  C   UNL     1     -41.002  58.056 -53.865  1.00  0.00     0.141 C 
HETATM   10  C   UNL     1     -41.824  59.193 -54.487  1.00  0.00     0.021 C 
HETATM   11  C   UNL     1     -42.114  60.333 -53.498  1.00  0.00     0.013 C 
HETATM   12  C   UNL     1     -42.754  61.024 -51.148  1.00  0.00     0.039 C 
HETATM   13  C   UNL     1     -43.432  60.673 -49.825  1.00  0.00     0.235 C 
ENDROOT
BRANCH   8  14
HETATM   14  C   UNL     1     -41.643  56.394 -52.173  1.00  0.00     0.724 A 
HETATM   15  N   UNL     1     -41.203  55.461 -53.032  1.00  0.00    -0.058 NA
HETATM   16  C   UNL     1     -41.139  54.168 -52.614  1.00  0.00     0.160 A 
HETATM   17  C   UNL     1     -41.533  53.794 -51.346  1.00  0.00     0.057 A 
HETATM   18  C   UNL     1     -41.967  54.810 -50.537  1.00  0.00     0.139 A 
HETATM   19  N   UNL     1     -42.016  56.097 -50.924  1.00  0.00    -0.075 NA
BRANCH  16  20
HETATM   20  C   UNL     1     -40.614  53.121 -53.578  1.00  0.00     0.435 C 
HETATM   21  F   UNL     1     -39.843  52.169 -52.967  1.00  0.00    -0.165 F 
HETATM   22  F   UNL     1     -41.609  52.434 -54.206  1.00  0.00    -0.165 F 
HETATM   23  F   UNL     1     -39.840  53.649 -54.564  1.00  0.00    -0.165 F 
ENDBRANCH  16  20
ENDBRANCH   8  14
TORSDOF 2
ENDMDL
