MODEL 1
REMARK VINA RESULT:      -7.9      0.000      0.000
REMARK  8 active torsions:
REMARK  status: ('A' for Active; 'I' for Inactive)
REMARK    1  A    between atoms: C_2  and  O_3 
REMARK    2  A    between atoms: O_3  and  C_4 
REMARK    3  A    between atoms: C_5  and  N_6 
REMARK       I    between atoms: N_6  and  C_7 
REMARK    4  A    between atoms: C_7  and  C_8 
REMARK    5  A    between atoms: N_11  and  C_12 
REMARK    6  A    between atoms: C_12  and  C_13 
REMARK       I    between atoms: C_13  and  N_14 
REMARK    7  A    between atoms: N_14  and  C_15 
REMARK    8  A    between atoms: C_24  and  N_25 
ROOT
HETATM    1  C   UNL     1     -43.490  56.169 -50.908  1.00  0.00     0.187 C 
HETATM    2  N   UNL     1     -43.923  54.930 -50.484  1.00  0.00    -0.150 NA
HETATM    3  N   UNL     1     -43.043  54.458 -49.611  1.00  0.00     0.007 NA
HETATM    4  N   UNL     1     -42.043  55.359 -49.528  1.00  0.00    -0.248 N 
HETATM    5  C   UNL     1     -42.330  56.502 -50.228  1.00  0.00     0.151 C 
ENDROOT
BRANCH   1   6
HETATM    6  C   UNL     1     -44.184  56.972 -51.894  1.00  0.00     0.280 C 
HETATM    7  N   UNL     1     -44.087  56.666 -53.234  1.00  0.00    -0.319 N 
HETATM    8  H   UNL     1     -44.866  57.043 -53.756  1.00  0.00     0.169 HD
HETATM    9  O   UNL     1     -44.939  57.892 -51.563  1.00  0.00    -0.265 OA
BRANCH   7  10
HETATM   10  C   UNL     1     -43.076  56.030 -53.987  1.00  0.00     0.068 A 
HETATM   11  C   UNL     1     -41.734  56.427 -54.081  1.00  0.00     0.095 A 
HETATM   12  C   UNL     1     -40.825  55.703 -54.864  1.00  0.00     0.039 A 
HETATM   13  C   UNL     1     -41.255  54.615 -55.617  1.00  0.00     0.003 A 
HETATM   14  C   UNL     1     -42.594  54.245 -55.585  1.00  0.00     0.002 A 
HETATM   15  C   UNL     1     -43.497  54.950 -54.779  1.00  0.00     0.032 A 
BRANCH  11  16
HETATM   16  O   UNL     1     -41.233  57.534 -53.456  1.00  0.00    -0.349 OA
BRANCH  16  17
HETATM   17  C   UNL     1     -41.543  58.735 -54.172  1.00  0.00     0.171 C 
HETATM   18  C   UNL     1     -41.774  59.832 -53.148  1.00  0.00     0.034 C 
ENDBRANCH  16  17
ENDBRANCH  11  16
ENDBRANCH   7  10
ENDBRANCH   1   6
BRANCH   5  19
HETATM   19  N   UNL     1     -41.534  57.600 -50.240  1.00  0.00    -0.382 N 
HETATM   20  H   UNL     1     -41.295  58.112 -49.385  1.00  0.00     0.157 HD
HETATM   21  H   UNL     1     -41.583  58.222 -51.049  1.00  0.00     0.157 HD
ENDBRANCH   5  19
BRANCH   4  22
HETATM   22  C   UNL     1     -40.804  54.974 -48.902  1.00  0.00     0.251 C 
BRANCH  22  23
HETATM   23  C   UNL     1     -39.971  54.095 -49.798  1.00  0.00     0.241 C 
HETATM   24  N   UNL     1     -40.644  52.977 -50.259  1.00  0.00    -0.326 N 
HETATM   25  H   UNL     1     -41.464  52.681 -49.740  1.00  0.00     0.169 HD
HETATM   26  O   UNL     1     -38.808  54.393 -50.063  1.00  0.00    -0.271 OA
BRANCH  24  27
HETATM   27  C   UNL     1     -40.251  52.153 -51.335  1.00  0.00     0.037 A 
HETATM   28  C   UNL     1     -40.276  52.567 -52.666  1.00  0.00     0.072 A 
HETATM   29  C   UNL     1     -39.955  51.667 -53.682  1.00  0.00     0.124 A 
HETATM   30  F   UNL     1     -40.029  52.081 -54.955  1.00  0.00    -0.205 F 
HETATM   31  C   UNL     1     -39.583  50.351 -53.401  1.00  0.00    -0.023 A 
HETATM   32  C   UNL     1     -39.295  49.385 -54.508  1.00  0.00     0.051 C 
HETATM   33  C   UNL     1     -39.557  49.938 -52.066  1.00  0.00     0.012 A 
HETATM   34  C   UNL     1     -39.891  50.831 -51.041  1.00  0.00     0.030 A 
ENDBRANCH  24  27
ENDBRANCH  22  23
ENDBRANCH   4  22
TORSDOF 8
ENDMDL
MODEL 2
REMARK VINA RESULT:      -7.8      2.403      4.505
REMARK  8 active torsions:
REMARK  status: ('A' for Active; 'I' for Inactive)
REMARK    1  A    between atoms: C_2  and  O_3 
REMARK    2  A    between atoms: O_3  and  C_4 
REMARK    3  A    between atoms: C_5  and  N_6 
REMARK       I    between atoms: N_6  and  C_7 
REMARK    4  A    between atoms: C_7  and  C_8 
REMARK    5  A    between atoms: N_11  and  C_12 
REMARK    6  A    between atoms: C_12  and  C_13 
REMARK       I    between atoms: C_13  and  N_14 
REMARK    7  A    between atoms: N_14  and  C_15 
REMARK    8  A    between atoms: C_24  and  N_25 
ROOT
HETATM    1  C   UNL     1     -43.596  58.214 -53.953  1.00  0.00     0.187 C 
HETATM    2  N   UNL     1     -42.418  58.740 -54.439  1.00  0.00    -0.150 NA
HETATM    3  N   UNL     1     -42.047  58.026 -55.493  1.00  0.00     0.007 NA
HETATM    4  N   UNL     1     -42.945  57.032 -55.636  1.00  0.00    -0.248 N 
HETATM    5  C   UNL     1     -44.001  57.173 -54.772  1.00  0.00     0.151 C 
ENDROOT
BRANCH   1   6
HETATM    6  C   UNL     1     -44.283  58.719 -52.781  1.00  0.00     0.280 C 
HETATM    7  N   UNL     1     -43.806  58.435 -51.519  1.00  0.00    -0.319 N 
HETATM    8  H   UNL     1     -44.130  59.110 -50.841  1.00  0.00     0.169 HD
HETATM    9  O   UNL     1     -45.254  59.475 -52.876  1.00  0.00    -0.265 OA
BRANCH   7  10
HETATM   10  C   UNL     1     -43.057  57.349 -51.015  1.00  0.00     0.068 A 
HETATM   11  C   UNL     1     -41.662  57.296 -50.869  1.00  0.00     0.095 A 
HETATM   12  C   UNL     1     -41.038  56.154 -50.349  1.00  0.00     0.039 A 
HETATM   13  C   UNL     1     -41.787  55.025 -50.032  1.00  0.00     0.003 A 
HETATM   14  C   UNL     1     -43.164  55.038 -50.228  1.00  0.00     0.002 A 
HETATM   15  C   UNL     1     -43.791  56.190 -50.719  1.00  0.00     0.032 A 
BRANCH  11  16
HETATM   16  O   UNL     1     -40.830  58.315 -51.238  1.00  0.00    -0.349 OA
BRANCH  16  17
HETATM   17  C   UNL     1     -40.594  59.226 -50.160  1.00  0.00     0.171 C 
HETATM   18  C   UNL     1     -39.182  59.764 -50.314  1.00  0.00     0.034 C 
ENDBRANCH  16  17
ENDBRANCH  11  16
ENDBRANCH   7  10
ENDBRANCH   1   6
BRANCH   5  19
HETATM   19  N   UNL     1     -45.086  56.359 -54.765  1.00  0.00    -0.382 N 
HETATM   20  H   UNL     1     -45.670  56.234 -53.932  1.00  0.00     0.157 HD
HETATM   21  H   UNL     1     -45.057  55.511 -55.334  1.00  0.00     0.157 HD
ENDBRANCH   5  19
BRANCH   4  22
HETATM   22  C   UNL     1     -42.631  55.921 -56.497  1.00  0.00     0.251 C 
BRANCH  22  23
HETATM   23  C   UNL     1     -42.415  54.649 -55.718  1.00  0.00     0.241 C 
HETATM   24  N   UNL     1     -41.084  54.386 -55.443  1.00  0.00    -0.326 N 
HETATM   25  H   UNL     1     -40.389  54.848 -56.023  1.00  0.00     0.169 HD
HETATM   26  O   UNL     1     -43.369  53.951 -55.381  1.00  0.00    -0.271 OA
BRANCH  24  27
HETATM   27  C   UNL     1     -40.595  53.468 -54.491  1.00  0.00     0.037 A 
HETATM   28  C   UNL     1     -40.185  52.174 -54.814  1.00  0.00     0.072 A 
HETATM   29  C   UNL     1     -39.795  51.295 -53.805  1.00  0.00     0.124 A 
HETATM   30  F   UNL     1     -39.447  50.044 -54.141  1.00  0.00    -0.205 F 
HETATM   31  C   UNL     1     -39.781  51.682 -52.464  1.00  0.00    -0.023 A 
HETATM   32  C   UNL     1     -39.410  50.706 -51.390  1.00  0.00     0.051 C 
HETATM   33  C   UNL     1     -40.190  52.979 -52.142  1.00  0.00     0.012 A 
HETATM   34  C   UNL     1     -40.596  53.864 -53.147  1.00  0.00     0.030 A 
ENDBRANCH  24  27
ENDBRANCH  22  23
ENDBRANCH   4  22
TORSDOF 8
ENDMDL
MODEL 3
REMARK VINA RESULT:      -7.5      2.614      3.869
REMARK  8 active torsions:
REMARK  status: ('A' for Active; 'I' for Inactive)
REMARK    1  A    between atoms: C_2  and  O_3 
REMARK    2  A    between atoms: O_3  and  C_4 
REMARK    3  A    between atoms: C_5  and  N_6 
REMARK       I    between atoms: N_6  and  C_7 
REMARK    4  A    between atoms: C_7  and  C_8 
REMARK    5  A    between atoms: N_11  and  C_12 
REMARK    6  A    between atoms: C_12  and  C_13 
REMARK       I    between atoms: C_13  and  N_14 
REMARK    7  A    between atoms: N_14  and  C_15 
REMARK    8  A    between atoms: C_24  and  N_25 
ROOT
HETATM    1  C   UNL     1     -41.953  59.611 -53.099  1.00  0.00     0.187 C 
HETATM    2  N   UNL     1     -40.598  59.375 -53.206  1.00  0.00    -0.150 NA
HETATM    3  N   UNL     1     -40.305  58.302 -52.485  1.00  0.00     0.007 NA
HETATM    4  N   UNL     1     -41.444  57.900 -51.887  1.00  0.00    -0.248 N 
HETATM    5  C   UNL     1     -42.529  58.612 -52.331  1.00  0.00     0.151 C 
ENDROOT
BRANCH   1   6
HETATM    6  C   UNL     1     -42.630  60.727 -53.727  1.00  0.00     0.280 C 
HETATM    7  N   UNL     1     -43.151  60.599 -54.997  1.00  0.00    -0.319 N 
HETATM    8  H   UNL     1     -43.880  61.278 -55.167  1.00  0.00     0.169 HD
HETATM    9  O   UNL     1     -42.830  61.785 -53.123  1.00  0.00    -0.265 OA
BRANCH   7  10
HETATM   10  C   UNL     1     -42.786  59.784 -56.090  1.00  0.00     0.068 A 
HETATM   11  C   UNL     1     -42.989  58.400 -56.201  1.00  0.00     0.095 A 
HETATM   12  C   UNL     1     -42.581  57.704 -57.347  1.00  0.00     0.039 A 
HETATM   13  C   UNL     1     -41.905  58.365 -58.368  1.00  0.00     0.003 A 
HETATM   14  C   UNL     1     -41.641  59.725 -58.248  1.00  0.00     0.002 A 
HETATM   15  C   UNL     1     -42.075  60.426 -57.116  1.00  0.00     0.032 A 
BRANCH  11  16
HETATM   16  O   UNL     1     -43.558  57.643 -55.215  1.00  0.00    -0.349 OA
BRANCH  16  17
HETATM   17  C   UNL     1     -42.810  56.449 -54.962  1.00  0.00     0.171 C 
HETATM   18  C   UNL     1     -43.772  55.417 -54.399  1.00  0.00     0.034 C 
ENDBRANCH  16  17
ENDBRANCH  11  16
ENDBRANCH   7  10
ENDBRANCH   1   6
BRANCH   5  19
HETATM   19  N   UNL     1     -43.807  58.354 -51.957  1.00  0.00    -0.382 N 
HETATM   20  H   UNL     1     -44.322  57.537 -52.299  1.00  0.00     0.157 HD
HETATM   21  H   UNL     1     -44.429  59.146 -51.787  1.00  0.00     0.157 HD
ENDBRANCH   5  19
BRANCH   4  22
HETATM   22  C   UNL     1     -41.371  56.955 -50.803  1.00  0.00     0.251 C 
BRANCH  22  23
HETATM   23  C   UNL     1     -41.606  55.542 -51.272  1.00  0.00     0.241 C 
HETATM   24  N   UNL     1     -40.702  55.120 -52.232  1.00  0.00    -0.326 N 
HETATM   25  H   UNL     1     -40.202  55.837 -52.748  1.00  0.00     0.169 HD
HETATM   26  O   UNL     1     -42.527  54.872 -50.809  1.00  0.00    -0.271 OA
BRANCH  24  27
HETATM   27  C   UNL     1     -40.470  53.786 -52.628  1.00  0.00     0.037 A 
HETATM   28  C   UNL     1     -39.965  52.809 -51.771  1.00  0.00     0.072 A 
HETATM   29  C   UNL     1     -39.681  51.534 -52.258  1.00  0.00     0.124 A 
HETATM   30  F   UNL     1     -39.156  50.628 -51.420  1.00  0.00    -0.205 F 
HETATM   31  C   UNL     1     -39.910  51.194 -53.592  1.00  0.00    -0.023 A 
HETATM   32  C   UNL     1     -39.547  49.836 -54.108  1.00  0.00     0.051 C 
HETATM   33  C   UNL     1     -40.417  52.174 -54.450  1.00  0.00     0.012 A 
HETATM   34  C   UNL     1     -40.693  53.460 -53.973  1.00  0.00     0.030 A 
ENDBRANCH  24  27
ENDBRANCH  22  23
ENDBRANCH   4  22
TORSDOF 8
ENDMDL
MODEL 4
REMARK VINA RESULT:      -7.5      3.228      4.187
REMARK  8 active torsions:
REMARK  status: ('A' for Active; 'I' for Inactive)
REMARK    1  A    between atoms: C_2  and  O_3 
REMARK    2  A    between atoms: O_3  and  C_4 
REMARK    3  A    between atoms: C_5  and  N_6 
REMARK       I    between atoms: N_6  and  C_7 
REMARK    4  A    between atoms: C_7  and  C_8 
REMARK    5  A    between atoms: N_11  and  C_12 
REMARK    6  A    between atoms: C_12  and  C_13 
REMARK       I    between atoms: C_13  and  N_14 
REMARK    7  A    between atoms: N_14  and  C_15 
REMARK    8  A    between atoms: C_24  and  N_25 
ROOT
HETATM    1  C   UNL     1     -42.163  59.708 -53.619  1.00  0.00     0.187 C 
HETATM    2  N   UNL     1     -40.806  59.459 -53.602  1.00  0.00    -0.150 NA
HETATM    3  N   UNL     1     -40.589  58.393 -52.844  1.00  0.00     0.007 NA
HETATM    4  N   UNL     1     -41.781  58.009 -52.346  1.00  0.00    -0.248 N 
HETATM    5  C   UNL     1     -42.814  58.725 -52.894  1.00  0.00     0.151 C 
ENDROOT
BRANCH   1   6
HETATM    6  C   UNL     1     -42.770  60.822 -54.320  1.00  0.00     0.280 C 
HETATM    7  N   UNL     1     -43.358  60.631 -55.553  1.00  0.00    -0.319 N 
HETATM    8  H   UNL     1     -44.032  61.355 -55.755  1.00  0.00     0.169 HD
HETATM    9  O   UNL     1     -42.851  61.941 -53.807  1.00  0.00    -0.265 OA
BRANCH   7  10
HETATM   10  C   UNL     1     -43.114  59.695 -56.581  1.00  0.00     0.068 A 
HETATM   11  C   UNL     1     -42.021  59.690 -57.461  1.00  0.00     0.095 A 
HETATM   12  C   UNL     1     -41.893  58.696 -58.441  1.00  0.00     0.039 A 
HETATM   13  C   UNL     1     -42.886  57.734 -58.602  1.00  0.00     0.003 A 
HETATM   14  C   UNL     1     -44.006  57.761 -57.779  1.00  0.00     0.002 A 
HETATM   15  C   UNL     1     -44.119  58.736 -56.780  1.00  0.00     0.032 A 
BRANCH  11  16
HETATM   16  O   UNL     1     -41.042  60.643 -57.447  1.00  0.00    -0.349 OA
BRANCH  16  17
HETATM   17  C   UNL     1     -41.398  61.784 -58.235  1.00  0.00     0.171 C 
HETATM   18  C   UNL     1     -40.131  62.298 -58.896  1.00  0.00     0.034 C 
ENDBRANCH  16  17
ENDBRANCH  11  16
ENDBRANCH   7  10
ENDBRANCH   1   6
BRANCH   5  19
HETATM   19  N   UNL     1     -44.123  58.483 -52.632  1.00  0.00    -0.382 N 
HETATM   20  H   UNL     1     -44.870  59.101 -52.963  1.00  0.00     0.157 HD
HETATM   21  H   UNL     1     -44.364  58.047 -51.740  1.00  0.00     0.157 HD
ENDBRANCH   5  19
BRANCH   4  22
HETATM   22  C   UNL     1     -41.814  57.079 -51.247  1.00  0.00     0.251 C 
BRANCH  22  23
HETATM   23  C   UNL     1     -41.962  55.656 -51.721  1.00  0.00     0.241 C 
HETATM   24  N   UNL     1     -40.906  55.219 -52.503  1.00  0.00    -0.326 N 
HETATM   25  H   UNL     1     -40.326  55.929 -52.940  1.00  0.00     0.169 HD
HETATM   26  O   UNL     1     -42.947  54.990 -51.409  1.00  0.00    -0.271 OA
BRANCH  24  27
HETATM   27  C   UNL     1     -40.607  53.879 -52.827  1.00  0.00     0.037 A 
HETATM   28  C   UNL     1     -40.051  52.978 -51.919  1.00  0.00     0.072 A 
HETATM   29  C   UNL     1     -39.703  51.695 -52.336  1.00  0.00     0.124 A 
HETATM   30  F   UNL     1     -39.130  50.864 -51.453  1.00  0.00    -0.205 F 
HETATM   31  C   UNL     1     -39.917  51.270 -53.649  1.00  0.00    -0.023 A 
HETATM   32  C   UNL     1     -39.487  49.906 -54.091  1.00  0.00     0.051 C 
HETATM   33  C   UNL     1     -40.476  52.174 -54.557  1.00  0.00     0.012 A 
HETATM   34  C   UNL     1     -40.816  53.469 -54.150  1.00  0.00     0.030 A 
ENDBRANCH  24  27
ENDBRANCH  22  23
ENDBRANCH   4  22
TORSDOF 8
ENDMDL
MODEL 5
REMARK VINA RESULT:      -7.5      2.810      5.140
REMARK  8 active torsions:
REMARK  status: ('A' for Active; 'I' for Inactive)
REMARK    1  A    between atoms: C_2  and  O_3 
REMARK    2  A    between atoms: O_3  and  C_4 
REMARK    3  A    between atoms: C_5  and  N_6 
REMARK       I    between atoms: N_6  and  C_7 
REMARK    4  A    between atoms: C_7  and  C_8 
REMARK    5  A    between atoms: N_11  and  C_12 
REMARK    6  A    between atoms: C_12  and  C_13 
REMARK       I    between atoms: C_13  and  N_14 
REMARK    7  A    between atoms: N_14  and  C_15 
REMARK    8  A    between atoms: C_24  and  N_25 
ROOT
HETATM    1  C   UNL     1     -43.738  58.683 -54.313  1.00  0.00     0.187 C 
HETATM    2  N   UNL     1     -42.522  59.160 -54.754  1.00  0.00    -0.150 NA
HETATM    3  N   UNL     1     -42.146  58.436 -55.800  1.00  0.00     0.007 NA
HETATM    4  N   UNL     1     -43.081  57.483 -55.981  1.00  0.00    -0.248 N 
HETATM    5  C   UNL     1     -44.159  57.665 -55.154  1.00  0.00     0.151 C 
ENDROOT
BRANCH   1   6
HETATM    6  C   UNL     1     -44.442  59.210 -53.162  1.00  0.00     0.280 C 
HETATM    7  N   UNL     1     -43.758  59.506 -52.003  1.00  0.00    -0.319 N 
HETATM    8  H   UNL     1     -44.261  60.175 -51.438  1.00  0.00     0.169 HD
HETATM    9  O   UNL     1     -45.646  59.483 -53.210  1.00  0.00    -0.265 OA
BRANCH   7  10
HETATM   10  C   UNL     1     -42.572  58.978 -51.445  1.00  0.00     0.068 A 
HETATM   11  C   UNL     1     -42.305  57.626 -51.182  1.00  0.00     0.095 A 
HETATM   12  C   UNL     1     -41.081  57.231 -50.627  1.00  0.00     0.039 A 
HETATM   13  C   UNL     1     -40.134  58.183 -50.263  1.00  0.00     0.003 A 
HETATM   14  C   UNL     1     -40.407  59.532 -50.459  1.00  0.00     0.002 A 
HETATM   15  C   UNL     1     -41.618  59.925 -51.041  1.00  0.00     0.032 A 
BRANCH  11  16
HETATM   16  O   UNL     1     -43.205  56.624 -51.417  1.00  0.00    -0.349 OA
BRANCH  16  17
HETATM   17  C   UNL     1     -43.148  55.612 -50.406  1.00  0.00     0.171 C 
HETATM   18  C   UNL     1     -43.878  54.391 -50.940  1.00  0.00     0.034 C 
ENDBRANCH  16  17
ENDBRANCH  11  16
ENDBRANCH   7  10
ENDBRANCH   1   6
BRANCH   5  19
HETATM   19  N   UNL     1     -45.278  56.899 -55.190  1.00  0.00    -0.382 N 
HETATM   20  H   UNL     1     -45.303  55.950 -54.805  1.00  0.00     0.157 HD
HETATM   21  H   UNL     1     -45.902  56.996 -55.993  1.00  0.00     0.157 HD
ENDBRANCH   5  19
BRANCH   4  22
HETATM   22  C   UNL     1     -42.785  56.364 -56.839  1.00  0.00     0.251 C 
BRANCH  22  23
HETATM   23  C   UNL     1     -42.516  55.108 -56.052  1.00  0.00     0.241 C 
HETATM   24  N   UNL     1     -41.215  55.011 -55.588  1.00  0.00    -0.326 N 
HETATM   25  H   UNL     1     -40.512  55.578 -56.053  1.00  0.00     0.169 HD
HETATM   26  O   UNL     1     -43.407  54.281 -55.867  1.00  0.00    -0.271 OA
BRANCH  24  27
HETATM   27  C   UNL     1     -40.751  54.135 -54.585  1.00  0.00     0.037 A 
HETATM   28  C   UNL     1     -40.225  52.872 -54.855  1.00  0.00     0.072 A 
HETATM   29  C   UNL     1     -39.866  52.028 -53.805  1.00  0.00     0.124 A 
HETATM   30  F   UNL     1     -39.402  50.803 -54.094  1.00  0.00    -0.205 F 
HETATM   31  C   UNL     1     -39.999  52.422 -52.473  1.00  0.00    -0.023 A 
HETATM   32  C   UNL     1     -39.659  51.481 -51.359  1.00  0.00     0.051 C 
HETATM   33  C   UNL     1     -40.525  53.689 -52.204  1.00  0.00     0.012 A 
HETATM   34  C   UNL     1     -40.901  54.537 -53.252  1.00  0.00     0.030 A 
ENDBRANCH  24  27
ENDBRANCH  22  23
ENDBRANCH   4  22
TORSDOF 8
ENDMDL
MODEL 6
REMARK VINA RESULT:      -7.4      2.615      6.304
REMARK  8 active torsions:
REMARK  status: ('A' for Active; 'I' for Inactive)
REMARK    1  A    between atoms: C_2  and  O_3 
REMARK    2  A    between atoms: O_3  and  C_4 
REMARK    3  A    between atoms: C_5  and  N_6 
REMARK       I    between atoms: N_6  and  C_7 
REMARK    4  A    between atoms: C_7  and  C_8 
REMARK    5  A    between atoms: N_11  and  C_12 
REMARK    6  A    between atoms: C_12  and  C_13 
REMARK       I    between atoms: C_13  and  N_14 
REMARK    7  A    between atoms: N_14  and  C_15 
REMARK    8  A    between atoms: C_24  and  N_25 
ROOT
HETATM    1  C   UNL     1     -42.985  56.122 -51.093  1.00  0.00     0.187 C 
HETATM    2  N   UNL     1     -41.669  56.526 -50.998  1.00  0.00    -0.150 NA
HETATM    3  N   UNL     1     -41.615  57.828 -51.241  1.00  0.00     0.007 NA
HETATM    4  N   UNL     1     -42.867  58.229 -51.541  1.00  0.00    -0.248 N 
HETATM    5  C   UNL     1     -43.782  57.227 -51.346  1.00  0.00     0.151 C 
ENDROOT
BRANCH   1   6
HETATM    6  C   UNL     1     -43.423  54.751 -50.923  1.00  0.00     0.280 C 
HETATM    7  N   UNL     1     -42.739  53.721 -51.533  1.00  0.00    -0.319 N 
HETATM    8  H   UNL     1     -42.904  52.842 -51.065  1.00  0.00     0.169 HD
HETATM    9  O   UNL     1     -44.358  54.461 -50.171  1.00  0.00    -0.265 OA
BRANCH   7  10
HETATM   10  C   UNL     1     -41.963  53.671 -52.712  1.00  0.00     0.068 A 
HETATM   11  C   UNL     1     -40.665  53.153 -52.833  1.00  0.00     0.095 A 
HETATM   12  C   UNL     1     -40.002  53.158 -54.067  1.00  0.00     0.039 A 
HETATM   13  C   UNL     1     -40.596  53.741 -55.182  1.00  0.00     0.003 A 
HETATM   14  C   UNL     1     -41.857  54.314 -55.066  1.00  0.00     0.002 A 
HETATM   15  C   UNL     1     -42.533  54.282 -53.840  1.00  0.00     0.032 A 
BRANCH  11  16
HETATM   16  O   UNL     1     -39.959  52.644 -51.779  1.00  0.00    -0.349 OA
BRANCH  16  17
HETATM   17  C   UNL     1     -39.416  51.353 -52.076  1.00  0.00     0.171 C 
HETATM   18  C   UNL     1     -39.753  50.436 -50.914  1.00  0.00     0.034 C 
ENDBRANCH  16  17
ENDBRANCH  11  16
ENDBRANCH   7  10
ENDBRANCH   1   6
BRANCH   5  19
HETATM   19  N   UNL     1     -45.121  57.387 -51.489  1.00  0.00    -0.382 N 
HETATM   20  H   UNL     1     -45.664  56.858 -52.179  1.00  0.00     0.157 HD
HETATM   21  H   UNL     1     -45.515  58.317 -51.334  1.00  0.00     0.157 HD
ENDBRANCH   5  19
BRANCH   4  22
HETATM   22  C   UNL     1     -43.062  59.519 -52.152  1.00  0.00     0.251 C 
BRANCH  22  23
HETATM   23  C   UNL     1     -43.424  59.401 -53.610  1.00  0.00     0.241 C 
HETATM   24  N   UNL     1     -42.326  59.358 -54.452  1.00  0.00    -0.326 N 
HETATM   25  H   UNL     1     -41.447  59.714 -54.089  1.00  0.00     0.169 HD
HETATM   26  O   UNL     1     -44.601  59.349 -53.961  1.00  0.00    -0.271 OA
BRANCH  24  27
HETATM   27  C   UNL     1     -42.327  58.945 -55.801  1.00  0.00     0.037 A 
HETATM   28  C   UNL     1     -42.568  57.631 -56.200  1.00  0.00     0.072 A 
HETATM   29  C   UNL     1     -42.467  57.282 -57.546  1.00  0.00     0.124 A 
HETATM   30  F   UNL     1     -42.663  56.002 -57.895  1.00  0.00    -0.205 F 
HETATM   31  C   UNL     1     -42.148  58.226 -58.523  1.00  0.00    -0.023 A 
HETATM   32  C   UNL     1     -41.990  57.820 -59.956  1.00  0.00     0.051 C 
HETATM   33  C   UNL     1     -41.908  59.543 -58.122  1.00  0.00     0.012 A 
HETATM   34  C   UNL     1     -41.994  59.899 -56.771  1.00  0.00     0.030 A 
ENDBRANCH  24  27
ENDBRANCH  22  23
ENDBRANCH   4  22
TORSDOF 8
ENDMDL
MODEL 7
REMARK VINA RESULT:      -7.3      2.875      6.545
REMARK  8 active torsions:
REMARK  status: ('A' for Active; 'I' for Inactive)
REMARK    1  A    between atoms: C_2  and  O_3 
REMARK    2  A    between atoms: O_3  and  C_4 
REMARK    3  A    between atoms: C_5  and  N_6 
REMARK       I    between atoms: N_6  and  C_7 
REMARK    4  A    between atoms: C_7  and  C_8 
REMARK    5  A    between atoms: N_11  and  C_12 
REMARK    6  A    between atoms: C_12  and  C_13 
REMARK       I    between atoms: C_13  and  N_14 
REMARK    7  A    between atoms: N_14  and  C_15 
REMARK    8  A    between atoms: C_24  and  N_25 
ROOT
HETATM    1  C   UNL     1     -42.022  54.337 -50.870  1.00  0.00     0.187 C 
HETATM    2  N   UNL     1     -42.994  53.550 -51.451  1.00  0.00    -0.150 NA
HETATM    3  N   UNL     1     -43.596  54.260 -52.395  1.00  0.00     0.007 NA
HETATM    4  N   UNL     1     -43.052  55.493 -52.372  1.00  0.00    -0.248 N 
HETATM    5  C   UNL     1     -41.981  55.561 -51.518  1.00  0.00     0.151 C 
ENDROOT
BRANCH   1   6
HETATM    6  C   UNL     1     -41.183  53.904 -49.771  1.00  0.00     0.280 C 
HETATM    7  N   UNL     1     -40.160  53.005 -49.989  1.00  0.00    -0.319 N 
HETATM    8  H   UNL     1     -39.456  53.066 -49.268  1.00  0.00     0.169 HD
HETATM    9  O   UNL     1     -41.302  54.382 -48.639  1.00  0.00    -0.265 OA
BRANCH   7  10
HETATM   10  C   UNL     1     -39.988  51.986 -50.951  1.00  0.00     0.068 A 
HETATM   11  C   UNL     1     -39.852  52.163 -52.337  1.00  0.00     0.095 A 
HETATM   12  C   UNL     1     -39.682  51.062 -53.187  1.00  0.00     0.039 A 
HETATM   13  C   UNL     1     -39.714  49.768 -52.678  1.00  0.00     0.003 A 
HETATM   14  C   UNL     1     -39.910  49.571 -51.315  1.00  0.00     0.002 A 
HETATM   15  C   UNL     1     -40.049  50.672 -50.461  1.00  0.00     0.032 A 
BRANCH  11  16
HETATM   16  O   UNL     1     -39.902  53.385 -52.945  1.00  0.00    -0.349 OA
BRANCH  16  17
HETATM   17  C   UNL     1     -40.551  53.319 -54.220  1.00  0.00     0.171 C 
HETATM   18  C   UNL     1     -40.129  54.543 -55.013  1.00  0.00     0.034 C 
ENDBRANCH  16  17
ENDBRANCH  11  16
ENDBRANCH   7  10
ENDBRANCH   1   6
BRANCH   5  19
HETATM   19  N   UNL     1     -41.201  56.660 -51.371  1.00  0.00    -0.382 N 
HETATM   20  H   UNL     1     -41.591  57.583 -51.158  1.00  0.00     0.157 HD
HETATM   21  H   UNL     1     -40.355  56.731 -51.940  1.00  0.00     0.157 HD
ENDBRANCH   5  19
BRANCH   4  22
HETATM   22  C   UNL     1     -43.718  56.566 -53.067  1.00  0.00     0.251 C 
BRANCH  22  23
HETATM   23  C   UNL     1     -43.052  56.882 -54.381  1.00  0.00     0.241 C 
HETATM   24  N   UNL     1     -43.800  56.509 -55.485  1.00  0.00    -0.326 N 
HETATM   25  H   UNL     1     -44.523  55.810 -55.343  1.00  0.00     0.169 HD
HETATM   26  O   UNL     1     -41.949  57.423 -54.411  1.00  0.00    -0.271 OA
BRANCH  24  27
HETATM   27  C   UNL     1     -43.598  56.942 -56.812  1.00  0.00     0.037 A 
HETATM   28  C   UNL     1     -42.994  56.154 -57.792  1.00  0.00     0.072 A 
HETATM   29  C   UNL     1     -42.752  56.682 -59.059  1.00  0.00     0.124 A 
HETATM   30  F   UNL     1     -42.130  55.916 -59.967  1.00  0.00    -0.205 F 
HETATM   31  C   UNL     1     -43.120  57.988 -59.389  1.00  0.00    -0.023 A 
HETATM   32  C   UNL     1     -42.802  58.554 -60.739  1.00  0.00     0.051 C 
HETATM   33  C   UNL     1     -43.728  58.775 -58.407  1.00  0.00     0.012 A 
HETATM   34  C   UNL     1     -43.962  58.258 -57.128  1.00  0.00     0.030 A 
ENDBRANCH  24  27
ENDBRANCH  22  23
ENDBRANCH   4  22
TORSDOF 8
ENDMDL
MODEL 8
REMARK VINA RESULT:      -7.0      3.029      6.234
REMARK  8 active torsions:
REMARK  status: ('A' for Active; 'I' for Inactive)
REMARK    1  A    between atoms: C_2  and  O_3 
REMARK    2  A    between atoms: O_3  and  C_4 
REMARK    3  A    between atoms: C_5  and  N_6 
REMARK       I    between atoms: N_6  and  C_7 
REMARK    4  A    between atoms: C_7  and  C_8 
REMARK    5  A    between atoms: N_11  and  C_12 
REMARK    6  A    between atoms: C_12  and  C_13 
REMARK       I    between atoms: C_13  and  N_14 
REMARK    7  A    between atoms: N_14  and  C_15 
REMARK    8  A    between atoms: C_24  and  N_25 
ROOT
HETATM    1  C   UNL     1     -43.238  57.800 -51.817  1.00  0.00     0.187 C 
HETATM    2  N   UNL     1     -41.860  57.850 -51.809  1.00  0.00    -0.150 NA
HETATM    3  N   UNL     1     -41.480  58.957 -52.433  1.00  0.00     0.007 NA
HETATM    4  N   UNL     1     -42.597  59.567 -52.877  1.00  0.00    -0.248 N 
HETATM    5  C   UNL     1     -43.731  58.948 -52.416  1.00  0.00     0.151 C 
ENDROOT
BRANCH   1   6
HETATM    6  C   UNL     1     -44.009  56.710 -51.255  1.00  0.00     0.280 C 
HETATM    7  N   UNL     1     -43.553  55.413 -51.349  1.00  0.00    -0.319 N 
HETATM    8  H   UNL     1     -43.963  54.825 -50.638  1.00  0.00     0.169 HD
HETATM    9  O   UNL     1     -45.043  56.915 -50.611  1.00  0.00    -0.265 OA
BRANCH   7  10
HETATM   10  C   UNL     1     -42.723  54.770 -52.294  1.00  0.00     0.068 A 
HETATM   11  C   UNL     1     -41.384  54.396 -52.108  1.00  0.00     0.095 A 
HETATM   12  C   UNL     1     -40.669  53.757 -53.130  1.00  0.00     0.039 A 
HETATM   13  C   UNL     1     -41.257  53.543 -54.373  1.00  0.00     0.003 A 
HETATM   14  C   UNL     1     -42.564  53.963 -54.594  1.00  0.00     0.002 A 
HETATM   15  C   UNL     1     -43.288  54.575 -53.564  1.00  0.00     0.032 A 
BRANCH  11  16
HETATM   16  O   UNL     1     -40.687  54.645 -50.959  1.00  0.00    -0.349 OA
BRANCH  16  17
HETATM   17  C   UNL     1     -40.499  53.457 -50.183  1.00  0.00     0.171 C 
HETATM   18  C   UNL     1     -40.624  53.840 -48.719  1.00  0.00     0.034 C 
ENDBRANCH  16  17
ENDBRANCH  11  16
ENDBRANCH   7  10
ENDBRANCH   1   6
BRANCH   5  19
HETATM   19  N   UNL     1     -44.987  59.407 -52.641  1.00  0.00    -0.382 N 
HETATM   20  H   UNL     1     -45.343  59.585 -53.586  1.00  0.00     0.157 HD
HETATM   21  H   UNL     1     -45.397  60.046 -51.958  1.00  0.00     0.157 HD
ENDBRANCH   5  19
BRANCH   4  22
HETATM   22  C   UNL     1     -42.481  60.618 -53.854  1.00  0.00     0.251 C 
BRANCH  22  23
HETATM   23  C   UNL     1     -42.812  60.134 -55.242  1.00  0.00     0.241 C 
HETATM   24  N   UNL     1     -42.003  59.098 -55.676  1.00  0.00    -0.326 N 
HETATM   25  H   UNL     1     -41.111  58.976 -55.206  1.00  0.00     0.169 HD
HETATM   26  O   UNL     1     -43.727  60.647 -55.883  1.00  0.00    -0.271 OA
BRANCH  24  27
HETATM   27  C   UNL     1     -42.257  58.244 -56.770  1.00  0.00     0.037 A 
HETATM   28  C   UNL     1     -41.961  58.582 -58.090  1.00  0.00     0.072 A 
HETATM   29  C   UNL     1     -42.320  57.722 -59.126  1.00  0.00     0.124 A 
HETATM   30  F   UNL     1     -42.061  58.092 -60.389  1.00  0.00    -0.205 F 
HETATM   31  C   UNL     1     -42.957  56.505 -58.878  1.00  0.00    -0.023 A 
HETATM   32  C   UNL     1     -43.383  55.620 -60.008  1.00  0.00     0.051 C 
HETATM   33  C   UNL     1     -43.251  56.167 -57.554  1.00  0.00     0.012 A 
HETATM   34  C   UNL     1     -42.907  57.031 -56.509  1.00  0.00     0.030 A 
ENDBRANCH  24  27
ENDBRANCH  22  23
ENDBRANCH   4  22
TORSDOF 8
ENDMDL
MODEL 9
REMARK VINA RESULT:      -7.0      3.362      6.569
REMARK  8 active torsions:
REMARK  status: ('A' for Active; 'I' for Inactive)
REMARK    1  A    between atoms: C_2  and  O_3 
REMARK    2  A    between atoms: O_3  and  C_4 
REMARK    3  A    between atoms: C_5  and  N_6 
REMARK       I    between atoms: N_6  and  C_7 
REMARK    4  A    between atoms: C_7  and  C_8 
REMARK    5  A    between atoms: N_11  and  C_12 
REMARK    6  A    between atoms: C_12  and  C_13 
REMARK       I    between atoms: C_13  and  N_14 
REMARK    7  A    between atoms: N_14  and  C_15 
REMARK    8  A    between atoms: C_24  and  N_25 
ROOT
HETATM    1  C   UNL     1     -41.303  57.860 -51.995  1.00  0.00     0.187 C 
HETATM    2  N   UNL     1     -40.132  58.160 -52.659  1.00  0.00    -0.150 NA
HETATM    3  N   UNL     1     -40.357  59.202 -53.449  1.00  0.00     0.007 NA
HETATM    4  N   UNL     1     -41.662  59.518 -53.329  1.00  0.00    -0.248 N 
HETATM    5  C   UNL     1     -42.273  58.787 -52.342  1.00  0.00     0.151 C 
ENDROOT
BRANCH   1   6
HETATM    6  C   UNL     1     -41.446  56.755 -51.069  1.00  0.00     0.280 C 
HETATM    7  N   UNL     1     -41.543  55.462 -51.539  1.00  0.00    -0.319 N 
HETATM    8  H   UNL     1     -41.277  54.792 -50.831  1.00  0.00     0.169 HD
HETATM    9  O   UNL     1     -41.403  56.926 -49.847  1.00  0.00    -0.265 OA
BRANCH   7  10
HETATM   10  C   UNL     1     -42.028  54.932 -52.754  1.00  0.00     0.068 A 
HETATM   11  C   UNL     1     -41.357  54.036 -53.600  1.00  0.00     0.095 A 
HETATM   12  C   UNL     1     -41.954  53.581 -54.783  1.00  0.00     0.039 A 
HETATM   13  C   UNL     1     -43.198  54.064 -55.174  1.00  0.00     0.003 A 
HETATM   14  C   UNL     1     -43.851  55.000 -54.380  1.00  0.00     0.002 A 
HETATM   15  C   UNL     1     -43.268  55.432 -53.182  1.00  0.00     0.032 A 
BRANCH  11  16
HETATM   16  O   UNL     1     -40.094  53.575 -53.353  1.00  0.00    -0.349 OA
BRANCH  16  17
HETATM   17  C   UNL     1     -40.067  52.150 -53.209  1.00  0.00     0.171 C 
HETATM   18  C   UNL     1     -39.648  51.842 -51.782  1.00  0.00     0.034 C 
ENDBRANCH  16  17
ENDBRANCH  11  16
ENDBRANCH   7  10
ENDBRANCH   1   6
BRANCH   5  19
HETATM   19  N   UNL     1     -43.560  58.967 -51.956  1.00  0.00    -0.382 N 
HETATM   20  H   UNL     1     -43.883  59.834 -51.516  1.00  0.00     0.157 HD
HETATM   21  H   UNL     1     -44.079  58.156 -51.613  1.00  0.00     0.157 HD
ENDBRANCH   5  19
BRANCH   4  22
HETATM   22  C   UNL     1     -42.261  60.400 -54.297  1.00  0.00     0.251 C 
BRANCH  22  23
HETATM   23  C   UNL     1     -42.279  59.792 -55.676  1.00  0.00     0.241 C 
HETATM   24  N   UNL     1     -42.889  58.550 -55.726  1.00  0.00    -0.326 N 
HETATM   25  H   UNL     1     -42.973  58.037 -54.854  1.00  0.00     0.169 HD
HETATM   26  O   UNL     1     -41.785  60.388 -56.630  1.00  0.00    -0.271 OA
BRANCH  24  27
HETATM   27  C   UNL     1     -43.331  57.886 -56.890  1.00  0.00     0.037 A 
HETATM   28  C   UNL     1     -44.544  58.166 -57.518  1.00  0.00     0.072 A 
HETATM   29  C   UNL     1     -44.952  57.407 -58.614  1.00  0.00     0.124 A 
HETATM   30  F   UNL     1     -46.143  57.671 -59.172  1.00  0.00    -0.205 F 
HETATM   31  C   UNL     1     -44.161  56.376 -59.123  1.00  0.00    -0.023 A 
HETATM   32  C   UNL     1     -44.642  55.538 -60.268  1.00  0.00     0.051 C 
HETATM   33  C   UNL     1     -42.945  56.097 -58.494  1.00  0.00     0.012 A 
HETATM   34  C   UNL     1     -42.534  56.845 -57.384  1.00  0.00     0.030 A 
ENDBRANCH  24  27
ENDBRANCH  22  23
ENDBRANCH   4  22
TORSDOF 8
ENDMDL
MODEL 10
REMARK VINA RESULT:      -7.0      4.415      6.043
REMARK  8 active torsions:
REMARK  status: ('A' for Active; 'I' for Inactive)
REMARK    1  A    between atoms: C_2  and  O_3 
REMARK    2  A    between atoms: O_3  and  C_4 
REMARK    3  A    between atoms: C_5  and  N_6 
REMARK       I    between atoms: N_6  and  C_7 
REMARK    4  A    between atoms: C_7  and  C_8 
REMARK    5  A    between atoms: N_11  and  C_12 
REMARK    6  A    between atoms: C_12  and  C_13 
REMARK       I    between atoms: C_13  and  N_14 
REMARK    7  A    between atoms: N_14  and  C_15 
REMARK    8  A    between atoms: C_24  and  N_25 
ROOT
HETATM    1  C   UNL     1     -42.618  57.189 -57.643  1.00  0.00     0.187 C 
HETATM    2  N   UNL     1     -42.872  55.847 -57.456  1.00  0.00    -0.150 NA
HETATM    3  N   UNL     1     -42.828  55.592 -56.156  1.00  0.00     0.007 NA
HETATM    4  N   UNL     1     -42.497  56.742 -55.536  1.00  0.00    -0.248 N 
HETATM    5  C   UNL     1     -42.471  57.800 -56.408  1.00  0.00     0.151 C 
ENDROOT
BRANCH   1   6
HETATM    6  C   UNL     1     -42.550  57.825 -58.943  1.00  0.00     0.280 C 
HETATM    7  N   UNL     1     -43.528  58.714 -59.336  1.00  0.00    -0.319 N 
HETATM    8  H   UNL     1     -43.193  59.335 -60.059  1.00  0.00     0.169 HD
HETATM    9  O   UNL     1     -41.585  57.656 -59.695  1.00  0.00    -0.265 OA
BRANCH   7  10
HETATM   10  C   UNL     1     -44.891  58.832 -58.988  1.00  0.00     0.068 A 
HETATM   11  C   UNL     1     -45.959  58.114 -59.548  1.00  0.00     0.095 A 
HETATM   12  C   UNL     1     -47.273  58.324 -59.108  1.00  0.00     0.039 A 
HETATM   13  C   UNL     1     -47.550  59.299 -58.156  1.00  0.00     0.003 A 
HETATM   14  C   UNL     1     -46.511  60.063 -57.635  1.00  0.00     0.002 A 
HETATM   15  C   UNL     1     -45.194  59.833 -58.051  1.00  0.00     0.032 A 
BRANCH  11  16
HETATM   16  O   UNL     1     -45.805  57.202 -60.554  1.00  0.00    -0.349 OA
BRANCH  16  17
HETATM   17  C   UNL     1     -45.862  55.858 -60.066  1.00  0.00     0.171 C 
HETATM   18  C   UNL     1     -44.640  55.127 -60.593  1.00  0.00     0.034 C 
ENDBRANCH  16  17
ENDBRANCH  11  16
ENDBRANCH   7  10
ENDBRANCH   1   6
BRANCH   5  19
HETATM   19  N   UNL     1     -42.251  59.084 -56.032  1.00  0.00    -0.382 N 
HETATM   20  H   UNL     1     -41.532  59.337 -55.346  1.00  0.00     0.157 HD
HETATM   21  H   UNL     1     -43.051  59.718 -55.989  1.00  0.00     0.157 HD
ENDBRANCH   5  19
BRANCH   4  22
HETATM   22  C   UNL     1     -42.070  56.699 -54.161  1.00  0.00     0.251 C 
BRANCH  22  23
HETATM   23  C   UNL     1     -42.040  55.291 -53.626  1.00  0.00     0.241 C 
HETATM   24  N   UNL     1     -40.869  54.612 -53.918  1.00  0.00    -0.326 N 
HETATM   25  H   UNL     1     -40.308  54.962 -54.688  1.00  0.00     0.169 HD
HETATM   26  O   UNL     1     -42.992  54.839 -52.993  1.00  0.00    -0.271 OA
BRANCH  24  27
HETATM   27  C   UNL     1     -40.420  53.423 -53.305  1.00  0.00     0.037 A 
HETATM   28  C   UNL     1     -40.164  52.247 -54.011  1.00  0.00     0.072 A 
HETATM   29  C   UNL     1     -39.806  51.088 -53.325  1.00  0.00     0.124 A 
HETATM   30  F   UNL     1     -39.607  49.961 -54.025  1.00  0.00    -0.205 F 
HETATM   31  C   UNL     1     -39.672  51.073 -51.935  1.00  0.00    -0.023 A 
HETATM   32  C   UNL     1     -39.339  49.804 -51.213  1.00  0.00     0.051 C 
HETATM   33  C   UNL     1     -39.927  52.252 -51.230  1.00  0.00     0.012 A 
HETATM   34  C   UNL     1     -40.301  53.417 -51.909  1.00  0.00     0.030 A 
ENDBRANCH  24  27
ENDBRANCH  22  23
ENDBRANCH   4  22
TORSDOF 8
ENDMDL
