MODEL 1
REMARK VINA RESULT:      -7.7      0.000      0.000
REMARK  6 active torsions:
REMARK  status: ('A' for Active; 'I' for Inactive)
REMARK    1  A    between atoms: C_2  and  N_3 
REMARK    2  A    between atoms: C_2  and  C_18 
REMARK    3  A    between atoms: N_3  and  C_6 
REMARK    4  A    between atoms: C_6  and  C_7 
REMARK    5  A    between atoms: C_10  and  N_11 
REMARK       I    between atoms: N_11  and  C_12 
REMARK    6  A    between atoms: C_12  and  O_13 
ROOT
HETATM    1  N   UNL     1     -42.780  55.334 -51.592  1.00  0.00    -0.061 N 
HETATM    2  H   UNL     1     -43.086  54.426 -51.967  1.00  0.00     0.278 HD
HETATM    3  H   UNL     1     -43.145  55.314 -50.628  1.00  0.00     0.278 HD
ENDROOT
BRANCH   1   4
HETATM    4  C   UNL     1     -41.273  55.299 -51.500  1.00  0.00     0.241 C 
HETATM    5  C   UNL     1     -40.839  55.650 -50.080  1.00  0.00     0.047 C 
BRANCH   4   6
HETATM    6  C   UNL     1     -40.807  53.913 -51.871  1.00  0.00     0.106 A 
HETATM    7  S   UNL     1     -40.232  52.816 -50.692  1.00  0.00    -0.070 SA
HETATM    8  C   UNL     1     -39.977  51.636 -51.922  1.00  0.00     0.035 A 
HETATM    9  C   UNL     1     -40.334  52.181 -53.159  1.00  0.00     0.075 A 
HETATM   10  C   UNL     1     -39.496  50.322 -51.800  1.00  0.00     0.021 A 
HETATM   11  N   UNL     1     -40.792  53.493 -53.118  1.00  0.00    -0.243 NA
HETATM   12  C   UNL     1     -40.205  51.383 -54.314  1.00  0.00     0.033 A 
HETATM   13  C   UNL     1     -39.731  50.072 -54.202  1.00  0.00     0.002 A 
HETATM   14  C   UNL     1     -39.381  49.551 -52.961  1.00  0.00     0.002 A 
ENDBRANCH   4   6
ENDBRANCH   1   4
BRANCH   1  15
HETATM   15  C   UNL     1     -43.410  56.419 -52.380  1.00  0.00     0.271 C 
BRANCH  15  16
HETATM   16  C   UNL     1     -43.163  56.240 -53.852  1.00  0.00    -0.033 A 
HETATM   17  C   UNL     1     -43.428  55.017 -54.480  1.00  0.00     0.011 A 
HETATM   18  C   UNL     1     -43.185  54.845 -55.849  1.00  0.00     0.030 A 
HETATM   19  C   UNL     1     -42.677  55.890 -56.621  1.00  0.00     0.036 A 
HETATM   20  C   UNL     1     -42.419  57.114 -55.992  1.00  0.00     0.030 A 
HETATM   21  C   UNL     1     -42.653  57.290 -54.623  1.00  0.00     0.011 A 
BRANCH  19  22
HETATM   22  N   UNL     1     -42.409  55.822 -57.998  1.00  0.00    -0.303 N 
HETATM   23  C   UNL     1     -43.163  56.113 -59.105  1.00  0.00     0.364 C 
HETATM   24  O   UNL     1     -42.677  55.989 -60.224  1.00  0.00    -0.238 OA
HETATM   25  H   UNL     1     -41.492  55.497 -58.278  1.00  0.00     0.171 HD
BRANCH  23  26
HETATM   26  O   UNL     1     -44.437  56.507 -58.864  1.00  0.00    -0.309 OA
HETATM   27  C   UNL     1     -45.238  56.635 -60.042  1.00  0.00     0.215 C 
ENDBRANCH  23  26
ENDBRANCH  19  22
ENDBRANCH  15  16
ENDBRANCH   1  15
TORSDOF 6
ENDMDL
MODEL 2
REMARK VINA RESULT:      -7.6      1.556      2.068
REMARK  6 active torsions:
REMARK  status: ('A' for Active; 'I' for Inactive)
REMARK    1  A    between atoms: C_2  and  N_3 
REMARK    2  A    between atoms: C_2  and  C_18 
REMARK    3  A    between atoms: N_3  and  C_6 
REMARK    4  A    between atoms: C_6  and  C_7 
REMARK    5  A    between atoms: C_10  and  N_11 
REMARK       I    between atoms: N_11  and  C_12 
REMARK    6  A    between atoms: C_12  and  O_13 
ROOT
HETATM    1  N   UNL     1     -41.145  56.523 -54.289  1.00  0.00    -0.061 N 
HETATM    2  H   UNL     1     -40.256  57.040 -54.263  1.00  0.00     0.278 HD
HETATM    3  H   UNL     1     -40.915  55.710 -54.881  1.00  0.00     0.278 HD
ENDROOT
BRANCH   1   4
HETATM    4  C   UNL     1     -41.406  56.003 -52.896  1.00  0.00     0.241 C 
HETATM    5  C   UNL     1     -42.897  56.101 -52.584  1.00  0.00     0.047 C 
BRANCH   4   6
HETATM    6  C   UNL     1     -40.942  54.569 -52.830  1.00  0.00     0.106 A 
HETATM    7  S   UNL     1     -40.418  53.864 -51.365  1.00  0.00    -0.070 SA
HETATM    8  C   UNL     1     -40.135  52.376 -52.187  1.00  0.00     0.035 A 
HETATM    9  C   UNL     1     -40.445  52.537 -53.541  1.00  0.00     0.075 A 
HETATM   10  C   UNL     1     -39.671  51.155 -51.672  1.00  0.00     0.021 A 
HETATM   11  N   UNL     1     -40.890  53.804 -53.900  1.00  0.00    -0.243 NA
HETATM   12  C   UNL     1     -40.286  51.438 -54.408  1.00  0.00     0.033 A 
HETATM   13  C   UNL     1     -39.829  50.216 -53.904  1.00  0.00     0.002 A 
HETATM   14  C   UNL     1     -39.526  50.078 -52.553  1.00  0.00     0.002 A 
ENDBRANCH   4   6
ENDBRANCH   1   4
BRANCH   1  15
HETATM   15  C   UNL     1     -42.179  57.372 -54.926  1.00  0.00     0.271 C 
BRANCH  15  16
HETATM   16  C   UNL     1     -42.575  56.836 -56.272  1.00  0.00    -0.033 A 
HETATM   17  C   UNL     1     -42.824  55.470 -56.454  1.00  0.00     0.011 A 
HETATM   18  C   UNL     1     -43.180  54.966 -57.713  1.00  0.00     0.030 A 
HETATM   19  C   UNL     1     -43.300  55.814 -58.813  1.00  0.00     0.036 A 
HETATM   20  C   UNL     1     -43.057  57.181 -58.627  1.00  0.00     0.030 A 
HETATM   21  C   UNL     1     -42.694  57.689 -57.375  1.00  0.00     0.011 A 
BRANCH  19  22
HETATM   22  N   UNL     1     -43.660  55.411 -60.109  1.00  0.00    -0.303 N 
HETATM   23  C   UNL     1     -44.873  55.205 -60.713  1.00  0.00     0.364 C 
HETATM   24  O   UNL     1     -44.919  54.870 -61.892  1.00  0.00    -0.238 OA
HETATM   25  H   UNL     1     -42.910  55.221 -60.763  1.00  0.00     0.171 HD
BRANCH  23  26
HETATM   26  O   UNL     1     -45.961  55.372 -59.924  1.00  0.00    -0.309 OA
HETATM   27  C   UNL     1     -46.689  56.575 -60.184  1.00  0.00     0.215 C 
ENDBRANCH  23  26
ENDBRANCH  19  22
ENDBRANCH  15  16
ENDBRANCH   1  15
TORSDOF 6
ENDMDL
MODEL 3
REMARK VINA RESULT:      -7.1     14.204     15.997
REMARK  6 active torsions:
REMARK  status: ('A' for Active; 'I' for Inactive)
REMARK    1  A    between atoms: C_2  and  N_3 
REMARK    2  A    between atoms: C_2  and  C_18 
REMARK    3  A    between atoms: N_3  and  C_6 
REMARK    4  A    between atoms: C_6  and  C_7 
REMARK    5  A    between atoms: C_10  and  N_11 
REMARK       I    between atoms: N_11  and  C_12 
REMARK    6  A    between atoms: C_12  and  O_13 
ROOT
HETATM    1  N   UNL     1     -36.112  42.204 -55.676  1.00  0.00    -0.061 N 
HETATM    2  H   UNL     1     -36.120  42.575 -54.716  1.00  0.00     0.278 HD
HETATM    3  H   UNL     1     -35.629  42.949 -56.201  1.00  0.00     0.278 HD
ENDROOT
BRANCH   1   4
HETATM    4  C   UNL     1     -35.209  40.994 -55.683  1.00  0.00     0.241 C 
HETATM    5  C   UNL     1     -34.100  41.189 -56.713  1.00  0.00     0.047 C 
BRANCH   4   6
HETATM    6  C   UNL     1     -34.627  40.828 -54.301  1.00  0.00     0.106 A 
HETATM    7  S   UNL     1     -35.502  41.269 -52.901  1.00  0.00    -0.070 SA
HETATM    8  C   UNL     1     -34.180  40.761 -51.920  1.00  0.00     0.035 A 
HETATM    9  C   UNL     1     -33.147  40.307 -52.745  1.00  0.00     0.075 A 
HETATM   10  C   UNL     1     -34.065  40.764 -50.520  1.00  0.00     0.021 A 
HETATM   11  N   UNL     1     -33.409  40.367 -54.109  1.00  0.00    -0.243 NA
HETATM   12  C   UNL     1     -31.959  39.839 -52.149  1.00  0.00     0.033 A 
HETATM   13  C   UNL     1     -31.837  39.835 -50.755  1.00  0.00     0.002 A 
HETATM   14  C   UNL     1     -32.878  40.291 -49.953  1.00  0.00     0.002 A 
ENDBRANCH   4   6
ENDBRANCH   1   4
BRANCH   1  15
HETATM   15  C   UNL     1     -37.508  42.040 -56.142  1.00  0.00     0.271 C 
BRANCH  15  16
HETATM   16  C   UNL     1     -37.559  41.417 -57.509  1.00  0.00    -0.033 A 
HETATM   17  C   UNL     1     -38.047  40.116 -57.686  1.00  0.00     0.011 A 
HETATM   18  C   UNL     1     -38.081  39.529 -58.958  1.00  0.00     0.030 A 
HETATM   19  C   UNL     1     -37.636  40.229 -60.080  1.00  0.00     0.036 A 
HETATM   20  C   UNL     1     -37.156  41.533 -59.901  1.00  0.00     0.030 A 
HETATM   21  C   UNL     1     -37.111  42.121 -58.632  1.00  0.00     0.011 A 
BRANCH  19  22
HETATM   22  N   UNL     1     -37.638  39.736 -61.394  1.00  0.00    -0.303 N 
HETATM   23  C   UNL     1     -36.798  38.889 -62.069  1.00  0.00     0.364 C 
HETATM   24  O   UNL     1     -37.040  38.588 -63.233  1.00  0.00    -0.238 OA
HETATM   25  H   UNL     1     -38.388  40.039 -62.004  1.00  0.00     0.171 HD
BRANCH  23  26
HETATM   26  O   UNL     1     -35.717  38.454 -61.377  1.00  0.00    -0.309 OA
HETATM   27  C   UNL     1     -34.739  37.791 -62.181  1.00  0.00     0.215 C 
ENDBRANCH  23  26
ENDBRANCH  19  22
ENDBRANCH  15  16
ENDBRANCH   1  15
TORSDOF 6
ENDMDL
MODEL 4
REMARK VINA RESULT:      -7.1      2.151      2.837
REMARK  6 active torsions:
REMARK  status: ('A' for Active; 'I' for Inactive)
REMARK    1  A    between atoms: C_2  and  N_3 
REMARK    2  A    between atoms: C_2  and  C_18 
REMARK    3  A    between atoms: N_3  and  C_6 
REMARK    4  A    between atoms: C_6  and  C_7 
REMARK    5  A    between atoms: C_10  and  N_11 
REMARK       I    between atoms: N_11  and  C_12 
REMARK    6  A    between atoms: C_12  and  O_13 
ROOT
HETATM    1  N   UNL     1     -41.235  56.099 -51.371  1.00  0.00    -0.061 N 
HETATM    2  H   UNL     1     -40.592  56.900 -51.438  1.00  0.00     0.278 HD
HETATM    3  H   UNL     1     -41.241  55.733 -52.335  1.00  0.00     0.278 HD
ENDROOT
BRANCH   1   4
HETATM    4  C   UNL     1     -40.569  55.058 -50.502  1.00  0.00     0.241 C 
HETATM    5  C   UNL     1     -41.446  54.770 -49.286  1.00  0.00     0.047 C 
BRANCH   4   6
HETATM    6  C   UNL     1     -40.374  53.809 -51.324  1.00  0.00     0.106 A 
HETATM    7  S   UNL     1     -40.633  53.798 -53.013  1.00  0.00    -0.070 SA
HETATM    8  C   UNL     1     -40.198  52.131 -53.065  1.00  0.00     0.035 A 
HETATM    9  C   UNL     1     -39.906  51.695 -51.770  1.00  0.00     0.075 A 
HETATM   10  C   UNL     1     -40.122  51.271 -54.172  1.00  0.00     0.021 A 
HETATM   11  N   UNL     1     -40.028  52.662 -50.777  1.00  0.00    -0.243 NA
HETATM   12  C   UNL     1     -39.523  50.353 -51.575  1.00  0.00     0.033 A 
HETATM   13  C   UNL     1     -39.440  49.490 -52.673  1.00  0.00     0.002 A 
HETATM   14  C   UNL     1     -39.736  49.945 -53.954  1.00  0.00     0.002 A 
ENDBRANCH   4   6
ENDBRANCH   1   4
BRANCH   1  15
HETATM   15  C   UNL     1     -42.576  56.588 -50.976  1.00  0.00     0.271 C 
BRANCH  15  16
HETATM   16  C   UNL     1     -43.418  56.909 -52.178  1.00  0.00    -0.033 A 
HETATM   17  C   UNL     1     -44.111  58.123 -52.265  1.00  0.00     0.011 A 
HETATM   18  C   UNL     1     -44.908  58.417 -53.380  1.00  0.00     0.030 A 
HETATM   19  C   UNL     1     -45.026  57.509 -54.432  1.00  0.00     0.036 A 
HETATM   20  C   UNL     1     -44.326  56.299 -54.346  1.00  0.00     0.030 A 
HETATM   21  C   UNL     1     -43.535  55.996 -53.232  1.00  0.00     0.011 A 
BRANCH  19  22
HETATM   22  N   UNL     1     -45.789  57.713 -55.594  1.00  0.00    -0.303 N 
HETATM   23  C   UNL     1     -45.504  58.301 -56.799  1.00  0.00     0.364 C 
HETATM   24  O   UNL     1     -46.357  58.330 -57.680  1.00  0.00    -0.238 OA
HETATM   25  H   UNL     1     -46.745  57.380 -55.587  1.00  0.00     0.171 HD
BRANCH  23  26
HETATM   26  O   UNL     1     -44.267  58.839 -56.915  1.00  0.00    -0.309 OA
HETATM   27  C   UNL     1     -43.379  58.085 -57.744  1.00  0.00     0.215 C 
ENDBRANCH  23  26
ENDBRANCH  19  22
ENDBRANCH  15  16
ENDBRANCH   1  15
TORSDOF 6
ENDMDL
MODEL 5
REMARK VINA RESULT:      -7.1      3.860      7.403
REMARK  6 active torsions:
REMARK  status: ('A' for Active; 'I' for Inactive)
REMARK    1  A    between atoms: C_2  and  N_3 
REMARK    2  A    between atoms: C_2  and  C_18 
REMARK    3  A    between atoms: N_3  and  C_6 
REMARK    4  A    between atoms: C_6  and  C_7 
REMARK    5  A    between atoms: C_10  and  N_11 
REMARK       I    between atoms: N_11  and  C_12 
REMARK    6  A    between atoms: C_12  and  O_13 
ROOT
HETATM    1  N   UNL     1     -41.757  57.840 -54.642  1.00  0.00    -0.061 N 
HETATM    2  H   UNL     1     -41.461  57.242 -55.426  1.00  0.00     0.278 HD
HETATM    3  H   UNL     1     -41.047  58.588 -54.649  1.00  0.00     0.278 HD
ENDROOT
BRANCH   1   4
HETATM    4  C   UNL     1     -43.074  58.469 -55.029  1.00  0.00     0.241 C 
HETATM    5  C   UNL     1     -42.902  59.981 -55.150  1.00  0.00     0.047 C 
BRANCH   4   6
HETATM    6  C   UNL     1     -43.514  57.878 -56.345  1.00  0.00     0.106 A 
HETATM    7  S   UNL     1     -44.559  58.722 -57.401  1.00  0.00    -0.070 SA
HETATM    8  C   UNL     1     -44.489  57.408 -58.513  1.00  0.00     0.035 A 
HETATM    9  C   UNL     1     -43.681  56.400 -57.979  1.00  0.00     0.075 A 
HETATM   10  C   UNL     1     -45.106  57.277 -59.768  1.00  0.00     0.021 A 
HETATM   11  N   UNL     1     -43.142  56.674 -56.727  1.00  0.00    -0.243 NA
HETATM   12  C   UNL     1     -43.482  55.222 -58.727  1.00  0.00     0.033 A 
HETATM   13  C   UNL     1     -44.088  55.085 -59.980  1.00  0.00     0.002 A 
HETATM   14  C   UNL     1     -44.890  56.101 -60.492  1.00  0.00     0.002 A 
ENDBRANCH   4   6
ENDBRANCH   1   4
BRANCH   1  15
HETATM   15  C   UNL     1     -41.696  57.055 -53.387  1.00  0.00     0.271 C 
BRANCH  15  16
HETATM   16  C   UNL     1     -41.363  55.615 -53.657  1.00  0.00    -0.033 A 
HETATM   17  C   UNL     1     -41.957  54.591 -52.909  1.00  0.00     0.011 A 
HETATM   18  C   UNL     1     -41.637  53.247 -53.150  1.00  0.00     0.030 A 
HETATM   19  C   UNL     1     -40.724  52.899 -54.145  1.00  0.00     0.036 A 
HETATM   20  C   UNL     1     -40.138  53.925 -54.897  1.00  0.00     0.030 A 
HETATM   21  C   UNL     1     -40.447  55.268 -54.655  1.00  0.00     0.011 A 
BRANCH  19  22
HETATM   22  N   UNL     1     -40.345  51.586 -54.471  1.00  0.00    -0.303 N 
HETATM   23  C   UNL     1     -39.674  50.615 -53.775  1.00  0.00     0.364 C 
HETATM   24  O   UNL     1     -39.486  49.516 -54.287  1.00  0.00    -0.238 OA
HETATM   25  H   UNL     1     -40.591  51.246 -55.392  1.00  0.00     0.171 HD
BRANCH  23  26
HETATM   26  O   UNL     1     -39.237  50.967 -52.541  1.00  0.00    -0.309 OA
HETATM   27  C   UNL     1     -39.548  50.015 -51.521  1.00  0.00     0.215 C 
ENDBRANCH  23  26
ENDBRANCH  19  22
ENDBRANCH  15  16
ENDBRANCH   1  15
TORSDOF 6
ENDMDL
MODEL 6
REMARK VINA RESULT:      -6.9     14.129     15.949
REMARK  6 active torsions:
REMARK  status: ('A' for Active; 'I' for Inactive)
REMARK    1  A    between atoms: C_2  and  N_3 
REMARK    2  A    between atoms: C_2  and  C_18 
REMARK    3  A    between atoms: N_3  and  C_6 
REMARK    4  A    between atoms: C_6  and  C_7 
REMARK    5  A    between atoms: C_10  and  N_11 
REMARK       I    between atoms: N_11  and  C_12 
REMARK    6  A    between atoms: C_12  and  O_13 
ROOT
HETATM    1  N   UNL     1     -37.108  42.395 -55.383  1.00  0.00    -0.061 N 
HETATM    2  H   UNL     1     -37.584  43.292 -55.212  1.00  0.00     0.278 HD
HETATM    3  H   UNL     1     -36.429  42.638 -56.120  1.00  0.00     0.278 HD
ENDROOT
BRANCH   1   4
HETATM    4  C   UNL     1     -36.318  42.061 -54.140  1.00  0.00     0.241 C 
HETATM    5  C   UNL     1     -37.146  41.151 -53.237  1.00  0.00     0.047 C 
BRANCH   4   6
HETATM    6  C   UNL     1     -35.042  41.375 -54.559  1.00  0.00     0.106 A 
HETATM    7  S   UNL     1     -34.374  41.599 -56.116  1.00  0.00    -0.070 SA
HETATM    8  C   UNL     1     -33.072  40.548 -55.704  1.00  0.00     0.035 A 
HETATM    9  C   UNL     1     -33.258  40.081 -54.400  1.00  0.00     0.075 A 
HETATM   10  C   UNL     1     -31.965  40.164 -56.480  1.00  0.00     0.021 A 
HETATM   11  N   UNL     1     -34.401  40.548 -53.760  1.00  0.00    -0.243 NA
HETATM   12  C   UNL     1     -32.304  39.200 -53.853  1.00  0.00     0.033 A 
HETATM   13  C   UNL     1     -31.196  38.815 -54.616  1.00  0.00     0.002 A 
HETATM   14  C   UNL     1     -31.031  39.292 -55.912  1.00  0.00     0.002 A 
ENDBRANCH   4   6
ENDBRANCH   1   4
BRANCH   1  15
HETATM   15  C   UNL     1     -38.098  41.408 -55.871  1.00  0.00     0.271 C 
BRANCH  15  16
HETATM   16  C   UNL     1     -37.797  40.981 -57.280  1.00  0.00    -0.033 A 
HETATM   17  C   UNL     1     -37.507  41.930 -58.269  1.00  0.00     0.011 A 
HETATM   18  C   UNL     1     -37.240  41.535 -59.587  1.00  0.00     0.030 A 
HETATM   19  C   UNL     1     -37.252  40.187 -59.945  1.00  0.00     0.036 A 
HETATM   20  C   UNL     1     -37.535  39.240 -58.952  1.00  0.00     0.030 A 
HETATM   21  C   UNL     1     -37.811  39.629 -57.636  1.00  0.00     0.011 A 
BRANCH  19  22
HETATM   22  N   UNL     1     -36.989  39.689 -61.231  1.00  0.00    -0.303 N 
HETATM   23  C   UNL     1     -37.732  38.940 -62.106  1.00  0.00     0.364 C 
HETATM   24  O   UNL     1     -37.272  38.650 -63.205  1.00  0.00    -0.238 OA
HETATM   25  H   UNL     1     -36.083  39.895 -61.633  1.00  0.00     0.171 HD
BRANCH  23  26
HETATM   26  O   UNL     1     -38.951  38.549 -61.661  1.00  0.00    -0.309 OA
HETATM   27  C   UNL     1     -39.699  37.786 -62.610  1.00  0.00     0.215 C 
ENDBRANCH  23  26
ENDBRANCH  19  22
ENDBRANCH  15  16
ENDBRANCH   1  15
TORSDOF 6
ENDMDL
MODEL 7
REMARK VINA RESULT:      -6.8      1.270      1.948
REMARK  6 active torsions:
REMARK  status: ('A' for Active; 'I' for Inactive)
REMARK    1  A    between atoms: C_2  and  N_3 
REMARK    2  A    between atoms: C_2  and  C_18 
REMARK    3  A    between atoms: N_3  and  C_6 
REMARK    4  A    between atoms: C_6  and  C_7 
REMARK    5  A    between atoms: C_10  and  N_11 
REMARK       I    between atoms: N_11  and  C_12 
REMARK    6  A    between atoms: C_12  and  O_13 
ROOT
HETATM    1  N   UNL     1     -41.512  57.676 -52.305  1.00  0.00    -0.061 N 
HETATM    2  H   UNL     1     -40.923  58.399 -51.868  1.00  0.00     0.278 HD
HETATM    3  H   UNL     1     -40.852  57.201 -52.939  1.00  0.00     0.278 HD
ENDROOT
BRANCH   1   4
HETATM    4  C   UNL     1     -41.886  56.688 -51.226  1.00  0.00     0.241 C 
HETATM    5  C   UNL     1     -43.405  56.616 -51.102  1.00  0.00     0.047 C 
BRANCH   4   6
HETATM    6  C   UNL     1     -41.319  55.341 -51.600  1.00  0.00     0.106 A 
HETATM    7  S   UNL     1     -40.634  54.301 -50.430  1.00  0.00    -0.070 SA
HETATM    8  C   UNL     1     -40.312  53.137 -51.660  1.00  0.00     0.035 A 
HETATM    9  C   UNL     1     -40.738  53.644 -52.891  1.00  0.00     0.075 A 
HETATM   10  C   UNL     1     -39.726  51.866 -51.543  1.00  0.00     0.021 A 
HETATM   11  N   UNL     1     -41.297  54.917 -52.846  1.00  0.00    -0.243 NA
HETATM   12  C   UNL     1     -40.571  52.853 -54.045  1.00  0.00     0.033 A 
HETATM   13  C   UNL     1     -39.992  51.584 -53.938  1.00  0.00     0.002 A 
HETATM   14  C   UNL     1     -39.575  51.099 -52.703  1.00  0.00     0.002 A 
ENDBRANCH   4   6
ENDBRANCH   1   4
BRANCH   1  15
HETATM   15  C   UNL     1     -42.603  58.334 -53.061  1.00  0.00     0.271 C 
BRANCH  15  16
HETATM   16  C   UNL     1     -42.544  57.985 -54.522  1.00  0.00    -0.033 A 
HETATM   17  C   UNL     1     -42.306  58.974 -55.485  1.00  0.00     0.011 A 
HETATM   18  C   UNL     1     -42.264  58.652 -56.849  1.00  0.00     0.030 A 
HETATM   19  C   UNL     1     -42.455  57.339 -57.278  1.00  0.00     0.036 A 
HETATM   20  C   UNL     1     -42.685  56.352 -56.312  1.00  0.00     0.030 A 
HETATM   21  C   UNL     1     -42.735  56.668 -54.950  1.00  0.00     0.011 A 
BRANCH  19  22
HETATM   22  N   UNL     1     -42.422  56.913 -58.616  1.00  0.00    -0.303 N 
HETATM   23  C   UNL     1     -43.383  56.846 -59.592  1.00  0.00     0.364 C 
HETATM   24  O   UNL     1     -43.086  56.450 -60.714  1.00  0.00    -0.238 OA
HETATM   25  H   UNL     1     -41.537  56.579 -58.977  1.00  0.00     0.171 HD
BRANCH  23  26
HETATM   26  O   UNL     1     -44.631  57.215 -59.217  1.00  0.00    -0.309 OA
HETATM   27  C   UNL     1     -45.667  56.386 -59.750  1.00  0.00     0.215 C 
ENDBRANCH  23  26
ENDBRANCH  19  22
ENDBRANCH  15  16
ENDBRANCH   1  15
TORSDOF 6
ENDMDL
MODEL 8
REMARK VINA RESULT:      -6.8      2.268      3.202
REMARK  6 active torsions:
REMARK  status: ('A' for Active; 'I' for Inactive)
REMARK    1  A    between atoms: C_2  and  N_3 
REMARK    2  A    between atoms: C_2  and  C_18 
REMARK    3  A    between atoms: N_3  and  C_6 
REMARK    4  A    between atoms: C_6  and  C_7 
REMARK    5  A    between atoms: C_10  and  N_11 
REMARK       I    between atoms: N_11  and  C_12 
REMARK    6  A    between atoms: C_12  and  O_13 
ROOT
HETATM    1  N   UNL     1     -41.343  54.993 -55.859  1.00  0.00    -0.061 N 
HETATM    2  H   UNL     1     -40.728  55.605 -56.414  1.00  0.00     0.278 HD
HETATM    3  H   UNL     1     -40.994  54.051 -56.093  1.00  0.00     0.278 HD
ENDROOT
BRANCH   1   4
HETATM    4  C   UNL     1     -41.027  55.239 -54.403  1.00  0.00     0.241 C 
HETATM    5  C   UNL     1     -42.247  55.836 -53.708  1.00  0.00     0.047 C 
BRANCH   4   6
HETATM    6  C   UNL     1     -40.647  53.922 -53.772  1.00  0.00     0.106 A 
HETATM    7  S   UNL     1     -40.462  53.761 -52.080  1.00  0.00    -0.070 SA
HETATM    8  C   UNL     1     -40.080  52.093 -52.286  1.00  0.00     0.035 A 
HETATM    9  C   UNL     1     -40.102  51.784 -53.649  1.00  0.00     0.075 A 
HETATM   10  C   UNL     1     -39.783  51.127 -51.311  1.00  0.00     0.021 A 
HETATM   11  N   UNL     1     -40.411  52.847 -54.492  1.00  0.00    -0.243 NA
HETATM   12  C   UNL     1     -39.818  50.464 -54.051  1.00  0.00     0.033 A 
HETATM   13  C   UNL     1     -39.525  49.494 -53.087  1.00  0.00     0.002 A 
HETATM   14  C   UNL     1     -39.508  49.823 -51.736  1.00  0.00     0.002 A 
ENDBRANCH   4   6
ENDBRANCH   1   4
BRANCH   1  15
HETATM   15  C   UNL     1     -42.741  55.175 -56.313  1.00  0.00     0.271 C 
BRANCH  15  16
HETATM   16  C   UNL     1     -42.822  56.134 -57.467  1.00  0.00    -0.033 A 
HETATM   17  C   UNL     1     -43.272  55.709 -58.723  1.00  0.00     0.011 A 
HETATM   18  C   UNL     1     -43.334  56.599 -59.803  1.00  0.00     0.030 A 
HETATM   19  C   UNL     1     -42.954  57.933 -59.652  1.00  0.00     0.036 A 
HETATM   20  C   UNL     1     -42.512  58.358 -58.392  1.00  0.00     0.030 A 
HETATM   21  C   UNL     1     -42.440  57.471 -57.312  1.00  0.00     0.011 A 
BRANCH  19  22
HETATM   22  N   UNL     1     -42.990  58.904 -60.666  1.00  0.00    -0.303 N 
HETATM   23  C   UNL     1     -43.974  59.750 -61.105  1.00  0.00     0.364 C 
HETATM   24  O   UNL     1     -43.739  60.540 -62.014  1.00  0.00    -0.238 OA
HETATM   25  H   UNL     1     -42.146  59.040 -61.209  1.00  0.00     0.171 HD
BRANCH  23  26
HETATM   26  O   UNL     1     -45.176  59.626 -60.493  1.00  0.00    -0.309 OA
HETATM   27  C   UNL     1     -45.977  60.810 -60.538  1.00  0.00     0.215 C 
ENDBRANCH  23  26
ENDBRANCH  19  22
ENDBRANCH  15  16
ENDBRANCH   1  15
TORSDOF 6
ENDMDL
MODEL 9
REMARK VINA RESULT:      -6.8      4.720      6.217
REMARK  6 active torsions:
REMARK  status: ('A' for Active; 'I' for Inactive)
REMARK    1  A    between atoms: C_2  and  N_3 
REMARK    2  A    between atoms: C_2  and  C_18 
REMARK    3  A    between atoms: N_3  and  C_6 
REMARK    4  A    between atoms: C_6  and  C_7 
REMARK    5  A    between atoms: C_10  and  N_11 
REMARK       I    between atoms: N_11  and  C_12 
REMARK    6  A    between atoms: C_12  and  O_13 
ROOT
HETATM    1  N   UNL     1     -41.669  56.391 -52.500  1.00  0.00    -0.061 N 
HETATM    2  H   UNL     1     -41.238  55.914 -53.303  1.00  0.00     0.278 HD
HETATM    3  H   UNL     1     -42.674  56.356 -52.731  1.00  0.00     0.278 HD
ENDROOT
BRANCH   1   4
HETATM    4  C   UNL     1     -41.457  55.514 -51.289  1.00  0.00     0.241 C 
HETATM    5  C   UNL     1     -42.770  55.377 -50.521  1.00  0.00     0.047 C 
BRANCH   4   6
HETATM    6  C   UNL     1     -40.974  54.164 -51.759  1.00  0.00     0.106 A 
HETATM    7  S   UNL     1     -40.197  53.072 -50.699  1.00  0.00    -0.070 SA
HETATM    8  C   UNL     1     -40.044  51.938 -51.988  1.00  0.00     0.035 A 
HETATM    9  C   UNL     1     -40.584  52.493 -53.151  1.00  0.00     0.075 A 
HETATM   10  C   UNL     1     -39.485  50.650 -51.970  1.00  0.00     0.021 A 
HETATM   11  N   UNL     1     -41.099  53.778 -53.011  1.00  0.00    -0.243 NA
HETATM   12  C   UNL     1     -40.566  51.733 -54.338  1.00  0.00     0.033 A 
HETATM   13  C   UNL     1     -40.015  50.447 -54.329  1.00  0.00     0.002 A 
HETATM   14  C   UNL     1     -39.482  49.915 -53.160  1.00  0.00     0.002 A 
ENDBRANCH   4   6
ENDBRANCH   1   4
BRANCH   1  15
HETATM   15  C   UNL     1     -41.180  57.788 -52.448  1.00  0.00     0.271 C 
BRANCH  15  16
HETATM   16  C   UNL     1     -42.221  58.712 -51.882  1.00  0.00    -0.033 A 
HETATM   17  C   UNL     1     -43.570  58.571 -52.231  1.00  0.00     0.011 A 
HETATM   18  C   UNL     1     -44.541  59.441 -51.715  1.00  0.00     0.030 A 
HETATM   19  C   UNL     1     -44.186  60.465 -50.837  1.00  0.00     0.036 A 
HETATM   20  C   UNL     1     -42.838  60.599 -50.484  1.00  0.00     0.030 A 
HETATM   21  C   UNL     1     -41.863  59.739 -51.002  1.00  0.00     0.011 A 
BRANCH  19  22
HETATM   22  N   UNL     1     -45.081  61.380 -50.259  1.00  0.00    -0.303 N 
HETATM   23  C   UNL     1     -45.861  61.328 -49.132  1.00  0.00     0.364 C 
HETATM   24  O   UNL     1     -46.554  62.293 -48.825  1.00  0.00    -0.238 OA
HETATM   25  H   UNL     1     -45.213  62.265 -50.732  1.00  0.00     0.171 HD
BRANCH  23  26
HETATM   26  O   UNL     1     -45.818  60.167 -48.437  1.00  0.00    -0.309 OA
HETATM   27  C   UNL     1     -45.859  60.336 -47.018  1.00  0.00     0.215 C 
ENDBRANCH  23  26
ENDBRANCH  19  22
ENDBRANCH  15  16
ENDBRANCH   1  15
TORSDOF 6
ENDMDL
MODEL 10
REMARK VINA RESULT:      -6.7      1.493      1.781
REMARK  6 active torsions:
REMARK  status: ('A' for Active; 'I' for Inactive)
REMARK    1  A    between atoms: C_2  and  N_3 
REMARK    2  A    between atoms: C_2  and  C_18 
REMARK    3  A    between atoms: N_3  and  C_6 
REMARK    4  A    between atoms: C_6  and  C_7 
REMARK    5  A    between atoms: C_10  and  N_11 
REMARK       I    between atoms: N_11  and  C_12 
REMARK    6  A    between atoms: C_12  and  O_13 
ROOT
HETATM    1  N   UNL     1     -41.992  56.073 -52.599  1.00  0.00    -0.061 N 
HETATM    2  H   UNL     1     -42.309  55.255 -53.138  1.00  0.00     0.278 HD
HETATM    3  H   UNL     1     -42.844  56.347 -52.086  1.00  0.00     0.278 HD
ENDROOT
BRANCH   1   4
HETATM    4  C   UNL     1     -40.995  55.580 -51.578  1.00  0.00     0.241 C 
HETATM    5  C   UNL     1     -41.609  55.661 -50.183  1.00  0.00     0.047 C 
BRANCH   4   6
HETATM    6  C   UNL     1     -40.634  54.155 -51.917  1.00  0.00     0.106 A 
HETATM    7  S   UNL     1     -40.056  53.071 -50.729  1.00  0.00    -0.070 SA
HETATM    8  C   UNL     1     -39.943  51.832 -51.921  1.00  0.00     0.035 A 
HETATM    9  C   UNL     1     -40.339  52.350 -53.157  1.00  0.00     0.075 A 
HETATM   10  C   UNL     1     -39.533  50.497 -51.773  1.00  0.00     0.021 A 
HETATM   11  N   UNL     1     -40.716  53.689 -53.145  1.00  0.00    -0.243 NA
HETATM   12  C   UNL     1     -40.325  51.504 -54.284  1.00  0.00     0.033 A 
HETATM   13  C   UNL     1     -39.922  50.172 -54.146  1.00  0.00     0.002 A 
HETATM   14  C   UNL     1     -39.531  49.677 -52.906  1.00  0.00     0.002 A 
ENDBRANCH   4   6
ENDBRANCH   1   4
BRANCH   1  15
HETATM   15  C   UNL     1     -41.567  57.136 -53.539  1.00  0.00     0.271 C 
BRANCH  15  16
HETATM   16  C   UNL     1     -42.426  57.152 -54.772  1.00  0.00    -0.033 A 
HETATM   17  C   UNL     1     -42.106  56.355 -55.878  1.00  0.00     0.011 A 
HETATM   18  C   UNL     1     -42.899  56.380 -57.034  1.00  0.00     0.030 A 
HETATM   19  C   UNL     1     -44.027  57.196 -57.109  1.00  0.00     0.036 A 
HETATM   20  C   UNL     1     -44.348  57.987 -55.998  1.00  0.00     0.030 A 
HETATM   21  C   UNL     1     -43.557  57.972 -54.844  1.00  0.00     0.011 A 
BRANCH  19  22
HETATM   22  N   UNL     1     -44.889  57.286 -58.214  1.00  0.00    -0.303 N 
HETATM   23  C   UNL     1     -44.891  58.086 -59.326  1.00  0.00     0.364 C 
HETATM   24  O   UNL     1     -45.763  57.946 -60.178  1.00  0.00    -0.238 OA
HETATM   25  H   UNL     1     -45.683  56.657 -58.237  1.00  0.00     0.171 HD
BRANCH  23  26
HETATM   26  O   UNL     1     -43.906  59.014 -59.388  1.00  0.00    -0.309 OA
HETATM   27  C   UNL     1     -43.522  59.368 -60.719  1.00  0.00     0.215 C 
ENDBRANCH  23  26
ENDBRANCH  19  22
ENDBRANCH  15  16
ENDBRANCH   1  15
TORSDOF 6
ENDMDL
