MODEL 1
REMARK VINA RESULT:      -7.3      0.000      0.000
REMARK  2 active torsions:
REMARK  status: ('A' for Active; 'I' for Inactive)
REMARK    1  A    between atoms: S_2  and  N_3 
REMARK    2  A    between atoms: C_10  and  N_11 
ROOT
HETATM    1  N   UNL     1     -44.010  58.820 -52.425  1.00  0.00    -0.311 N 
HETATM    2  C   UNL     1     -42.598  59.260 -52.371  1.00  0.00     0.138 C 
HETATM    3  C   UNL     1     -41.766  58.349 -51.469  1.00  0.00     0.059 C 
HETATM    4  C   UNL     1     -41.924  56.848 -51.804  1.00  0.00     0.073 C 
HETATM    5  O   UNL     1     -41.239  56.643 -53.054  1.00  0.00    -0.339 OA
HETATM    6  C   UNL     1     -40.903  55.360 -53.384  1.00  0.00     0.078 A 
HETATM    7  C   UNL     1     -40.885  54.297 -52.472  1.00  0.00     0.005 A 
HETATM    8  C   UNL     1     -41.230  54.546 -51.032  1.00  0.00     0.222 C 
HETATM    9  C   UNL     1     -41.222  56.036 -50.704  1.00  0.00     0.076 C 
HETATM   10  C   UNL     1     -40.561  55.157 -54.721  1.00  0.00     0.037 A 
HETATM   11  C   UNL     1     -40.239  53.882 -55.175  1.00  0.00     0.003 A 
HETATM   12  C   UNL     1     -40.264  52.806 -54.293  1.00  0.00     0.001 A 
HETATM   13  C   UNL     1     -40.591  53.008 -52.950  1.00  0.00     0.012 A 
HETATM   14  C   UNL     1     -43.418  56.482 -51.952  1.00  0.00     0.059 C 
HETATM   15  C   UNL     1     -44.135  57.429 -52.909  1.00  0.00     0.138 C 
ENDROOT
BRANCH   8  16
HETATM   16  N   UNL     1     -40.279  53.883 -50.092  1.00  0.00    -0.071 N 
HETATM   17  H   UNL     1     -40.690  53.770 -49.159  1.00  0.00     0.275 HD
HETATM   18  H   UNL     1     -40.031  52.945 -50.434  1.00  0.00     0.275 HD
HETATM   19  H   UNL     1     -39.412  54.423 -49.982  1.00  0.00     0.275 HD
ENDBRANCH   8  16
BRANCH   1  20
HETATM   20  S   UNL     1     -45.062  59.288 -51.175  1.00  0.00     0.224 S 
HETATM   21  C   UNL     1     -46.273  60.263 -52.046  1.00  0.00     0.186 C 
HETATM   22  O   UNL     1     -44.313  60.139 -50.276  1.00  0.00    -0.206 OA
HETATM   23  O   UNL     1     -45.717  58.096 -50.684  1.00  0.00    -0.206 OA
ENDBRANCH   1  20
TORSDOF 2
ENDMDL
MODEL 2
REMARK VINA RESULT:      -7.3      3.048      4.481
REMARK  2 active torsions:
REMARK  status: ('A' for Active; 'I' for Inactive)
REMARK    1  A    between atoms: S_2  and  N_3 
REMARK    2  A    between atoms: C_10  and  N_11 
ROOT
HETATM    1  N   UNL     1     -43.352  57.210 -54.856  1.00  0.00    -0.311 N 
HETATM    2  C   UNL     1     -44.308  56.183 -54.384  1.00  0.00     0.138 C 
HETATM    3  C   UNL     1     -43.656  54.803 -54.323  1.00  0.00     0.059 C 
HETATM    4  C   UNL     1     -42.319  54.791 -53.548  1.00  0.00     0.073 C 
HETATM    5  O   UNL     1     -42.659  54.959 -52.160  1.00  0.00    -0.339 OA
HETATM    6  C   UNL     1     -41.716  54.612 -51.234  1.00  0.00     0.078 A 
HETATM    7  C   UNL     1     -40.596  53.821 -51.518  1.00  0.00     0.005 A 
HETATM    8  C   UNL     1     -40.395  53.286 -52.906  1.00  0.00     0.222 C 
HETATM    9  C   UNL     1     -41.664  53.415 -53.745  1.00  0.00     0.076 C 
HETATM   10  C   UNL     1     -41.936  55.098 -49.945  1.00  0.00     0.037 A 
HETATM   11  C   UNL     1     -41.019  54.836 -48.932  1.00  0.00     0.003 A 
HETATM   12  C   UNL     1     -39.875  54.093 -49.209  1.00  0.00     0.001 A 
HETATM   13  C   UNL     1     -39.659  53.592 -50.495  1.00  0.00     0.012 A 
HETATM   14  C   UNL     1     -41.414  55.953 -54.016  1.00  0.00     0.059 C 
HETATM   15  C   UNL     1     -42.155  57.286 -53.992  1.00  0.00     0.138 C 
ENDROOT
BRANCH   8  16
HETATM   16  N   UNL     1     -40.006  51.845 -52.915  1.00  0.00    -0.071 N 
HETATM   17  H   UNL     1     -39.222  51.664 -52.279  1.00  0.00     0.275 HD
HETATM   18  H   UNL     1     -40.793  51.258 -52.608  1.00  0.00     0.275 HD
HETATM   19  H   UNL     1     -39.720  51.532 -53.851  1.00  0.00     0.275 HD
ENDBRANCH   8  16
BRANCH   1  20
HETATM   20  S   UNL     1     -43.096  57.383 -56.527  1.00  0.00     0.224 S 
HETATM   21  C   UNL     1     -44.685  57.956 -57.094  1.00  0.00     0.186 C 
HETATM   22  O   UNL     1     -42.839  56.064 -57.064  1.00  0.00    -0.206 OA
HETATM   23  O   UNL     1     -42.142  58.453 -56.716  1.00  0.00    -0.206 OA
ENDBRANCH   1  20
TORSDOF 2
ENDMDL
MODEL 3
REMARK VINA RESULT:      -7.1      2.310      3.200
REMARK  2 active torsions:
REMARK  status: ('A' for Active; 'I' for Inactive)
REMARK    1  A    between atoms: S_2  and  N_3 
REMARK    2  A    between atoms: C_10  and  N_11 
ROOT
HETATM    1  N   UNL     1     -42.180  58.571 -51.561  1.00  0.00    -0.311 N 
HETATM    2  C   UNL     1     -43.178  57.656 -50.962  1.00  0.00     0.138 C 
HETATM    3  C   UNL     1     -43.842  56.784 -52.027  1.00  0.00     0.059 C 
HETATM    4  C   UNL     1     -42.829  56.064 -52.946  1.00  0.00     0.073 C 
HETATM    5  O   UNL     1     -42.217  55.039 -52.141  1.00  0.00    -0.339 OA
HETATM    6  C   UNL     1     -41.572  54.027 -52.795  1.00  0.00     0.078 A 
HETATM    7  C   UNL     1     -41.737  53.745 -54.157  1.00  0.00     0.005 A 
HETATM    8  C   UNL     1     -42.687  54.570 -54.977  1.00  0.00     0.222 C 
HETATM    9  C   UNL     1     -43.610  55.405 -54.095  1.00  0.00     0.076 C 
HETATM   10  C   UNL     1     -40.715  53.257 -52.008  1.00  0.00     0.037 A 
HETATM   11  C   UNL     1     -39.979  52.224 -52.579  1.00  0.00     0.003 A 
HETATM   12  C   UNL     1     -40.094  51.962 -53.941  1.00  0.00     0.001 A 
HETATM   13  C   UNL     1     -40.963  52.721 -54.730  1.00  0.00     0.012 A 
HETATM   14  C   UNL     1     -41.755  57.055 -53.448  1.00  0.00     0.059 C 
HETATM   15  C   UNL     1     -41.130  57.835 -52.296  1.00  0.00     0.138 C 
ENDROOT
BRANCH   8  16
HETATM   16  N   UNL     1     -43.556  53.736 -55.859  1.00  0.00    -0.071 N 
HETATM   17  H   UNL     1     -43.205  53.718 -56.823  1.00  0.00     0.275 HD
HETATM   18  H   UNL     1     -43.582  52.765 -55.522  1.00  0.00     0.275 HD
HETATM   19  H   UNL     1     -44.520  54.090 -55.890  1.00  0.00     0.275 HD
ENDBRANCH   8  16
BRANCH   1  20
HETATM   20  S   UNL     1     -42.717  60.027 -52.254  1.00  0.00     0.224 S 
HETATM   21  C   UNL     1     -42.713  61.133 -50.857  1.00  0.00     0.186 C 
HETATM   22  O   UNL     1     -44.078  59.817 -52.699  1.00  0.00    -0.206 OA
HETATM   23  O   UNL     1     -41.701  60.472 -53.181  1.00  0.00    -0.206 OA
ENDBRANCH   1  20
TORSDOF 2
ENDMDL
MODEL 4
REMARK VINA RESULT:      -6.9     16.254     18.047
REMARK  2 active torsions:
REMARK  status: ('A' for Active; 'I' for Inactive)
REMARK    1  A    between atoms: S_2  and  N_3 
REMARK    2  A    between atoms: C_10  and  N_11 
ROOT
HETATM    1  N   UNL     1     -36.416  40.288 -54.295  1.00  0.00    -0.311 N 
HETATM    2  C   UNL     1     -37.817  40.743 -54.447  1.00  0.00     0.138 C 
HETATM    3  C   UNL     1     -37.965  41.700 -55.629  1.00  0.00     0.059 C 
HETATM    4  C   UNL     1     -37.357  41.153 -56.939  1.00  0.00     0.073 C 
HETATM    5  O   UNL     1     -38.231  40.095 -57.375  1.00  0.00    -0.339 OA
HETATM    6  C   UNL     1     -38.139  39.700 -58.680  1.00  0.00     0.078 A 
HETATM    7  C   UNL     1     -37.507  40.449 -59.681  1.00  0.00     0.005 A 
HETATM    8  C   UNL     1     -36.898  41.779 -59.343  1.00  0.00     0.222 C 
HETATM    9  C   UNL     1     -37.372  42.282 -57.982  1.00  0.00     0.076 C 
HETATM   10  C   UNL     1     -38.735  38.474 -58.977  1.00  0.00     0.037 A 
HETATM   11  C   UNL     1     -38.669  37.958 -60.267  1.00  0.00     0.003 A 
HETATM   12  C   UNL     1     -38.002  38.666 -61.263  1.00  0.00     0.001 A 
HETATM   13  C   UNL     1     -37.418  39.902 -60.973  1.00  0.00     0.012 A 
HETATM   14  C   UNL     1     -35.937  40.597 -56.686  1.00  0.00     0.059 C 
HETATM   15  C   UNL     1     -35.920  39.619 -55.516  1.00  0.00     0.138 C 
ENDROOT
BRANCH   8  16
HETATM   16  N   UNL     1     -37.234  42.834 -60.344  1.00  0.00    -0.071 N 
HETATM   17  H   UNL     1     -38.029  42.556 -60.930  1.00  0.00     0.275 HD
HETATM   18  H   UNL     1     -37.494  43.710 -59.870  1.00  0.00     0.275 HD
HETATM   19  H   UNL     1     -36.445  43.031 -60.971  1.00  0.00     0.275 HD
ENDBRANCH   8  16
BRANCH   1  20
HETATM   20  S   UNL     1     -35.315  41.289 -53.474  1.00  0.00     0.224 S 
HETATM   21  C   UNL     1     -35.593  40.839 -51.772  1.00  0.00     0.186 C 
HETATM   22  O   UNL     1     -35.735  42.657 -53.686  1.00  0.00    -0.206 OA
HETATM   23  O   UNL     1     -33.982  40.864 -53.837  1.00  0.00    -0.206 OA
ENDBRANCH   1  20
TORSDOF 2
ENDMDL
MODEL 5
REMARK VINA RESULT:      -6.3     16.416     18.011
REMARK  2 active torsions:
REMARK  status: ('A' for Active; 'I' for Inactive)
REMARK    1  A    between atoms: S_2  and  N_3 
REMARK    2  A    between atoms: C_10  and  N_11 
ROOT
HETATM    1  N   UNL     1     -35.581  40.958 -56.250  1.00  0.00    -0.311 N 
HETATM    2  C   UNL     1     -35.443  42.266 -55.568  1.00  0.00     0.138 C 
HETATM    3  C   UNL     1     -36.121  42.252 -54.199  1.00  0.00     0.059 C 
HETATM    4  C   UNL     1     -35.694  41.058 -53.317  1.00  0.00     0.073 C 
HETATM    5  O   UNL     1     -34.338  41.323 -52.913  1.00  0.00    -0.339 OA
HETATM    6  C   UNL     1     -33.853  40.629 -51.839  1.00  0.00     0.078 A 
HETATM    7  C   UNL     1     -34.660  39.938 -50.927  1.00  0.00     0.005 A 
HETATM    8  C   UNL     1     -36.152  39.952 -51.092  1.00  0.00     0.222 C 
HETATM    9  C   UNL     1     -36.596  41.035 -52.072  1.00  0.00     0.076 C 
HETATM   10  C   UNL     1     -32.466  40.651 -51.691  1.00  0.00     0.037 A 
HETATM   11  C   UNL     1     -31.863  39.946 -50.653  1.00  0.00     0.003 A 
HETATM   12  C   UNL     1     -32.646  39.213 -49.767  1.00  0.00     0.001 A 
HETATM   13  C   UNL     1     -34.037  39.202 -49.903  1.00  0.00     0.012 A 
HETATM   14  C   UNL     1     -35.759  39.741 -54.122  1.00  0.00     0.059 C 
HETATM   15  C   UNL     1     -35.011  39.856 -55.446  1.00  0.00     0.138 C 
ENDROOT
BRANCH   8  16
HETATM   16  N   UNL     1     -36.869  40.202 -49.807  1.00  0.00    -0.071 N 
HETATM   17  H   UNL     1     -36.975  41.206 -49.625  1.00  0.00     0.275 HD
HETATM   18  H   UNL     1     -37.812  39.792 -49.836  1.00  0.00     0.275 HD
HETATM   19  H   UNL     1     -36.369  39.796 -49.006  1.00  0.00     0.275 HD
ENDBRANCH   8  16
BRANCH   1  20
HETATM   20  S   UNL     1     -37.018  40.622 -57.092  1.00  0.00     0.224 S 
HETATM   21  C   UNL     1     -36.857  41.650 -58.538  1.00  0.00     0.186 C 
HETATM   22  O   UNL     1     -38.117  41.100 -56.280  1.00  0.00    -0.206 OA
HETATM   23  O   UNL     1     -36.965  39.241 -57.516  1.00  0.00    -0.206 OA
ENDBRANCH   1  20
TORSDOF 2
ENDMDL
MODEL 6
REMARK VINA RESULT:      -6.1     17.475     19.742
REMARK  2 active torsions:
REMARK  status: ('A' for Active; 'I' for Inactive)
REMARK    1  A    between atoms: S_2  and  N_3 
REMARK    2  A    between atoms: C_10  and  N_11 
ROOT
HETATM    1  N   UNL     1     -32.240  38.275 -56.093  1.00  0.00    -0.311 N 
HETATM    2  C   UNL     1     -33.478  37.561 -55.707  1.00  0.00     0.138 C 
HETATM    3  C   UNL     1     -34.544  38.532 -55.200  1.00  0.00     0.059 C 
HETATM    4  C   UNL     1     -34.797  39.718 -56.158  1.00  0.00     0.073 C 
HETATM    5  O   UNL     1     -35.490  39.172 -57.296  1.00  0.00    -0.339 OA
HETATM    6  C   UNL     1     -36.158  40.047 -58.106  1.00  0.00     0.078 A 
HETATM    7  C   UNL     1     -36.483  41.359 -57.740  1.00  0.00     0.005 A 
HETATM    8  C   UNL     1     -36.108  41.865 -56.376  1.00  0.00     0.222 C 
HETATM    9  C   UNL     1     -35.714  40.723 -55.444  1.00  0.00     0.076 C 
HETATM   10  C   UNL     1     -36.518  39.547 -59.357  1.00  0.00     0.037 A 
HETATM   11  C   UNL     1     -37.170  40.364 -60.276  1.00  0.00     0.003 A 
HETATM   12  C   UNL     1     -37.456  41.686 -59.947  1.00  0.00     0.001 A 
HETATM   13  C   UNL     1     -37.110  42.185 -58.688  1.00  0.00     0.012 A 
HETATM   14  C   UNL     1     -33.458  40.347 -56.605  1.00  0.00     0.059 C 
HETATM   15  C   UNL     1     -32.493  39.292 -57.135  1.00  0.00     0.138 C 
ENDROOT
BRANCH   8  16
HETATM   16  N   UNL     1     -37.221  42.609 -55.715  1.00  0.00    -0.071 N 
HETATM   17  H   UNL     1     -37.076  43.623 -55.765  1.00  0.00     0.275 HD
HETATM   18  H   UNL     1     -38.116  42.403 -56.179  1.00  0.00     0.275 HD
HETATM   19  H   UNL     1     -37.311  42.359 -54.723  1.00  0.00     0.275 HD
ENDBRANCH   8  16
BRANCH   1  20
HETATM   20  S   UNL     1     -31.122  38.688 -54.881  1.00  0.00     0.224 S 
HETATM   21  C   UNL     1     -31.433  37.446 -53.642  1.00  0.00     0.186 C 
HETATM   22  O   UNL     1     -31.501  39.987 -54.369  1.00  0.00    -0.206 OA
HETATM   23  O   UNL     1     -29.796  38.466 -55.413  1.00  0.00    -0.206 OA
ENDBRANCH   1  20
TORSDOF 2
ENDMDL
MODEL 7
REMARK VINA RESULT:      -6.1      5.055      6.466
REMARK  2 active torsions:
REMARK  status: ('A' for Active; 'I' for Inactive)
REMARK    1  A    between atoms: S_2  and  N_3 
REMARK    2  A    between atoms: C_10  and  N_11 
ROOT
HETATM    1  N   UNL     1     -43.326  58.972 -54.264  1.00  0.00    -0.311 N 
HETATM    2  C   UNL     1     -43.462  60.102 -55.211  1.00  0.00     0.138 C 
HETATM    3  C   UNL     1     -42.682  59.843 -56.500  1.00  0.00     0.059 C 
HETATM    4  C   UNL     1     -42.994  58.471 -57.139  1.00  0.00     0.073 C 
HETATM    5  O   UNL     1     -44.325  58.574 -57.678  1.00  0.00    -0.339 OA
HETATM    6  C   UNL     1     -44.698  57.648 -58.612  1.00  0.00     0.078 A 
HETATM    7  C   UNL     1     -43.798  56.828 -59.304  1.00  0.00     0.005 A 
HETATM    8  C   UNL     1     -42.325  56.958 -59.047  1.00  0.00     0.222 C 
HETATM    9  C   UNL     1     -41.999  58.241 -58.288  1.00  0.00     0.076 C 
HETATM   10  C   UNL     1     -46.070  57.563 -58.854  1.00  0.00     0.037 A 
HETATM   11  C   UNL     1     -46.564  56.629 -59.758  1.00  0.00     0.003 A 
HETATM   12  C   UNL     1     -45.688  55.772 -60.418  1.00  0.00     0.001 A 
HETATM   13  C   UNL     1     -44.312  55.865 -60.190  1.00  0.00     0.012 A 
HETATM   14  C   UNL     1     -42.939  57.354 -56.072  1.00  0.00     0.059 C 
HETATM   15  C   UNL     1     -43.789  57.699 -54.855  1.00  0.00     0.138 C 
ENDROOT
BRANCH   8  16
HETATM   16  N   UNL     1     -41.522  56.976 -60.306  1.00  0.00    -0.071 N 
HETATM   17  H   UNL     1     -40.847  56.204 -60.331  1.00  0.00     0.275 HD
HETATM   18  H   UNL     1     -42.136  56.873 -61.124  1.00  0.00     0.275 HD
HETATM   19  H   UNL     1     -40.993  57.850 -60.409  1.00  0.00     0.275 HD
ENDBRANCH   8  16
BRANCH   1  20
HETATM   20  S   UNL     1     -41.944  58.895 -53.276  1.00  0.00     0.224 S 
HETATM   21  C   UNL     1     -42.420  59.900 -51.884  1.00  0.00     0.186 C 
HETATM   22  O   UNL     1     -40.865  59.541 -53.992  1.00  0.00    -0.206 OA
HETATM   23  O   UNL     1     -41.808  57.531 -52.818  1.00  0.00    -0.206 OA
ENDBRANCH   1  20
TORSDOF 2
ENDMDL
MODEL 8
REMARK VINA RESULT:      -6.0     16.921     19.065
REMARK  2 active torsions:
REMARK  status: ('A' for Active; 'I' for Inactive)
REMARK    1  A    between atoms: S_2  and  N_3 
REMARK    2  A    between atoms: C_10  and  N_11 
ROOT
HETATM    1  N   UNL     1     -32.171  38.842 -50.936  1.00  0.00    -0.311 N 
HETATM    2  C   UNL     1     -33.115  37.855 -51.507  1.00  0.00     0.138 C 
HETATM    3  C   UNL     1     -34.522  38.439 -51.632  1.00  0.00     0.059 C 
HETATM    4  C   UNL     1     -34.556  39.804 -52.355  1.00  0.00     0.073 C 
HETATM    5  O   UNL     1     -34.285  39.529 -53.742  1.00  0.00    -0.339 OA
HETATM    6  C   UNL     1     -34.623  40.491 -54.652  1.00  0.00     0.078 A 
HETATM    7  C   UNL     1     -35.489  41.558 -54.377  1.00  0.00     0.005 A 
HETATM    8  C   UNL     1     -36.118  41.674 -53.019  1.00  0.00     0.222 C 
HETATM    9  C   UNL     1     -35.974  40.381 -52.222  1.00  0.00     0.076 C 
HETATM   10  C   UNL     1     -34.048  40.348 -55.914  1.00  0.00     0.037 A 
HETATM   11  C   UNL     1     -34.295  41.292 -56.907  1.00  0.00     0.003 A 
HETATM   12  C   UNL     1     -35.113  42.384 -56.635  1.00  0.00     0.001 A 
HETATM   13  C   UNL     1     -35.703  42.523 -55.377  1.00  0.00     0.012 A 
HETATM   14  C   UNL     1     -33.474  40.747 -51.780  1.00  0.00     0.059 C 
HETATM   15  C   UNL     1     -32.105  40.075 -51.748  1.00  0.00     0.138 C 
ENDROOT
BRANCH   8  16
HETATM   16  N   UNL     1     -37.575  41.990 -53.087  1.00  0.00    -0.071 N 
HETATM   17  H   UNL     1     -38.120  41.180 -53.400  1.00  0.00     0.275 HD
HETATM   18  H   UNL     1     -37.929  42.259 -52.159  1.00  0.00     0.275 HD
HETATM   19  H   UNL     1     -37.769  42.761 -53.738  1.00  0.00     0.275 HD
ENDBRANCH   8  16
BRANCH   1  20
HETATM   20  S   UNL     1     -32.114  39.038 -49.248  1.00  0.00     0.224 S 
HETATM   21  C   UNL     1     -32.148  37.352 -48.672  1.00  0.00     0.186 C 
HETATM   22  O   UNL     1     -33.334  39.709 -48.850  1.00  0.00    -0.206 OA
HETATM   23  O   UNL     1     -30.824  39.599 -48.915  1.00  0.00    -0.206 OA
ENDBRANCH   1  20
TORSDOF 2
ENDMDL
MODEL 9
REMARK VINA RESULT:      -6.0      2.345      3.451
REMARK  2 active torsions:
REMARK  status: ('A' for Active; 'I' for Inactive)
REMARK    1  A    between atoms: S_2  and  N_3 
REMARK    2  A    between atoms: C_10  and  N_11 
ROOT
HETATM    1  N   UNL     1     -42.921  60.678 -51.694  1.00  0.00    -0.311 N 
HETATM    2  C   UNL     1     -43.855  59.951 -50.804  1.00  0.00     0.138 C 
HETATM    3  C   UNL     1     -44.554  58.811 -51.545  1.00  0.00     0.059 C 
HETATM    4  C   UNL     1     -43.577  57.879 -52.295  1.00  0.00     0.073 C 
HETATM    5  O   UNL     1     -42.888  57.122 -51.282  1.00  0.00    -0.339 OA
HETATM    6  C   UNL     1     -42.253  55.977 -51.675  1.00  0.00     0.078 A 
HETATM    7  C   UNL     1     -42.491  55.330 -52.894  1.00  0.00     0.005 A 
HETATM    8  C   UNL     1     -43.511  55.886 -53.845  1.00  0.00     0.222 C 
HETATM    9  C   UNL     1     -44.404  56.920 -53.167  1.00  0.00     0.076 C 
HETATM   10  C   UNL     1     -41.330  55.465 -50.764  1.00  0.00     0.037 A 
HETATM   11  C   UNL     1     -40.598  54.323 -51.077  1.00  0.00     0.003 A 
HETATM   12  C   UNL     1     -40.786  53.696 -52.305  1.00  0.00     0.001 A 
HETATM   13  C   UNL     1     -41.722  54.197 -53.213  1.00  0.00     0.012 A 
HETATM   14  C   UNL     1     -42.565  58.707 -53.118  1.00  0.00     0.059 C 
HETATM   15  C   UNL     1     -41.896  59.781 -52.267  1.00  0.00     0.138 C 
ENDROOT
BRANCH   8  16
HETATM   16  N   UNL     1     -44.406  54.831 -54.406  1.00  0.00    -0.071 N 
HETATM   17  H   UNL     1     -44.166  54.615 -55.380  1.00  0.00     0.275 HD
HETATM   18  H   UNL     1     -44.317  53.960 -53.866  1.00  0.00     0.275 HD
HETATM   19  H   UNL     1     -45.392  55.119 -54.390  1.00  0.00     0.275 HD
ENDBRANCH   8  16
BRANCH   1  20
HETATM   20  S   UNL     1     -43.541  61.881 -52.723  1.00  0.00     0.224 S 
HETATM   21  C   UNL     1     -43.344  63.355 -51.742  1.00  0.00     0.186 C 
HETATM   22  O   UNL     1     -44.951  61.607 -52.907  1.00  0.00    -0.206 OA
HETATM   23  O   UNL     1     -42.658  61.980 -53.864  1.00  0.00    -0.206 OA
ENDBRANCH   1  20
TORSDOF 2
ENDMDL
MODEL 10
REMARK VINA RESULT:      -6.0      3.035      5.155
REMARK  2 active torsions:
REMARK  status: ('A' for Active; 'I' for Inactive)
REMARK    1  A    between atoms: S_2  and  N_3 
REMARK    2  A    between atoms: C_10  and  N_11 
ROOT
HETATM    1  N   UNL     1     -41.623  54.012 -50.751  1.00  0.00    -0.311 N 
HETATM    2  C   UNL     1     -43.096  54.058 -50.891  1.00  0.00     0.138 C 
HETATM    3  C   UNL     1     -43.576  55.460 -51.264  1.00  0.00     0.059 C 
HETATM    4  C   UNL     1     -42.830  56.059 -52.478  1.00  0.00     0.073 C 
HETATM    5  O   UNL     1     -43.291  55.331 -53.631  1.00  0.00    -0.339 OA
HETATM    6  C   UNL     1     -43.083  55.896 -54.858  1.00  0.00     0.078 A 
HETATM    7  C   UNL     1     -42.757  57.244 -55.052  1.00  0.00     0.005 A 
HETATM    8  C   UNL     1     -42.639  58.159 -53.867  1.00  0.00     0.222 C 
HETATM    9  C   UNL     1     -43.243  57.533 -52.613  1.00  0.00     0.076 C 
HETATM   10  C   UNL     1     -43.224  55.034 -55.945  1.00  0.00     0.037 A 
HETATM   11  C   UNL     1     -42.998  55.496 -57.238  1.00  0.00     0.003 A 
HETATM   12  C   UNL     1     -42.624  56.820 -57.445  1.00  0.00     0.001 A 
HETATM   13  C   UNL     1     -42.497  57.691 -56.359  1.00  0.00     0.012 A 
HETATM   14  C   UNL     1     -41.303  55.881 -52.315  1.00  0.00     0.059 C 
HETATM   15  C   UNL     1     -40.939  54.436 -51.991  1.00  0.00     0.138 C 
ENDROOT
BRANCH   8  16
HETATM   16  N   UNL     1     -43.327  59.467 -54.082  1.00  0.00    -0.071 N 
HETATM   17  H   UNL     1     -44.101  59.596 -53.421  1.00  0.00     0.275 HD
HETATM   18  H   UNL     1     -42.670  60.246 -53.942  1.00  0.00     0.275 HD
HETATM   19  H   UNL     1     -43.716  59.542 -55.029  1.00  0.00     0.275 HD
ENDBRANCH   8  16
BRANCH   1  20
HETATM   20  S   UNL     1     -40.925  54.517 -49.286  1.00  0.00     0.224 S 
HETATM   21  C   UNL     1     -39.183  54.350 -49.621  1.00  0.00     0.186 C 
HETATM   22  O   UNL     1     -41.314  53.561 -48.270  1.00  0.00    -0.206 OA
HETATM   23  O   UNL     1     -41.217  55.923 -49.122  1.00  0.00    -0.206 OA
ENDBRANCH   1  20
TORSDOF 2
ENDMDL
