MODEL 1
REMARK VINA RESULT:      -8.3      0.000      0.000
REMARK  4 active torsions:
REMARK  status: ('A' for Active; 'I' for Inactive)
REMARK    1  A    between atoms: C_4  and  N_5 
REMARK       I    between atoms: N_5  and  C_6 
REMARK       I    between atoms: C_6  and  N_7 
REMARK    2  A    between atoms: N_7  and  C_8 
REMARK    3  A    between atoms: C_8  and  C_9 
REMARK    4  A    between atoms: C_12  and  C_13 
ROOT
HETATM    1  N   UNL     1     -40.096  53.548 -51.454  1.00  0.00    -0.309 N 
HETATM    2  C   UNL     1     -41.122  54.428 -51.578  1.00  0.00     0.321 C 
HETATM    3  N   UNL     1     -42.162  54.097 -52.383  1.00  0.00    -0.335 N 
HETATM    4  O   UNL     1     -41.060  55.510 -50.995  1.00  0.00    -0.247 OA
HETATM    5  H   UNL     1     -39.315  53.981 -50.974  1.00  0.00     0.170 HD
HETATM    6  H   UNL     1     -41.922  53.523 -53.180  1.00  0.00     0.164 HD
ENDROOT
BRANCH   3   7
HETATM    7  C   UNL     1     -43.219  55.064 -52.601  1.00  0.00     0.213 C 
BRANCH   7   8
HETATM    8  C   UNL     1     -42.968  55.840 -53.837  1.00  0.00     0.190 A 
HETATM    9  O   UNL     1     -42.470  57.096 -53.665  1.00  0.00    -0.194 OA
HETATM   10  N   UNL     1     -42.292  57.631 -54.934  1.00  0.00    -0.106 NA
HETATM   11  C   UNL     1     -42.698  56.651 -55.759  1.00  0.00     0.189 A 
HETATM   12  N   UNL     1     -43.122  55.511 -55.103  1.00  0.00    -0.202 NA
BRANCH  11  13
HETATM   13  C   UNL     1     -42.690  56.765 -57.215  1.00  0.00     0.014 A 
HETATM   14  C   UNL     1     -43.104  55.689 -58.014  1.00  0.00     0.015 A 
HETATM   15  C   UNL     1     -43.097  55.793 -59.408  1.00  0.00     0.001 A 
HETATM   16  C   UNL     1     -42.677  56.974 -60.018  1.00  0.00     0.000 A 
HETATM   17  C   UNL     1     -42.263  58.051 -59.238  1.00  0.00     0.001 A 
HETATM   18  C   UNL     1     -42.269  57.947 -57.844  1.00  0.00     0.015 A 
ENDBRANCH  11  13
ENDBRANCH   7   8
ENDBRANCH   3   7
BRANCH   1  19
HETATM   19  C   UNL     1     -39.932  52.195 -51.800  1.00  0.00     0.036 A 
HETATM   20  C   UNL     1     -39.879  51.705 -53.108  1.00  0.00     0.036 A 
HETATM   21  C   UNL     1     -39.704  50.333 -53.357  1.00  0.00    -0.060 A 
HETATM   22  C   UNL     1     -39.674  49.815 -54.765  1.00  0.00     0.048 C 
HETATM   23  C   UNL     1     -39.631  49.443 -52.279  1.00  0.00     0.007 A 
HETATM   24  C   UNL     1     -39.715  49.916 -50.974  1.00  0.00     0.003 A 
HETATM   25  C   UNL     1     -39.867  51.283 -50.737  1.00  0.00     0.029 A 
ENDBRANCH   1  19
TORSDOF 4
ENDMDL
MODEL 2
REMARK VINA RESULT:      -8.3      2.011      7.744
REMARK  4 active torsions:
REMARK  status: ('A' for Active; 'I' for Inactive)
REMARK    1  A    between atoms: C_4  and  N_5 
REMARK       I    between atoms: N_5  and  C_6 
REMARK       I    between atoms: C_6  and  N_7 
REMARK    2  A    between atoms: N_7  and  C_8 
REMARK    3  A    between atoms: C_8  and  C_9 
REMARK    4  A    between atoms: C_12  and  C_13 
ROOT
HETATM    1  N   UNL     1     -43.770  57.817 -57.627  1.00  0.00    -0.309 N 
HETATM    2  C   UNL     1     -43.668  57.760 -56.275  1.00  0.00     0.321 C 
HETATM    3  N   UNL     1     -44.398  56.829 -55.612  1.00  0.00    -0.335 N 
HETATM    4  O   UNL     1     -42.956  58.576 -55.691  1.00  0.00    -0.247 OA
HETATM    5  H   UNL     1     -43.321  58.654 -57.981  1.00  0.00     0.170 HD
HETATM    6  H   UNL     1     -45.285  56.595 -56.037  1.00  0.00     0.164 HD
ENDROOT
BRANCH   3   7
HETATM    7  C   UNL     1     -44.374  56.817 -54.163  1.00  0.00     0.213 C 
BRANCH   7   8
HETATM    8  C   UNL     1     -43.249  55.990 -53.668  1.00  0.00     0.190 A 
HETATM    9  O   UNL     1     -42.456  56.564 -52.721  1.00  0.00    -0.194 OA
HETATM   10  N   UNL     1     -41.491  55.623 -52.387  1.00  0.00    -0.106 NA
HETATM   11  C   UNL     1     -41.787  54.565 -53.161  1.00  0.00     0.189 A 
HETATM   12  N   UNL     1     -42.889  54.760 -53.972  1.00  0.00    -0.202 NA
BRANCH  11  13
HETATM   13  C   UNL     1     -41.028  53.318 -53.150  1.00  0.00     0.014 A 
HETATM   14  C   UNL     1     -40.317  52.929 -52.006  1.00  0.00     0.015 A 
HETATM   15  C   UNL     1     -39.587  51.736 -51.992  1.00  0.00     0.001 A 
HETATM   16  C   UNL     1     -39.562  50.920 -53.122  1.00  0.00     0.000 A 
HETATM   17  C   UNL     1     -40.263  51.293 -54.266  1.00  0.00     0.001 A 
HETATM   18  C   UNL     1     -40.992  52.485 -54.280  1.00  0.00     0.015 A 
ENDBRANCH  11  13
ENDBRANCH   7   8
ENDBRANCH   3   7
BRANCH   1  19
HETATM   19  C   UNL     1     -44.308  56.952 -58.597  1.00  0.00     0.036 A 
HETATM   20  C   UNL     1     -45.544  57.126 -59.225  1.00  0.00     0.036 A 
HETATM   21  C   UNL     1     -45.997  56.210 -60.190  1.00  0.00    -0.060 A 
HETATM   22  C   UNL     1     -47.338  56.393 -60.841  1.00  0.00     0.048 C 
HETATM   23  C   UNL     1     -45.220  55.086 -60.489  1.00  0.00     0.007 A 
HETATM   24  C   UNL     1     -44.003  54.886 -59.846  1.00  0.00     0.003 A 
HETATM   25  C   UNL     1     -43.552  55.813 -58.904  1.00  0.00     0.029 A 
ENDBRANCH   1  19
TORSDOF 4
ENDMDL
MODEL 3
REMARK VINA RESULT:      -8.3      1.164      7.654
REMARK  4 active torsions:
REMARK  status: ('A' for Active; 'I' for Inactive)
REMARK    1  A    between atoms: C_4  and  N_5 
REMARK       I    between atoms: N_5  and  C_6 
REMARK       I    between atoms: C_6  and  N_7 
REMARK    2  A    between atoms: N_7  and  C_8 
REMARK    3  A    between atoms: C_8  and  C_9 
REMARK    4  A    between atoms: C_12  and  C_13 
ROOT
HETATM    1  N   UNL     1     -43.906  56.706 -56.190  1.00  0.00    -0.309 N 
HETATM    2  C   UNL     1     -43.398  56.873 -54.942  1.00  0.00     0.321 C 
HETATM    3  N   UNL     1     -42.059  57.039 -54.809  1.00  0.00    -0.335 N 
HETATM    4  O   UNL     1     -44.155  56.825 -53.973  1.00  0.00    -0.247 OA
HETATM    5  H   UNL     1     -44.877  56.421 -56.140  1.00  0.00     0.170 HD
HETATM    6  H   UNL     1     -41.495  56.558 -55.497  1.00  0.00     0.164 HD
ENDROOT
BRANCH   3   7
HETATM    7  C   UNL     1     -41.489  57.123 -53.478  1.00  0.00     0.213 C 
BRANCH   7   8
HETATM    8  C   UNL     1     -41.130  55.775 -52.980  1.00  0.00     0.190 A 
HETATM    9  O   UNL     1     -41.121  55.620 -51.627  1.00  0.00    -0.194 OA
HETATM   10  N   UNL     1     -40.783  54.296 -51.380  1.00  0.00    -0.106 NA
HETATM   11  C   UNL     1     -40.620  53.768 -52.606  1.00  0.00     0.189 A 
HETATM   12  N   UNL     1     -40.836  54.669 -53.632  1.00  0.00    -0.202 NA
BRANCH  11  13
HETATM   13  C   UNL     1     -40.254  52.375 -52.845  1.00  0.00     0.014 A 
HETATM   14  C   UNL     1     -40.382  51.816 -54.125  1.00  0.00     0.015 A 
HETATM   15  C   UNL     1     -40.034  50.482 -54.358  1.00  0.00     0.001 A 
HETATM   16  C   UNL     1     -39.554  49.694 -53.314  1.00  0.00     0.000 A 
HETATM   17  C   UNL     1     -39.421  50.234 -52.037  1.00  0.00     0.001 A 
HETATM   18  C   UNL     1     -39.769  51.568 -51.804  1.00  0.00     0.015 A 
ENDBRANCH  11  13
ENDBRANCH   7   8
ENDBRANCH   3   7
BRANCH   1  19
HETATM   19  C   UNL     1     -43.386  56.897 -57.482  1.00  0.00     0.036 A 
HETATM   20  C   UNL     1     -43.033  58.135 -58.027  1.00  0.00     0.036 A 
HETATM   21  C   UNL     1     -42.513  58.227 -59.329  1.00  0.00    -0.060 A 
HETATM   22  C   UNL     1     -42.160  59.564 -59.913  1.00  0.00     0.048 C 
HETATM   23  C   UNL     1     -42.392  57.069 -60.105  1.00  0.00     0.007 A 
HETATM   24  C   UNL     1     -42.771  55.836 -59.584  1.00  0.00     0.003 A 
HETATM   25  C   UNL     1     -43.267  55.752 -58.282  1.00  0.00     0.029 A 
ENDBRANCH   1  19
TORSDOF 4
ENDMDL
MODEL 4
REMARK VINA RESULT:      -7.9      1.618      7.518
REMARK  4 active torsions:
REMARK  status: ('A' for Active; 'I' for Inactive)
REMARK    1  A    between atoms: C_4  and  N_5 
REMARK       I    between atoms: N_5  and  C_6 
REMARK       I    between atoms: C_6  and  N_7 
REMARK    2  A    between atoms: N_7  and  C_8 
REMARK    3  A    between atoms: C_8  and  C_9 
REMARK    4  A    between atoms: C_12  and  C_13 
ROOT
HETATM    1  N   UNL     1     -43.377  58.826 -56.896  1.00  0.00    -0.309 N 
HETATM    2  C   UNL     1     -42.835  58.946 -55.657  1.00  0.00     0.321 C 
HETATM    3  N   UNL     1     -42.058  57.937 -55.192  1.00  0.00    -0.335 N 
HETATM    4  O   UNL     1     -43.098  59.940 -54.980  1.00  0.00    -0.247 OA
HETATM    5  H   UNL     1     -44.066  59.552 -57.053  1.00  0.00     0.170 HD
HETATM    6  H   UNL     1     -42.312  57.014 -55.518  1.00  0.00     0.164 HD
ENDROOT
BRANCH   3   7
HETATM    7  C   UNL     1     -41.551  58.007 -53.836  1.00  0.00     0.213 C 
BRANCH   7   8
HETATM    8  C   UNL     1     -41.343  56.647 -53.288  1.00  0.00     0.190 A 
HETATM    9  O   UNL     1     -41.737  56.455 -51.998  1.00  0.00    -0.194 OA
HETATM   10  N   UNL     1     -41.475  55.126 -51.695  1.00  0.00    -0.106 NA
HETATM   11  C   UNL     1     -40.946  54.633 -52.829  1.00  0.00     0.189 A 
HETATM   12  N   UNL     1     -40.855  55.560 -53.849  1.00  0.00    -0.202 NA
BRANCH  11  13
HETATM   13  C   UNL     1     -40.510  53.248 -52.982  1.00  0.00     0.014 A 
HETATM   14  C   UNL     1     -40.693  52.576 -54.199  1.00  0.00     0.015 A 
HETATM   15  C   UNL     1     -40.278  51.249 -54.350  1.00  0.00     0.001 A 
HETATM   16  C   UNL     1     -39.676  50.581 -53.286  1.00  0.00     0.000 A 
HETATM   17  C   UNL     1     -39.488  51.234 -52.070  1.00  0.00     0.001 A 
HETATM   18  C   UNL     1     -39.903  52.560 -51.919  1.00  0.00     0.015 A 
ENDBRANCH  11  13
ENDBRANCH   7   8
ENDBRANCH   3   7
BRANCH   1  19
HETATM   19  C   UNL     1     -43.139  57.960 -57.978  1.00  0.00     0.036 A 
HETATM   20  C   UNL     1     -43.821  56.761 -58.207  1.00  0.00     0.036 A 
HETATM   21  C   UNL     1     -43.519  55.962 -59.323  1.00  0.00    -0.060 A 
HETATM   22  C   UNL     1     -44.240  54.665 -59.546  1.00  0.00     0.048 C 
HETATM   23  C   UNL     1     -42.490  56.351 -60.188  1.00  0.00     0.007 A 
HETATM   24  C   UNL     1     -41.784  57.526 -59.952  1.00  0.00     0.003 A 
HETATM   25  C   UNL     1     -42.106  58.323 -58.852  1.00  0.00     0.029 A 
ENDBRANCH   1  19
TORSDOF 4
ENDMDL
MODEL 5
REMARK VINA RESULT:      -7.7      2.262      3.177
REMARK  4 active torsions:
REMARK  status: ('A' for Active; 'I' for Inactive)
REMARK    1  A    between atoms: C_4  and  N_5 
REMARK       I    between atoms: N_5  and  C_6 
REMARK       I    between atoms: C_6  and  N_7 
REMARK    2  A    between atoms: N_7  and  C_8 
REMARK    3  A    between atoms: C_8  and  C_9 
REMARK    4  A    between atoms: C_12  and  C_13 
ROOT
HETATM    1  N   UNL     1     -42.497  56.474 -50.748  1.00  0.00    -0.309 N 
HETATM    2  C   UNL     1     -42.652  57.634 -51.435  1.00  0.00     0.321 C 
HETATM    3  N   UNL     1     -41.642  58.047 -52.241  1.00  0.00    -0.335 N 
HETATM    4  O   UNL     1     -43.677  58.296 -51.274  1.00  0.00    -0.247 OA
HETATM    5  H   UNL     1     -43.233  56.369 -50.060  1.00  0.00     0.170 HD
HETATM    6  H   UNL     1     -40.714  57.792 -51.931  1.00  0.00     0.164 HD
ENDROOT
BRANCH   3   7
HETATM    7  C   UNL     1     -41.752  59.330 -52.905  1.00  0.00     0.213 C 
BRANCH   7   8
HETATM    8  C   UNL     1     -41.894  59.148 -54.369  1.00  0.00     0.190 A 
HETATM    9  O   UNL     1     -41.680  60.255 -55.133  1.00  0.00    -0.194 OA
HETATM   10  N   UNL     1     -41.842  59.863 -56.455  1.00  0.00    -0.106 NA
HETATM   11  C   UNL     1     -42.138  58.554 -56.372  1.00  0.00     0.189 A 
HETATM   12  N   UNL     1     -42.173  58.073 -55.077  1.00  0.00    -0.202 NA
BRANCH  11  13
HETATM   13  C   UNL     1     -42.396  57.708 -57.534  1.00  0.00     0.014 A 
HETATM   14  C   UNL     1     -43.114  56.512 -57.396  1.00  0.00     0.015 A 
HETATM   15  C   UNL     1     -43.361  55.698 -58.505  1.00  0.00     0.001 A 
HETATM   16  C   UNL     1     -42.894  56.072 -59.764  1.00  0.00     0.000 A 
HETATM   17  C   UNL     1     -42.179  57.257 -59.917  1.00  0.00     0.001 A 
HETATM   18  C   UNL     1     -41.931  58.071 -58.808  1.00  0.00     0.015 A 
ENDBRANCH  11  13
ENDBRANCH   7   8
ENDBRANCH   3   7
BRANCH   1  19
HETATM   19  C   UNL     1     -41.584  55.408 -50.839  1.00  0.00     0.036 A 
HETATM   20  C   UNL     1     -41.428  54.582 -51.956  1.00  0.00     0.036 A 
HETATM   21  C   UNL     1     -40.482  53.543 -51.958  1.00  0.00    -0.060 A 
HETATM   22  C   UNL     1     -40.341  52.647 -53.154  1.00  0.00     0.048 C 
HETATM   23  C   UNL     1     -39.721  53.305 -50.808  1.00  0.00     0.007 A 
HETATM   24  C   UNL     1     -39.890  54.101 -49.680  1.00  0.00     0.003 A 
HETATM   25  C   UNL     1     -40.818  55.143 -49.696  1.00  0.00     0.029 A 
ENDBRANCH   1  19
TORSDOF 4
ENDMDL
MODEL 6
REMARK VINA RESULT:      -7.3      2.332      7.888
REMARK  4 active torsions:
REMARK  status: ('A' for Active; 'I' for Inactive)
REMARK    1  A    between atoms: C_4  and  N_5 
REMARK       I    between atoms: N_5  and  C_6 
REMARK       I    between atoms: C_6  and  N_7 
REMARK    2  A    between atoms: N_7  and  C_8 
REMARK    3  A    between atoms: C_8  and  C_9 
REMARK    4  A    between atoms: C_12  and  C_13 
ROOT
HETATM    1  N   UNL     1     -42.989  58.726 -58.715  1.00  0.00    -0.309 N 
HETATM    2  C   UNL     1     -42.357  58.987 -57.543  1.00  0.00     0.321 C 
HETATM    3  N   UNL     1     -42.923  58.546 -56.393  1.00  0.00    -0.335 N 
HETATM    4  O   UNL     1     -41.320  59.649 -57.554  1.00  0.00    -0.247 OA
HETATM    5  H   UNL     1     -42.564  59.251 -59.471  1.00  0.00     0.170 HD
HETATM    6  H   UNL     1     -43.934  58.512 -56.397  1.00  0.00     0.164 HD
ENDROOT
BRANCH   3   7
HETATM    7  C   UNL     1     -42.312  58.899 -55.127  1.00  0.00     0.213 C 
BRANCH   7   8
HETATM    8  C   UNL     1     -42.018  57.683 -54.334  1.00  0.00     0.190 A 
HETATM    9  O   UNL     1     -42.427  57.703 -53.035  1.00  0.00    -0.194 OA
HETATM   10  N   UNL     1     -42.075  56.475 -52.488  1.00  0.00    -0.106 NA
HETATM   11  C   UNL     1     -41.485  55.824 -53.506  1.00  0.00     0.189 A 
HETATM   12  N   UNL     1     -41.439  56.552 -54.680  1.00  0.00    -0.202 NA
BRANCH  11  13
HETATM   13  C   UNL     1     -40.945  54.472 -53.396  1.00  0.00     0.014 A 
HETATM   14  C   UNL     1     -40.666  53.919 -52.138  1.00  0.00     0.015 A 
HETATM   15  C   UNL     1     -40.148  52.625 -52.028  1.00  0.00     0.001 A 
HETATM   16  C   UNL     1     -39.904  51.871 -53.174  1.00  0.00     0.000 A 
HETATM   17  C   UNL     1     -40.176  52.406 -54.431  1.00  0.00     0.001 A 
HETATM   18  C   UNL     1     -40.694  53.700 -54.541  1.00  0.00     0.015 A 
ENDBRANCH  11  13
ENDBRANCH   7   8
ENDBRANCH   3   7
BRANCH   1  19
HETATM   19  C   UNL     1     -44.038  57.864 -59.080  1.00  0.00     0.036 A 
HETATM   20  C   UNL     1     -43.895  56.499 -59.346  1.00  0.00     0.036 A 
HETATM   21  C   UNL     1     -45.006  55.713 -59.698  1.00  0.00    -0.060 A 
HETATM   22  C   UNL     1     -44.837  54.254 -60.006  1.00  0.00     0.048 C 
HETATM   23  C   UNL     1     -46.261  56.317 -59.829  1.00  0.00     0.007 A 
HETATM   24  C   UNL     1     -46.409  57.681 -59.597  1.00  0.00     0.003 A 
HETATM   25  C   UNL     1     -45.303  58.448 -59.228  1.00  0.00     0.029 A 
ENDBRANCH   1  19
TORSDOF 4
ENDMDL
MODEL 7
REMARK VINA RESULT:      -7.1      1.849      2.902
REMARK  4 active torsions:
REMARK  status: ('A' for Active; 'I' for Inactive)
REMARK    1  A    between atoms: C_4  and  N_5 
REMARK       I    between atoms: N_5  and  C_6 
REMARK       I    between atoms: C_6  and  N_7 
REMARK    2  A    between atoms: N_7  and  C_8 
REMARK    3  A    between atoms: C_8  and  C_9 
REMARK    4  A    between atoms: C_12  and  C_13 
ROOT
HETATM    1  N   UNL     1     -42.163  54.822 -52.316  1.00  0.00    -0.309 N 
HETATM    2  C   UNL     1     -42.412  56.040 -52.861  1.00  0.00     0.321 C 
HETATM    3  N   UNL     1     -41.583  56.492 -53.834  1.00  0.00    -0.335 N 
HETATM    4  O   UNL     1     -43.348  56.711 -52.430  1.00  0.00    -0.247 OA
HETATM    5  H   UNL     1     -42.738  54.678 -51.494  1.00  0.00     0.170 HD
HETATM    6  H   UNL     1     -40.622  56.188 -53.756  1.00  0.00     0.164 HD
ENDROOT
BRANCH   3   7
HETATM    7  C   UNL     1     -41.777  57.830 -54.358  1.00  0.00     0.213 C 
BRANCH   7   8
HETATM    8  C   UNL     1     -42.390  57.776 -55.706  1.00  0.00     0.190 A 
HETATM    9  O   UNL     1     -42.254  58.896 -56.469  1.00  0.00    -0.194 OA
HETATM   10  N   UNL     1     -42.874  58.628 -57.683  1.00  0.00    -0.106 NA
HETATM   11  C   UNL     1     -43.329  57.370 -57.544  1.00  0.00     0.189 A 
HETATM   12  N   UNL     1     -43.036  56.805 -56.317  1.00  0.00    -0.202 NA
BRANCH  11  13
HETATM   13  C   UNL     1     -44.059  56.655 -58.587  1.00  0.00     0.014 A 
HETATM   14  C   UNL     1     -43.647  55.378 -58.993  1.00  0.00     0.015 A 
HETATM   15  C   UNL     1     -44.343  54.690 -59.993  1.00  0.00     0.001 A 
HETATM   16  C   UNL     1     -45.457  55.272 -60.594  1.00  0.00     0.000 A 
HETATM   17  C   UNL     1     -45.878  56.540 -60.202  1.00  0.00     0.001 A 
HETATM   18  C   UNL     1     -45.183  57.228 -59.203  1.00  0.00     0.015 A 
ENDBRANCH  11  13
ENDBRANCH   7   8
ENDBRANCH   3   7
BRANCH   1  19
HETATM   19  C   UNL     1     -41.339  53.744 -52.686  1.00  0.00     0.036 A 
HETATM   20  C   UNL     1     -40.754  52.842 -51.792  1.00  0.00     0.036 A 
HETATM   21  C   UNL     1     -39.948  51.788 -52.255  1.00  0.00    -0.060 A 
HETATM   22  C   UNL     1     -39.306  50.841 -51.284  1.00  0.00     0.048 C 
HETATM   23  C   UNL     1     -39.691  51.672 -53.625  1.00  0.00     0.007 A 
HETATM   24  C   UNL     1     -40.242  52.583 -54.521  1.00  0.00     0.003 A 
HETATM   25  C   UNL     1     -41.058  53.613 -54.052  1.00  0.00     0.029 A 
ENDBRANCH   1  19
TORSDOF 4
ENDMDL
MODEL 8
REMARK VINA RESULT:      -7.1      2.312      3.354
REMARK  4 active torsions:
REMARK  status: ('A' for Active; 'I' for Inactive)
REMARK    1  A    between atoms: C_4  and  N_5 
REMARK       I    between atoms: N_5  and  C_6 
REMARK       I    between atoms: C_6  and  N_7 
REMARK    2  A    between atoms: N_7  and  C_8 
REMARK    3  A    between atoms: C_8  and  C_9 
REMARK    4  A    between atoms: C_12  and  C_13 
ROOT
HETATM    1  N   UNL     1     -42.889  55.340 -52.144  1.00  0.00    -0.309 N 
HETATM    2  C   UNL     1     -43.197  56.373 -52.968  1.00  0.00     0.321 C 
HETATM    3  N   UNL     1     -42.277  56.763 -53.885  1.00  0.00    -0.335 N 
HETATM    4  O   UNL     1     -44.275  56.951 -52.832  1.00  0.00    -0.247 OA
HETATM    5  H   UNL     1     -43.575  55.263 -51.402  1.00  0.00     0.170 HD
HETATM    6  H   UNL     1     -41.313  56.643 -53.605  1.00  0.00     0.164 HD
ENDROOT
BRANCH   3   7
HETATM    7  C   UNL     1     -42.551  57.924 -54.708  1.00  0.00     0.213 C 
BRANCH   7   8
HETATM    8  C   UNL     1     -43.019  57.512 -56.051  1.00  0.00     0.190 A 
HETATM    9  O   UNL     1     -42.109  56.857 -56.826  1.00  0.00    -0.194 OA
HETATM   10  N   UNL     1     -42.751  56.549 -58.018  1.00  0.00    -0.106 NA
HETATM   11  C   UNL     1     -43.991  57.043 -57.857  1.00  0.00     0.189 A 
HETATM   12  N   UNL     1     -44.193  57.649 -56.631  1.00  0.00    -0.202 NA
BRANCH  11  13
HETATM   13  C   UNL     1     -45.036  56.951 -58.872  1.00  0.00     0.014 A 
HETATM   14  C   UNL     1     -46.017  57.948 -58.974  1.00  0.00     0.015 A 
HETATM   15  C   UNL     1     -47.021  57.863 -59.944  1.00  0.00     0.001 A 
HETATM   16  C   UNL     1     -47.054  56.781 -60.821  1.00  0.00     0.000 A 
HETATM   17  C   UNL     1     -46.088  55.782 -60.731  1.00  0.00     0.001 A 
HETATM   18  C   UNL     1     -45.084  55.867 -59.763  1.00  0.00     0.015 A 
ENDBRANCH  11  13
ENDBRANCH   7   8
ENDBRANCH   3   7
BRANCH   1  19
HETATM   19  C   UNL     1     -41.877  54.363 -52.149  1.00  0.00     0.036 A 
HETATM   20  C   UNL     1     -41.569  53.539 -53.235  1.00  0.00     0.036 A 
HETATM   21  C   UNL     1     -40.533  52.593 -53.150  1.00  0.00    -0.060 A 
HETATM   22  C   UNL     1     -40.227  51.696 -54.314  1.00  0.00     0.048 C 
HETATM   23  C   UNL     1     -39.835  52.445 -51.947  1.00  0.00     0.007 A 
HETATM   24  C   UNL     1     -40.155  53.238 -50.850  1.00  0.00     0.003 A 
HETATM   25  C   UNL     1     -41.171  54.189 -50.952  1.00  0.00     0.029 A 
ENDBRANCH   1  19
TORSDOF 4
ENDMDL
MODEL 9
REMARK VINA RESULT:      -7.1      2.520      7.735
REMARK  4 active torsions:
REMARK  status: ('A' for Active; 'I' for Inactive)
REMARK    1  A    between atoms: C_4  and  N_5 
REMARK       I    between atoms: N_5  and  C_6 
REMARK       I    between atoms: C_6  and  N_7 
REMARK    2  A    between atoms: N_7  and  C_8 
REMARK    3  A    between atoms: C_8  and  C_9 
REMARK    4  A    between atoms: C_12  and  C_13 
ROOT
HETATM    1  N   UNL     1     -45.611  59.081 -56.951  1.00  0.00    -0.309 N 
HETATM    2  C   UNL     1     -45.266  59.196 -55.644  1.00  0.00     0.321 C 
HETATM    3  N   UNL     1     -44.889  58.078 -54.975  1.00  0.00    -0.335 N 
HETATM    4  O   UNL     1     -45.346  60.294 -55.095  1.00  0.00    -0.247 OA
HETATM    5  H   UNL     1     -46.035  59.940 -57.282  1.00  0.00     0.170 HD
HETATM    6  H   UNL     1     -45.334  57.223 -55.281  1.00  0.00     0.164 HD
ENDROOT
BRANCH   3   7
HETATM    7  C   UNL     1     -44.609  58.167 -53.556  1.00  0.00     0.213 C 
BRANCH   7   8
HETATM    8  C   UNL     1     -43.847  56.981 -53.100  1.00  0.00     0.190 A 
HETATM    9  O   UNL     1     -44.076  56.579 -51.819  1.00  0.00    -0.194 OA
HETATM   10  N   UNL     1     -43.286  55.457 -51.607  1.00  0.00    -0.106 NA
HETATM   11  C   UNL     1     -42.652  55.280 -52.779  1.00  0.00     0.189 A 
HETATM   12  N   UNL     1     -42.986  56.217 -53.739  1.00  0.00    -0.202 NA
BRANCH  11  13
HETATM   13  C   UNL     1     -41.701  54.201 -53.029  1.00  0.00     0.014 A 
HETATM   14  C   UNL     1     -41.401  53.808 -54.341  1.00  0.00     0.015 A 
HETATM   15  C   UNL     1     -40.492  52.774 -54.585  1.00  0.00     0.001 A 
HETATM   16  C   UNL     1     -39.873  52.123 -53.519  1.00  0.00     0.000 A 
HETATM   17  C   UNL     1     -40.161  52.501 -52.210  1.00  0.00     0.001 A 
HETATM   18  C   UNL     1     -41.070  53.535 -51.966  1.00  0.00     0.015 A 
ENDBRANCH  11  13
ENDBRANCH   7   8
ENDBRANCH   3   7
BRANCH   1  19
HETATM   19  C   UNL     1     -45.453  58.064 -57.910  1.00  0.00     0.036 A 
HETATM   20  C   UNL     1     -44.236  57.463 -58.243  1.00  0.00     0.036 A 
HETATM   21  C   UNL     1     -44.176  56.447 -59.212  1.00  0.00    -0.060 A 
HETATM   22  C   UNL     1     -42.860  55.825 -59.580  1.00  0.00     0.048 C 
HETATM   23  C   UNL     1     -45.343  56.068 -59.884  1.00  0.00     0.007 A 
HETATM   24  C   UNL     1     -46.554  56.682 -59.582  1.00  0.00     0.003 A 
HETATM   25  C   UNL     1     -46.607  57.676 -58.604  1.00  0.00     0.029 A 
ENDBRANCH   1  19
TORSDOF 4
ENDMDL
MODEL 10
REMARK VINA RESULT:      -7.0      4.827      6.788
REMARK  4 active torsions:
REMARK  status: ('A' for Active; 'I' for Inactive)
REMARK    1  A    between atoms: C_4  and  N_5 
REMARK       I    between atoms: N_5  and  C_6 
REMARK       I    between atoms: C_6  and  N_7 
REMARK    2  A    between atoms: N_7  and  C_8 
REMARK    3  A    between atoms: C_8  and  C_9 
REMARK    4  A    between atoms: C_12  and  C_13 
ROOT
HETATM    1  N   UNL     1     -43.616  55.047 -53.514  1.00  0.00    -0.309 N 
HETATM    2  C   UNL     1     -43.757  56.350 -53.867  1.00  0.00     0.321 C 
HETATM    3  N   UNL     1     -42.674  57.162 -53.784  1.00  0.00    -0.335 N 
HETATM    4  O   UNL     1     -44.864  56.764 -54.209  1.00  0.00    -0.247 OA
HETATM    5  H   UNL     1     -44.523  54.598 -53.453  1.00  0.00     0.170 HD
HETATM    6  H   UNL     1     -42.020  56.932 -53.048  1.00  0.00     0.164 HD
ENDROOT
BRANCH   3   7
HETATM    7  C   UNL     1     -42.830  58.575 -54.066  1.00  0.00     0.213 C 
BRANCH   7   8
HETATM    8  C   UNL     1     -42.710  59.370 -52.823  1.00  0.00     0.190 A 
HETATM    9  O   UNL     1     -41.593  59.147 -52.075  1.00  0.00    -0.194 OA
HETATM   10  N   UNL     1     -41.670  59.998 -50.981  1.00  0.00    -0.106 NA
HETATM   11  C   UNL     1     -42.826  60.659 -51.165  1.00  0.00     0.189 A 
HETATM   12  N   UNL     1     -43.499  60.293 -52.315  1.00  0.00    -0.202 NA
BRANCH  11  13
HETATM   13  C   UNL     1     -43.331  61.676 -50.246  1.00  0.00     0.014 A 
HETATM   14  C   UNL     1     -44.247  61.334 -49.241  1.00  0.00     0.015 A 
HETATM   15  C   UNL     1     -44.734  62.305 -48.361  1.00  0.00     0.001 A 
HETATM   16  C   UNL     1     -44.309  63.627 -48.475  1.00  0.00     0.000 A 
HETATM   17  C   UNL     1     -43.400  63.982 -49.468  1.00  0.00     0.001 A 
HETATM   18  C   UNL     1     -42.913  63.012 -50.349  1.00  0.00     0.015 A 
ENDBRANCH  11  13
ENDBRANCH   7   8
ENDBRANCH   3   7
BRANCH   1  19
HETATM   19  C   UNL     1     -42.503  54.221 -53.278  1.00  0.00     0.036 A 
HETATM   20  C   UNL     1     -41.891  54.041 -52.035  1.00  0.00     0.036 A 
HETATM   21  C   UNL     1     -40.783  53.187 -51.894  1.00  0.00    -0.060 A 
HETATM   22  C   UNL     1     -40.119  53.020 -50.558  1.00  0.00     0.048 C 
HETATM   23  C   UNL     1     -40.261  52.548 -53.023  1.00  0.00     0.007 A 
HETATM   24  C   UNL     1     -40.843  52.745 -54.271  1.00  0.00     0.003 A 
HETATM   25  C   UNL     1     -41.955  53.579 -54.396  1.00  0.00     0.029 A 
ENDBRANCH   1  19
TORSDOF 4
ENDMDL
