MODEL 1
REMARK VINA RESULT:      -7.6      0.000      0.000
REMARK  7 active torsions:
REMARK  status: ('A' for Active; 'I' for Inactive)
REMARK    1  A    between atoms: C_2  and  C_3 
REMARK    2  A    between atoms: C_3  and  N_4 
REMARK    3  A    between atoms: N_4  and  C_5 
REMARK    4  A    between atoms: C_7  and  N_8 
REMARK    5  A    between atoms: N_8  and  C_9 
REMARK    6  A    between atoms: C_9  and  C_10 
REMARK    7  A    between atoms: C_13  and  O_14 
ROOT
HETATM    1  C   UNL     1     -40.175  53.493 -52.176  1.00  0.00     0.119 A 
HETATM    2  N   UNL     1     -40.461  54.394 -53.135  1.00  0.00    -0.207 NA
HETATM    3  C   UNL     1     -40.507  53.967 -54.404  1.00  0.00     0.181 A 
HETATM    4  N   UNL     1     -40.263  52.709 -54.755  1.00  0.00    -0.330 N 
HETATM    5  H   UNL     1     -40.227  52.489 -55.743  1.00  0.00     0.168 HD
HETATM    6  C   UNL     1     -40.025  51.765 -53.838  1.00  0.00     0.048 A 
HETATM    7  C   UNL     1     -39.983  52.128 -52.477  1.00  0.00     0.031 A 
HETATM    8  C   UNL     1     -39.824  50.435 -54.235  1.00  0.00     0.030 A 
HETATM    9  C   UNL     1     -39.592  49.447 -53.279  1.00  0.00     0.002 A 
HETATM   10  C   UNL     1     -39.559  49.781 -51.928  1.00  0.00     0.001 A 
HETATM   11  C   UNL     1     -39.751  51.106 -51.527  1.00  0.00     0.017 A 
ENDROOT
BRANCH   3  12
HETATM   12  N   UNL     1     -40.737  54.931 -55.373  1.00  0.00    -0.258 NA
HETATM   13  H   UNL     1     -39.830  55.382 -55.518  1.00  0.00     0.130 HD
BRANCH  12  14
HETATM   14  C   UNL     1     -41.775  55.927 -55.115  1.00  0.00     0.134 C 
BRANCH  14  15
HETATM   15  C   UNL     1     -42.450  56.324 -56.407  1.00  0.00    -0.045 A 
HETATM   16  C   UNL     1     -42.956  55.357 -57.283  1.00  0.00     0.011 A 
HETATM   17  C   UNL     1     -43.524  55.743 -58.499  1.00  0.00     0.037 A 
HETATM   18  C   UNL     1     -43.614  57.091 -58.854  1.00  0.00     0.068 A 
HETATM   19  C   UNL     1     -43.132  58.060 -57.977  1.00  0.00     0.037 A 
HETATM   20  C   UNL     1     -42.560  57.679 -56.761  1.00  0.00     0.011 A 
BRANCH  18  21
HETATM   21  O   UNL     1     -44.179  57.326 -60.075  1.00  0.00    -0.356 OA
HETATM   22  C   UNL     1     -45.248  56.469 -60.467  1.00  0.00     0.210 C 
ENDBRANCH  18  21
ENDBRANCH  14  15
ENDBRANCH  12  14
ENDBRANCH   3  12
BRANCH   1  23
HETATM   23  N   UNL     1     -40.114  53.923 -50.841  1.00  0.00    -0.277 NA
HETATM   24  H   UNL     1     -39.146  54.058 -50.555  1.00  0.00     0.129 HD
BRANCH  23  25
HETATM   25  C   UNL     1     -40.930  55.090 -50.499  1.00  0.00     0.093 C 
BRANCH  25  26
HETATM   26  C   UNL     1     -41.257  55.058 -49.006  1.00  0.00     0.010 C 
HETATM   27  C   UNL     1     -40.383  54.060 -48.265  1.00  0.00     0.006 C 
ENDBRANCH  25  26
ENDBRANCH  23  25
ENDBRANCH   1  23
TORSDOF 7
ENDMDL
MODEL 2
REMARK VINA RESULT:      -7.5      2.811      5.261
REMARK  7 active torsions:
REMARK  status: ('A' for Active; 'I' for Inactive)
REMARK    1  A    between atoms: C_2  and  C_3 
REMARK    2  A    between atoms: C_3  and  N_4 
REMARK    3  A    between atoms: N_4  and  C_5 
REMARK    4  A    between atoms: C_7  and  N_8 
REMARK    5  A    between atoms: N_8  and  C_9 
REMARK    6  A    between atoms: C_9  and  C_10 
REMARK    7  A    between atoms: C_13  and  O_14 
ROOT
HETATM    1  C   UNL     1     -40.525  53.426 -53.349  1.00  0.00     0.119 A 
HETATM    2  N   UNL     1     -40.483  54.233 -52.272  1.00  0.00    -0.207 NA
HETATM    3  C   UNL     1     -40.147  53.690 -51.094  1.00  0.00     0.181 A 
HETATM    4  N   UNL     1     -39.876  52.397 -50.942  1.00  0.00    -0.330 N 
HETATM    5  H   UNL     1     -39.722  52.052 -50.003  1.00  0.00     0.168 HD
HETATM    6  C   UNL     1     -39.853  51.565 -51.987  1.00  0.00     0.048 A 
HETATM    7  C   UNL     1     -40.173  52.062 -53.267  1.00  0.00     0.031 A 
HETATM    8  C   UNL     1     -39.511  50.217 -51.804  1.00  0.00     0.030 A 
HETATM    9  C   UNL     1     -39.471  49.350 -52.896  1.00  0.00     0.002 A 
HETATM   10  C   UNL     1     -39.770  49.823 -54.170  1.00  0.00     0.001 A 
HETATM   11  C   UNL     1     -40.118  51.164 -54.358  1.00  0.00     0.017 A 
ENDROOT
BRANCH   3  12
HETATM   12  N   UNL     1     -40.180  54.532 -49.994  1.00  0.00    -0.258 NA
HETATM   13  H   UNL     1     -39.677  54.028 -49.260  1.00  0.00     0.130 HD
BRANCH  12  14
HETATM   14  C   UNL     1     -41.486  54.981 -49.514  1.00  0.00     0.134 C 
BRANCH  14  15
HETATM   15  C   UNL     1     -41.952  56.177 -50.311  1.00  0.00    -0.045 A 
HETATM   16  C   UNL     1     -41.116  57.282 -50.508  1.00  0.00     0.011 A 
HETATM   17  C   UNL     1     -41.587  58.402 -51.197  1.00  0.00     0.037 A 
HETATM   18  C   UNL     1     -42.884  58.433 -51.716  1.00  0.00     0.068 A 
HETATM   19  C   UNL     1     -43.714  57.327 -51.541  1.00  0.00     0.037 A 
HETATM   20  C   UNL     1     -43.249  56.206 -50.850  1.00  0.00     0.011 A 
BRANCH  18  21
HETATM   21  O   UNL     1     -43.219  59.592 -52.355  1.00  0.00    -0.356 OA
HETATM   22  C   UNL     1     -42.220  60.185 -53.180  1.00  0.00     0.210 C 
ENDBRANCH  18  21
ENDBRANCH  14  15
ENDBRANCH  12  14
ENDBRANCH   3  12
BRANCH   1  23
HETATM   23  N   UNL     1     -40.883  53.974 -54.591  1.00  0.00    -0.277 NA
HETATM   24  H   UNL     1     -40.357  53.530 -55.342  1.00  0.00     0.129 HD
BRANCH  23  25
HETATM   25  C   UNL     1     -42.315  54.001 -54.898  1.00  0.00     0.093 C 
BRANCH  25  26
HETATM   26  C   UNL     1     -42.869  55.395 -54.602  1.00  0.00     0.010 C 
HETATM   27  C   UNL     1     -41.805  56.466 -54.773  1.00  0.00     0.006 C 
ENDBRANCH  25  26
ENDBRANCH  23  25
ENDBRANCH   1  23
TORSDOF 7
ENDMDL
MODEL 3
REMARK VINA RESULT:      -7.4      1.561      3.774
REMARK  7 active torsions:
REMARK  status: ('A' for Active; 'I' for Inactive)
REMARK    1  A    between atoms: C_2  and  C_3 
REMARK    2  A    between atoms: C_3  and  N_4 
REMARK    3  A    between atoms: N_4  and  C_5 
REMARK    4  A    between atoms: C_7  and  N_8 
REMARK    5  A    between atoms: N_8  and  C_9 
REMARK    6  A    between atoms: C_9  and  C_10 
REMARK    7  A    between atoms: C_13  and  O_14 
ROOT
HETATM    1  C   UNL     1     -40.882  53.082 -53.191  1.00  0.00     0.119 A 
HETATM    2  N   UNL     1     -41.739  53.520 -54.133  1.00  0.00    -0.207 NA
HETATM    3  C   UNL     1     -42.703  54.371 -53.758  1.00  0.00     0.181 A 
HETATM    4  N   UNL     1     -42.860  54.781 -52.503  1.00  0.00    -0.330 N 
HETATM    5  H   UNL     1     -43.669  55.351 -52.288  1.00  0.00     0.168 HD
HETATM    6  C   UNL     1     -42.007  54.418 -51.541  1.00  0.00     0.048 A 
HETATM    7  C   UNL     1     -40.950  53.540 -51.858  1.00  0.00     0.031 A 
HETATM    8  C   UNL     1     -42.167  54.909 -50.237  1.00  0.00     0.030 A 
HETATM    9  C   UNL     1     -41.268  54.543 -49.236  1.00  0.00     0.002 A 
HETATM   10  C   UNL     1     -40.210  53.688 -49.530  1.00  0.00     0.001 A 
HETATM   11  C   UNL     1     -40.049  53.190 -50.826  1.00  0.00     0.017 A 
ENDROOT
BRANCH   3  12
HETATM   12  N   UNL     1     -43.608  54.749 -54.736  1.00  0.00    -0.258 NA
HETATM   13  H   UNL     1     -44.497  54.331 -54.450  1.00  0.00     0.130 HD
BRANCH  12  14
HETATM   14  C   UNL     1     -43.299  54.410 -56.124  1.00  0.00     0.134 C 
BRANCH  14  15
HETATM   15  C   UNL     1     -43.022  55.665 -56.919  1.00  0.00    -0.045 A 
HETATM   16  C   UNL     1     -43.141  55.674 -58.313  1.00  0.00     0.011 A 
HETATM   17  C   UNL     1     -42.823  56.828 -59.034  1.00  0.00     0.037 A 
HETATM   18  C   UNL     1     -42.404  57.990 -58.382  1.00  0.00     0.068 A 
HETATM   19  C   UNL     1     -42.305  57.993 -56.992  1.00  0.00     0.037 A 
HETATM   20  C   UNL     1     -42.617  56.841 -56.267  1.00  0.00     0.011 A 
BRANCH  18  21
HETATM   21  O   UNL     1     -42.115  59.039 -59.207  1.00  0.00    -0.356 OA
HETATM   22  C   UNL     1     -41.965  58.747 -60.593  1.00  0.00     0.210 C 
ENDBRANCH  18  21
ENDBRANCH  14  15
ENDBRANCH  12  14
ENDBRANCH   3  12
BRANCH   1  23
HETATM   23  N   UNL     1     -39.871  52.182 -53.563  1.00  0.00    -0.277 NA
HETATM   24  H   UNL     1     -39.337  51.888 -52.746  1.00  0.00     0.129 HD
BRANCH  23  25
HETATM   25  C   UNL     1     -40.292  51.027 -54.358  1.00  0.00     0.093 C 
BRANCH  25  26
HETATM   26  C   UNL     1     -39.512  49.791 -53.906  1.00  0.00     0.010 C 
HETATM   27  C   UNL     1     -39.655  49.557 -52.412  1.00  0.00     0.006 C 
ENDBRANCH  25  26
ENDBRANCH  23  25
ENDBRANCH   1  23
TORSDOF 7
ENDMDL
MODEL 4
REMARK VINA RESULT:      -7.4      1.926      2.865
REMARK  7 active torsions:
REMARK  status: ('A' for Active; 'I' for Inactive)
REMARK    1  A    between atoms: C_2  and  C_3 
REMARK    2  A    between atoms: C_3  and  N_4 
REMARK    3  A    between atoms: N_4  and  C_5 
REMARK    4  A    between atoms: C_7  and  N_8 
REMARK    5  A    between atoms: N_8  and  C_9 
REMARK    6  A    between atoms: C_9  and  C_10 
REMARK    7  A    between atoms: C_13  and  O_14 
ROOT
HETATM    1  C   UNL     1     -42.345  54.980 -52.599  1.00  0.00     0.119 A 
HETATM    2  N   UNL     1     -43.060  55.478 -53.625  1.00  0.00    -0.207 NA
HETATM    3  C   UNL     1     -42.875  54.940 -54.838  1.00  0.00     0.181 A 
HETATM    4  N   UNL     1     -42.009  53.959 -55.072  1.00  0.00    -0.330 N 
HETATM    5  H   UNL     1     -41.864  53.674 -56.032  1.00  0.00     0.168 HD
HETATM    6  C   UNL     1     -41.314  53.395 -54.080  1.00  0.00     0.048 A 
HETATM    7  C   UNL     1     -41.467  53.888 -52.769  1.00  0.00     0.031 A 
HETATM    8  C   UNL     1     -40.447  52.326 -54.349  1.00  0.00     0.030 A 
HETATM    9  C   UNL     1     -39.733  51.726 -53.313  1.00  0.00     0.002 A 
HETATM   10  C   UNL     1     -39.879  52.189 -52.009  1.00  0.00     0.001 A 
HETATM   11  C   UNL     1     -40.736  53.258 -51.735  1.00  0.00     0.017 A 
ENDROOT
BRANCH   3  12
HETATM   12  N   UNL     1     -43.575  55.520 -55.884  1.00  0.00    -0.258 NA
HETATM   13  H   UNL     1     -44.313  54.851 -56.113  1.00  0.00     0.130 HD
BRANCH  12  14
HETATM   14  C   UNL     1     -42.827  55.897 -57.082  1.00  0.00     0.134 C 
BRANCH  14  15
HETATM   15  C   UNL     1     -43.725  55.847 -58.296  1.00  0.00    -0.045 A 
HETATM   16  C   UNL     1     -44.379  56.996 -58.756  1.00  0.00     0.011 A 
HETATM   17  C   UNL     1     -45.251  56.915 -59.845  1.00  0.00     0.037 A 
HETATM   18  C   UNL     1     -45.470  55.702 -60.501  1.00  0.00     0.068 A 
HETATM   19  C   UNL     1     -44.806  54.559 -60.061  1.00  0.00     0.037 A 
HETATM   20  C   UNL     1     -43.935  54.633 -58.971  1.00  0.00     0.011 A 
BRANCH  18  21
HETATM   21  O   UNL     1     -46.355  55.764 -61.540  1.00  0.00    -0.356 OA
HETATM   22  C   UNL     1     -47.554  56.501 -61.323  1.00  0.00     0.210 C 
ENDBRANCH  18  21
ENDBRANCH  14  15
ENDBRANCH  12  14
ENDBRANCH   3  12
BRANCH   1  23
HETATM   23  N   UNL     1     -42.518  55.537 -51.321  1.00  0.00    -0.277 NA
HETATM   24  H   UNL     1     -41.962  55.030 -50.634  1.00  0.00     0.129 HD
BRANCH  23  25
HETATM   25  C   UNL     1     -42.301  56.981 -51.210  1.00  0.00     0.093 C 
BRANCH  25  26
HETATM   26  C   UNL     1     -40.959  57.239 -50.524  1.00  0.00     0.010 C 
HETATM   27  C   UNL     1     -40.569  58.705 -50.597  1.00  0.00     0.006 C 
ENDBRANCH  25  26
ENDBRANCH  23  25
ENDBRANCH   1  23
TORSDOF 7
ENDMDL
MODEL 5
REMARK VINA RESULT:      -7.3      1.810      2.453
REMARK  7 active torsions:
REMARK  status: ('A' for Active; 'I' for Inactive)
REMARK    1  A    between atoms: C_2  and  C_3 
REMARK    2  A    between atoms: C_3  and  N_4 
REMARK    3  A    between atoms: N_4  and  C_5 
REMARK    4  A    between atoms: C_7  and  N_8 
REMARK    5  A    between atoms: N_8  and  C_9 
REMARK    6  A    between atoms: C_9  and  C_10 
REMARK    7  A    between atoms: C_13  and  O_14 
ROOT
HETATM    1  C   UNL     1     -41.779  54.467 -52.171  1.00  0.00     0.119 A 
HETATM    2  N   UNL     1     -42.680  54.995 -53.022  1.00  0.00    -0.207 NA
HETATM    3  C   UNL     1     -42.779  54.455 -54.245  1.00  0.00     0.181 A 
HETATM    4  N   UNL     1     -42.018  53.446 -54.656  1.00  0.00    -0.330 N 
HETATM    5  H   UNL     1     -42.092  53.159 -55.624  1.00  0.00     0.168 HD
HETATM    6  C   UNL     1     -41.146  52.853 -53.834  1.00  0.00     0.048 A 
HETATM    7  C   UNL     1     -40.997  53.346 -52.522  1.00  0.00     0.031 A 
HETATM    8  C   UNL     1     -40.395  51.756 -54.280  1.00  0.00     0.030 A 
HETATM    9  C   UNL     1     -39.496  51.127 -53.419  1.00  0.00     0.002 A 
HETATM   10  C   UNL     1     -39.343  51.589 -52.116  1.00  0.00     0.001 A 
HETATM   11  C   UNL     1     -40.083  52.687 -51.668  1.00  0.00     0.017 A 
ENDROOT
BRANCH   3  12
HETATM   12  N   UNL     1     -43.666  55.064 -55.118  1.00  0.00    -0.258 NA
HETATM   13  H   UNL     1     -43.569  54.548 -55.996  1.00  0.00     0.130 HD
BRANCH  12  14
HETATM   14  C   UNL     1     -43.528  56.501 -55.344  1.00  0.00     0.134 C 
BRANCH  14  15
HETATM   15  C   UNL     1     -43.089  56.768 -56.764  1.00  0.00    -0.045 A 
HETATM   16  C   UNL     1     -42.572  58.014 -57.137  1.00  0.00     0.011 A 
HETATM   17  C   UNL     1     -42.227  58.258 -58.468  1.00  0.00     0.037 A 
HETATM   18  C   UNL     1     -42.371  57.267 -59.442  1.00  0.00     0.068 A 
HETATM   19  C   UNL     1     -42.866  56.017 -59.073  1.00  0.00     0.037 A 
HETATM   20  C   UNL     1     -43.215  55.768 -57.743  1.00  0.00     0.011 A 
BRANCH  18  21
HETATM   21  O   UNL     1     -42.008  57.643 -60.703  1.00  0.00    -0.356 OA
HETATM   22  C   UNL     1     -41.875  59.041 -60.946  1.00  0.00     0.210 C 
ENDBRANCH  18  21
ENDBRANCH  14  15
ENDBRANCH  12  14
ENDBRANCH   3  12
BRANCH   1  23
HETATM   23  N   UNL     1     -41.654  55.024 -50.889  1.00  0.00    -0.277 NA
HETATM   24  H   UNL     1     -40.694  54.945 -50.558  1.00  0.00     0.129 HD
BRANCH  23  25
HETATM   25  C   UNL     1     -42.155  56.391 -50.725  1.00  0.00     0.093 C 
BRANCH  25  26
HETATM   26  C   UNL     1     -40.978  57.367 -50.752  1.00  0.00     0.010 C 
HETATM   27  C   UNL     1     -40.941  58.160 -52.047  1.00  0.00     0.006 C 
ENDBRANCH  25  26
ENDBRANCH  23  25
ENDBRANCH   1  23
TORSDOF 7
ENDMDL
MODEL 6
REMARK VINA RESULT:      -7.3     13.773     15.530
REMARK  7 active torsions:
REMARK  status: ('A' for Active; 'I' for Inactive)
REMARK    1  A    between atoms: C_2  and  C_3 
REMARK    2  A    between atoms: C_3  and  N_4 
REMARK    3  A    between atoms: N_4  and  C_5 
REMARK    4  A    between atoms: C_7  and  N_8 
REMARK    5  A    between atoms: N_8  and  C_9 
REMARK    6  A    between atoms: C_9  and  C_10 
REMARK    7  A    between atoms: C_13  and  O_14 
ROOT
HETATM    1  C   UNL     1     -33.392  40.724 -54.229  1.00  0.00     0.119 A 
HETATM    2  N   UNL     1     -34.521  41.265 -54.725  1.00  0.00    -0.207 NA
HETATM    3  C   UNL     1     -35.495  41.585 -53.862  1.00  0.00     0.181 A 
HETATM    4  N   UNL     1     -35.402  41.373 -52.553  1.00  0.00    -0.330 N 
HETATM    5  H   UNL     1     -36.219  41.558 -51.984  1.00  0.00     0.168 HD
HETATM    6  C   UNL     1     -34.285  40.887 -52.005  1.00  0.00     0.048 A 
HETATM    7  C   UNL     1     -33.203  40.546 -52.842  1.00  0.00     0.031 A 
HETATM    8  C   UNL     1     -34.198  40.724 -50.615  1.00  0.00     0.030 A 
HETATM    9  C   UNL     1     -33.026  40.232 -50.040  1.00  0.00     0.002 A 
HETATM   10  C   UNL     1     -31.942  39.901 -50.846  1.00  0.00     0.001 A 
HETATM   11  C   UNL     1     -32.025  40.054 -52.233  1.00  0.00     0.017 A 
ENDROOT
BRANCH   3  12
HETATM   12  N   UNL     1     -36.669  42.076 -54.411  1.00  0.00    -0.258 NA
HETATM   13  H   UNL     1     -37.077  42.664 -53.679  1.00  0.00     0.130 HD
BRANCH  12  14
HETATM   14  C   UNL     1     -37.647  41.112 -54.909  1.00  0.00     0.134 C 
BRANCH  14  15
HETATM   15  C   UNL     1     -37.612  41.064 -56.419  1.00  0.00    -0.045 A 
HETATM   16  C   UNL     1     -38.077  39.943 -57.115  1.00  0.00     0.011 A 
HETATM   17  C   UNL     1     -37.981  39.895 -58.508  1.00  0.00     0.037 A 
HETATM   18  C   UNL     1     -37.441  40.963 -59.228  1.00  0.00     0.068 A 
HETATM   19  C   UNL     1     -36.995  42.091 -58.541  1.00  0.00     0.037 A 
HETATM   20  C   UNL     1     -37.085  42.143 -57.149  1.00  0.00     0.011 A 
BRANCH  18  21
HETATM   21  O   UNL     1     -37.395  40.778 -60.580  1.00  0.00    -0.356 OA
HETATM   22  C   UNL     1     -37.386  39.433 -61.048  1.00  0.00     0.210 C 
ENDBRANCH  18  21
ENDBRANCH  14  15
ENDBRANCH  12  14
ENDBRANCH   3  12
BRANCH   1  23
HETATM   23  N   UNL     1     -32.363  40.374 -55.118  1.00  0.00    -0.277 NA
HETATM   24  H   UNL     1     -31.944  39.486 -54.846  1.00  0.00     0.129 HD
BRANCH  23  25
HETATM   25  C   UNL     1     -32.708  40.378 -56.541  1.00  0.00     0.093 C 
BRANCH  25  26
HETATM   26  C   UNL     1     -33.038  38.951 -56.984  1.00  0.00     0.010 C 
HETATM   27  C   UNL     1     -34.496  38.818 -57.393  1.00  0.00     0.006 C 
ENDBRANCH  25  26
ENDBRANCH  23  25
ENDBRANCH   1  23
TORSDOF 7
ENDMDL
MODEL 7
REMARK VINA RESULT:      -7.2      3.258      9.000
REMARK  7 active torsions:
REMARK  status: ('A' for Active; 'I' for Inactive)
REMARK    1  A    between atoms: C_2  and  C_3 
REMARK    2  A    between atoms: C_3  and  N_4 
REMARK    3  A    between atoms: N_4  and  C_5 
REMARK    4  A    between atoms: C_7  and  N_8 
REMARK    5  A    between atoms: N_8  and  C_9 
REMARK    6  A    between atoms: C_9  and  C_10 
REMARK    7  A    between atoms: C_13  and  O_14 
ROOT
HETATM    1  C   UNL     1     -42.893  56.386 -58.957  1.00  0.00     0.119 A 
HETATM    2  N   UNL     1     -43.018  55.812 -57.745  1.00  0.00    -0.207 NA
HETATM    3  C   UNL     1     -42.742  56.558 -56.667  1.00  0.00     0.181 A 
HETATM    4  N   UNL     1     -42.333  57.820 -56.743  1.00  0.00    -0.330 N 
HETATM    5  H   UNL     1     -42.057  58.283 -55.886  1.00  0.00     0.168 HD
HETATM    6  C   UNL     1     -42.243  58.452 -57.918  1.00  0.00     0.048 A 
HETATM    7  C   UNL     1     -42.538  57.744 -59.101  1.00  0.00     0.031 A 
HETATM    8  C   UNL     1     -41.860  59.800 -57.963  1.00  0.00     0.030 A 
HETATM    9  C   UNL     1     -41.781  60.465 -59.186  1.00  0.00     0.002 A 
HETATM   10  C   UNL     1     -42.081  59.789 -60.365  1.00  0.00     0.001 A 
HETATM   11  C   UNL     1     -42.456  58.443 -60.327  1.00  0.00     0.017 A 
ENDROOT
BRANCH   3  12
HETATM   12  N   UNL     1     -42.814  55.919 -55.440  1.00  0.00    -0.258 NA
HETATM   13  H   UNL     1     -42.005  56.261 -54.915  1.00  0.00     0.130 HD
BRANCH  12  14
HETATM   14  C   UNL     1     -42.859  54.458 -55.429  1.00  0.00     0.134 C 
BRANCH  14  15
HETATM   15  C   UNL     1     -41.989  53.916 -54.319  1.00  0.00    -0.045 A 
HETATM   16  C   UNL     1     -40.895  53.089 -54.600  1.00  0.00     0.011 A 
HETATM   17  C   UNL     1     -40.139  52.551 -53.555  1.00  0.00     0.037 A 
HETATM   18  C   UNL     1     -40.446  52.840 -52.224  1.00  0.00     0.068 A 
HETATM   19  C   UNL     1     -41.522  53.680 -51.939  1.00  0.00     0.037 A 
HETATM   20  C   UNL     1     -42.283  54.218 -52.979  1.00  0.00     0.011 A 
BRANCH  18  21
HETATM   21  O   UNL     1     -39.635  52.239 -51.304  1.00  0.00    -0.356 OA
HETATM   22  C   UNL     1     -40.247  51.314 -50.411  1.00  0.00     0.210 C 
ENDBRANCH  18  21
ENDBRANCH  14  15
ENDBRANCH  12  14
ENDBRANCH   3  12
BRANCH   1  23
HETATM   23  N   UNL     1     -43.170  55.618 -60.100  1.00  0.00    -0.277 NA
HETATM   24  H   UNL     1     -42.373  55.028 -60.333  1.00  0.00     0.129 HD
BRANCH  23  25
HETATM   25  C   UNL     1     -44.410  54.841 -60.073  1.00  0.00     0.093 C 
BRANCH  25  26
HETATM   26  C   UNL     1     -45.389  55.415 -61.098  1.00  0.00     0.010 C 
HETATM   27  C   UNL     1     -46.570  56.093 -60.423  1.00  0.00     0.006 C 
ENDBRANCH  25  26
ENDBRANCH  23  25
ENDBRANCH   1  23
TORSDOF 7
ENDMDL
MODEL 8
REMARK VINA RESULT:      -7.2      2.332      3.082
REMARK  7 active torsions:
REMARK  status: ('A' for Active; 'I' for Inactive)
REMARK    1  A    between atoms: C_2  and  C_3 
REMARK    2  A    between atoms: C_3  and  N_4 
REMARK    3  A    between atoms: N_4  and  C_5 
REMARK    4  A    between atoms: C_7  and  N_8 
REMARK    5  A    between atoms: N_8  and  C_9 
REMARK    6  A    between atoms: C_9  and  C_10 
REMARK    7  A    between atoms: C_13  and  O_14 
ROOT
HETATM    1  C   UNL     1     -40.335  53.531 -52.112  1.00  0.00     0.119 A 
HETATM    2  N   UNL     1     -40.642  54.331 -53.151  1.00  0.00    -0.207 NA
HETATM    3  C   UNL     1     -40.627  53.798 -54.380  1.00  0.00     0.181 A 
HETATM    4  N   UNL     1     -40.304  52.530 -54.616  1.00  0.00    -0.330 N 
HETATM    5  H   UNL     1     -40.227  52.232 -55.581  1.00  0.00     0.168 HD
HETATM    6  C   UNL     1     -40.043  51.681 -53.617  1.00  0.00     0.048 A 
HETATM    7  C   UNL     1     -40.060  52.158 -52.291  1.00  0.00     0.031 A 
HETATM    8  C   UNL     1     -39.758  50.336 -53.895  1.00  0.00     0.030 A 
HETATM    9  C   UNL     1     -39.501  49.446 -52.853  1.00  0.00     0.002 A 
HETATM   10  C   UNL     1     -39.526  49.893 -51.535  1.00  0.00     0.001 A 
HETATM   11  C   UNL     1     -39.802  51.233 -51.253  1.00  0.00     0.017 A 
ENDROOT
BRANCH   3  12
HETATM   12  N   UNL     1     -40.879  54.664 -55.432  1.00  0.00    -0.258 NA
HETATM   13  H   UNL     1     -40.448  55.549 -55.156  1.00  0.00     0.130 HD
BRANCH  12  14
HETATM   14  C   UNL     1     -42.270  54.867 -55.832  1.00  0.00     0.134 C 
BRANCH  14  15
HETATM   15  C   UNL     1     -42.808  56.142 -55.226  1.00  0.00    -0.045 A 
HETATM   16  C   UNL     1     -42.191  57.373 -55.475  1.00  0.00     0.011 A 
HETATM   17  C   UNL     1     -42.669  58.532 -54.857  1.00  0.00     0.037 A 
HETATM   18  C   UNL     1     -43.773  58.488 -54.003  1.00  0.00     0.068 A 
HETATM   19  C   UNL     1     -44.404  57.268 -53.768  1.00  0.00     0.037 A 
HETATM   20  C   UNL     1     -43.928  56.106 -54.380  1.00  0.00     0.011 A 
BRANCH  18  21
HETATM   21  O   UNL     1     -44.125  59.689 -53.458  1.00  0.00    -0.356 OA
HETATM   22  C   UNL     1     -45.505  59.883 -53.161  1.00  0.00     0.210 C 
ENDBRANCH  18  21
ENDBRANCH  14  15
ENDBRANCH  12  14
ENDBRANCH   3  12
BRANCH   1  23
HETATM   23  N   UNL     1     -40.337  54.073 -50.817  1.00  0.00    -0.277 NA
HETATM   24  H   UNL     1     -39.476  54.590 -50.646  1.00  0.00     0.129 HD
BRANCH  23  25
HETATM   25  C   UNL     1     -41.510  54.870 -50.451  1.00  0.00     0.093 C 
BRANCH  25  26
HETATM   26  C   UNL     1     -41.076  56.311 -50.178  1.00  0.00     0.010 C 
HETATM   27  C   UNL     1     -41.681  57.276 -51.184  1.00  0.00     0.006 C 
ENDBRANCH  25  26
ENDBRANCH  23  25
ENDBRANCH   1  23
TORSDOF 7
ENDMDL
MODEL 9
REMARK VINA RESULT:      -7.2      3.404      7.639
REMARK  7 active torsions:
REMARK  status: ('A' for Active; 'I' for Inactive)
REMARK    1  A    between atoms: C_2  and  C_3 
REMARK    2  A    between atoms: C_3  and  N_4 
REMARK    3  A    between atoms: N_4  and  C_5 
REMARK    4  A    between atoms: C_7  and  N_8 
REMARK    5  A    between atoms: N_8  and  C_9 
REMARK    6  A    between atoms: C_9  and  C_10 
REMARK    7  A    between atoms: C_13  and  O_14 
ROOT
HETATM    1  C   UNL     1     -42.440  57.404 -56.159  1.00  0.00     0.119 A 
HETATM    2  N   UNL     1     -42.539  56.327 -55.357  1.00  0.00    -0.207 NA
HETATM    3  C   UNL     1     -42.913  55.165 -55.909  1.00  0.00     0.181 A 
HETATM    4  N   UNL     1     -43.207  55.037 -57.199  1.00  0.00    -0.330 N 
HETATM    5  H   UNL     1     -43.570  54.147 -57.517  1.00  0.00     0.168 HD
HETATM    6  C   UNL     1     -43.074  56.061 -58.048  1.00  0.00     0.048 A 
HETATM    7  C   UNL     1     -42.664  57.314 -57.550  1.00  0.00     0.031 A 
HETATM    8  C   UNL     1     -43.341  55.882 -59.413  1.00  0.00     0.030 A 
HETATM    9  C   UNL     1     -43.188  56.945 -60.301  1.00  0.00     0.002 A 
HETATM   10  C   UNL     1     -42.770  58.188 -59.833  1.00  0.00     0.001 A 
HETATM   11  C   UNL     1     -42.510  58.374 -58.473  1.00  0.00     0.017 A 
ENDROOT
BRANCH   3  12
HETATM   12  N   UNL     1     -43.072  54.093 -55.046  1.00  0.00    -0.258 NA
HETATM   13  H   UNL     1     -43.699  54.434 -54.313  1.00  0.00     0.130 HD
BRANCH  12  14
HETATM   14  C   UNL     1     -41.870  53.498 -54.464  1.00  0.00     0.134 C 
BRANCH  14  15
HETATM   15  C   UNL     1     -41.811  53.782 -52.981  1.00  0.00    -0.045 A 
HETATM   16  C   UNL     1     -40.621  53.620 -52.263  1.00  0.00     0.011 A 
HETATM   17  C   UNL     1     -40.603  53.831 -50.883  1.00  0.00     0.037 A 
HETATM   18  C   UNL     1     -41.757  54.225 -50.201  1.00  0.00     0.068 A 
HETATM   19  C   UNL     1     -42.940  54.409 -50.914  1.00  0.00     0.037 A 
HETATM   20  C   UNL     1     -42.965  54.195 -52.294  1.00  0.00     0.011 A 
BRANCH  18  21
HETATM   21  O   UNL     1     -41.601  54.384 -48.854  1.00  0.00    -0.356 OA
HETATM   22  C   UNL     1     -40.375  53.929 -48.287  1.00  0.00     0.210 C 
ENDBRANCH  18  21
ENDBRANCH  14  15
ENDBRANCH  12  14
ENDBRANCH   3  12
BRANCH   1  23
HETATM   23  N   UNL     1     -42.058  58.633 -55.597  1.00  0.00    -0.277 NA
HETATM   24  H   UNL     1     -42.453  59.406 -56.131  1.00  0.00     0.129 HD
BRANCH  23  25
HETATM   25  C   UNL     1     -42.316  58.797 -54.165  1.00  0.00     0.093 C 
BRANCH  25  26
HETATM   26  C   UNL     1     -40.995  58.703 -53.400  1.00  0.00     0.010 C 
HETATM   27  C   UNL     1     -41.052  57.638 -52.318  1.00  0.00     0.006 C 
ENDBRANCH  25  26
ENDBRANCH  23  25
ENDBRANCH   1  23
TORSDOF 7
ENDMDL
MODEL 10
REMARK VINA RESULT:      -7.0      3.450      7.884
REMARK  7 active torsions:
REMARK  status: ('A' for Active; 'I' for Inactive)
REMARK    1  A    between atoms: C_2  and  C_3 
REMARK    2  A    between atoms: C_3  and  N_4 
REMARK    3  A    between atoms: N_4  and  C_5 
REMARK    4  A    between atoms: C_7  and  N_8 
REMARK    5  A    between atoms: N_8  and  C_9 
REMARK    6  A    between atoms: C_9  and  C_10 
REMARK    7  A    between atoms: C_13  and  O_14 
ROOT
HETATM    1  C   UNL     1     -42.614  56.386 -52.432  1.00  0.00     0.119 A 
HETATM    2  N   UNL     1     -42.533  55.238 -51.734  1.00  0.00    -0.207 NA
HETATM    3  C   UNL     1     -41.957  55.277 -50.525  1.00  0.00     0.181 A 
HETATM    4  N   UNL     1     -41.448  56.388 -50.001  1.00  0.00    -0.330 N 
HETATM    5  H   UNL     1     -40.948  56.313 -49.123  1.00  0.00     0.168 HD
HETATM    6  C   UNL     1     -41.549  57.563 -50.629  1.00  0.00     0.048 A 
HETATM    7  C   UNL     1     -42.162  57.611 -51.897  1.00  0.00     0.031 A 
HETATM    8  C   UNL     1     -41.050  58.727 -50.027  1.00  0.00     0.030 A 
HETATM    9  C   UNL     1     -41.168  59.956 -50.674  1.00  0.00     0.002 A 
HETATM   10  C   UNL     1     -41.782  60.029 -51.921  1.00  0.00     0.001 A 
HETATM   11  C   UNL     1     -42.275  58.871 -52.530  1.00  0.00     0.017 A 
ENDROOT
BRANCH   3  12
HETATM   12  N   UNL     1     -41.828  54.068 -49.862  1.00  0.00    -0.258 NA
HETATM   13  H   UNL     1     -42.334  54.193 -48.982  1.00  0.00     0.130 HD
BRANCH  12  14
HETATM   14  C   UNL     1     -40.479  53.561 -49.619  1.00  0.00     0.134 C 
BRANCH  14  15
HETATM   15  C   UNL     1     -40.170  52.423 -50.563  1.00  0.00    -0.045 A 
HETATM   16  C   UNL     1     -39.888  52.663 -51.913  1.00  0.00     0.011 A 
HETATM   17  C   UNL     1     -39.662  51.593 -52.782  1.00  0.00     0.037 A 
HETATM   18  C   UNL     1     -39.694  50.275 -52.321  1.00  0.00     0.068 A 
HETATM   19  C   UNL     1     -39.953  50.030 -50.974  1.00  0.00     0.037 A 
HETATM   20  C   UNL     1     -40.183  51.096 -50.101  1.00  0.00     0.011 A 
BRANCH  18  21
HETATM   21  O   UNL     1     -39.469  49.327 -53.278  1.00  0.00    -0.356 OA
HETATM   22  C   UNL     1     -39.709  49.705 -54.630  1.00  0.00     0.210 C 
ENDBRANCH  18  21
ENDBRANCH  14  15
ENDBRANCH  12  14
ENDBRANCH   3  12
BRANCH   1  23
HETATM   23  N   UNL     1     -43.207  56.363 -53.705  1.00  0.00    -0.277 NA
HETATM   24  H   UNL     1     -43.898  57.107 -53.789  1.00  0.00     0.129 HD
BRANCH  23  25
HETATM   25  C   UNL     1     -42.289  56.368 -54.846  1.00  0.00     0.093 C 
BRANCH  25  26
HETATM   26  C   UNL     1     -42.707  55.279 -55.835  1.00  0.00     0.010 C 
HETATM   27  C   UNL     1     -42.763  53.914 -55.171  1.00  0.00     0.006 C 
ENDBRANCH  25  26
ENDBRANCH  23  25
ENDBRANCH   1  23
TORSDOF 7
ENDMDL
