MODEL 1
REMARK VINA RESULT:      -8.5      0.000      0.000
REMARK  6 active torsions:
REMARK  status: ('A' for Active; 'I' for Inactive)
REMARK    1  A    between atoms: C_7  and  C_8 
REMARK    2  A    between atoms: N_9  and  N_10 
REMARK       I    between atoms: N_10  and  C_11 
REMARK    3  A    between atoms: C_11  and  C_12 
REMARK    4  A    between atoms: C_12  and  N_13 
REMARK       I    between atoms: N_13  and  C_14 
REMARK    5  A    between atoms: C_14  and  C_15 
REMARK    6  A    between atoms: C_15  and  C_16 
ROOT
HETATM    1  N   UNL     1     -41.794  57.400 -53.909  1.00  0.00    -0.246 N 
HETATM    2  C   UNL     1     -41.359  58.707 -54.015  1.00  0.00     0.255 C 
HETATM    3  O   UNL     1     -40.334  59.158 -53.504  1.00  0.00    -0.270 OA
HETATM    4  H   UNL     1     -42.556  57.088 -54.516  1.00  0.00     0.192 HD
ENDROOT
BRANCH   1   5
HETATM    5  N   UNL     1     -41.027  56.463 -53.270  1.00  0.00    -0.184 NA
HETATM    6  C   UNL     1     -41.676  55.413 -52.883  1.00  0.00     0.153 C 
BRANCH   6   7
HETATM    7  C   UNL     1     -40.982  54.301 -52.260  1.00  0.00     0.018 A 
HETATM    8  C   UNL     1     -40.614  54.275 -50.921  1.00  0.00     0.018 A 
HETATM    9  C   UNL     1     -40.775  55.287 -49.845  1.00  0.00     0.069 C 
HETATM   10  N   UNL     1     -40.014  53.064 -50.677  1.00  0.00    -0.358 N 
HETATM   11  H   UNL     1     -39.647  52.764 -49.785  1.00  0.00     0.166 HD
HETATM   12  C   UNL     1     -39.983  52.299 -51.817  1.00  0.00     0.043 A 
HETATM   13  C   UNL     1     -40.571  53.052 -52.834  1.00  0.00     0.004 A 
HETATM   14  C   UNL     1     -39.485  51.005 -52.016  1.00  0.00     0.030 A 
HETATM   15  C   UNL     1     -40.658  52.474 -54.120  1.00  0.00     0.014 A 
HETATM   16  C   UNL     1     -40.164  51.182 -54.337  1.00  0.00     0.001 A 
HETATM   17  C   UNL     1     -39.588  50.459 -53.297  1.00  0.00     0.002 A 
ENDBRANCH   6   7
ENDBRANCH   1   5
BRANCH   2  18
HETATM   18  C   UNL     1     -42.171  59.548 -55.010  1.00  0.00     0.227 C 
BRANCH  18  19
HETATM   19  N   UNL     1     -42.129  59.173 -56.420  1.00  0.00    -0.352 N 
HETATM   20  C   UNL     1     -42.882  58.142 -56.934  1.00  0.00     0.222 C 
HETATM   21  O   UNL     1     -43.850  57.683 -56.330  1.00  0.00    -0.273 OA
HETATM   22  H   UNL     1     -41.358  59.533 -56.966  1.00  0.00     0.162 HD
BRANCH  20  23
HETATM   23  C   UNL     1     -42.445  57.642 -58.297  1.00  0.00     0.141 C 
BRANCH  23  24
HETATM   24  C   UNL     1     -43.491  56.818 -58.998  1.00  0.00    -0.050 A 
HETATM   25  C   UNL     1     -44.563  57.435 -59.658  1.00  0.00     0.007 A 
HETATM   26  C   UNL     1     -45.517  56.667 -60.327  1.00  0.00     0.001 A 
HETATM   27  C   UNL     1     -45.414  55.278 -60.339  1.00  0.00     0.000 A 
HETATM   28  C   UNL     1     -44.360  54.653 -59.674  1.00  0.00     0.001 A 
HETATM   29  C   UNL     1     -43.405  55.418 -59.003  1.00  0.00     0.007 A 
ENDBRANCH  23  24
ENDBRANCH  20  23
ENDBRANCH  18  19
ENDBRANCH   2  18
TORSDOF 6
ENDMDL
MODEL 2
REMARK VINA RESULT:      -8.5      2.156      2.834
REMARK  6 active torsions:
REMARK  status: ('A' for Active; 'I' for Inactive)
REMARK    1  A    between atoms: C_7  and  C_8 
REMARK    2  A    between atoms: N_9  and  N_10 
REMARK       I    between atoms: N_10  and  C_11 
REMARK    3  A    between atoms: C_11  and  C_12 
REMARK    4  A    between atoms: C_12  and  N_13 
REMARK       I    between atoms: N_13  and  C_14 
REMARK    5  A    between atoms: C_14  and  C_15 
REMARK    6  A    between atoms: C_15  and  C_16 
ROOT
HETATM    1  N   UNL     1     -41.675  58.141 -51.761  1.00  0.00    -0.246 N 
HETATM    2  C   UNL     1     -41.076  59.152 -52.490  1.00  0.00     0.255 C 
HETATM    3  O   UNL     1     -39.891  59.181 -52.823  1.00  0.00    -0.270 OA
HETATM    4  H   UNL     1     -42.696  58.128 -51.694  1.00  0.00     0.192 HD
ENDROOT
BRANCH   1   5
HETATM    5  N   UNL     1     -40.972  57.016 -51.427  1.00  0.00    -0.184 NA
HETATM    6  C   UNL     1     -41.647  55.916 -51.514  1.00  0.00     0.153 C 
BRANCH   6   7
HETATM    7  C   UNL     1     -41.012  54.635 -51.264  1.00  0.00     0.018 A 
HETATM    8  C   UNL     1     -40.745  54.141 -49.994  1.00  0.00     0.018 A 
HETATM    9  C   UNL     1     -40.976  54.731 -48.650  1.00  0.00     0.069 C 
HETATM   10  N   UNL     1     -40.177  52.900 -50.140  1.00  0.00    -0.358 N 
HETATM   11  H   UNL     1     -39.880  52.301 -49.382  1.00  0.00     0.166 HD
HETATM   12  C   UNL     1     -40.069  52.568 -51.468  1.00  0.00     0.043 A 
HETATM   13  C   UNL     1     -40.572  53.643 -52.202  1.00  0.00     0.004 A 
HETATM   14  C   UNL     1     -39.569  51.403 -52.065  1.00  0.00     0.030 A 
HETATM   15  C   UNL     1     -40.569  53.542 -53.612  1.00  0.00     0.014 A 
HETATM   16  C   UNL     1     -40.073  52.384 -54.224  1.00  0.00     0.001 A 
HETATM   17  C   UNL     1     -39.582  51.331 -53.460  1.00  0.00     0.002 A 
ENDBRANCH   6   7
ENDBRANCH   1   5
BRANCH   2  18
HETATM   18  C   UNL     1     -42.068  60.185 -53.040  1.00  0.00     0.227 C 
BRANCH  18  19
HETATM   19  N   UNL     1     -43.048  59.740 -54.026  1.00  0.00    -0.352 N 
HETATM   20  C   UNL     1     -44.224  59.119 -53.672  1.00  0.00     0.222 C 
HETATM   21  O   UNL     1     -44.667  59.178 -52.527  1.00  0.00    -0.273 OA
HETATM   22  H   UNL     1     -42.737  59.683 -54.987  1.00  0.00     0.162 HD
BRANCH  20  23
HETATM   23  C   UNL     1     -44.931  58.389 -54.797  1.00  0.00     0.141 C 
BRANCH  23  24
HETATM   24  C   UNL     1     -44.196  57.164 -55.273  1.00  0.00    -0.050 A 
HETATM   25  C   UNL     1     -44.042  56.052 -54.433  1.00  0.00     0.007 A 
HETATM   26  C   UNL     1     -43.382  54.910 -54.888  1.00  0.00     0.001 A 
HETATM   27  C   UNL     1     -42.865  54.869 -56.181  1.00  0.00     0.000 A 
HETATM   28  C   UNL     1     -43.002  55.973 -57.020  1.00  0.00     0.001 A 
HETATM   29  C   UNL     1     -43.660  57.118 -56.568  1.00  0.00     0.007 A 
ENDBRANCH  23  24
ENDBRANCH  20  23
ENDBRANCH  18  19
ENDBRANCH   2  18
TORSDOF 6
ENDMDL
MODEL 3
REMARK VINA RESULT:      -8.3      1.746      1.870
REMARK  6 active torsions:
REMARK  status: ('A' for Active; 'I' for Inactive)
REMARK    1  A    between atoms: C_7  and  C_8 
REMARK    2  A    between atoms: N_9  and  N_10 
REMARK       I    between atoms: N_10  and  C_11 
REMARK    3  A    between atoms: C_11  and  C_12 
REMARK    4  A    between atoms: C_12  and  N_13 
REMARK       I    between atoms: N_13  and  C_14 
REMARK    5  A    between atoms: C_14  and  C_15 
REMARK    6  A    between atoms: C_15  and  C_16 
ROOT
HETATM    1  N   UNL     1     -44.408  55.721 -54.457  1.00  0.00    -0.246 N 
HETATM    2  C   UNL     1     -44.720  56.995 -54.020  1.00  0.00     0.255 C 
HETATM    3  O   UNL     1     -44.448  57.451 -52.909  1.00  0.00    -0.270 OA
HETATM    4  H   UNL     1     -44.518  55.507 -55.452  1.00  0.00     0.192 HD
ENDROOT
BRANCH   1   5
HETATM    5  N   UNL     1     -43.664  54.882 -53.674  1.00  0.00    -0.184 NA
HETATM    6  C   UNL     1     -42.386  54.971 -53.856  1.00  0.00     0.153 C 
BRANCH   6   7
HETATM    7  C   UNL     1     -41.466  54.198 -53.042  1.00  0.00     0.018 A 
HETATM    8  C   UNL     1     -41.018  54.600 -51.790  1.00  0.00     0.018 A 
HETATM    9  C   UNL     1     -41.294  55.832 -51.006  1.00  0.00     0.069 C 
HETATM   10  N   UNL     1     -40.195  53.615 -51.305  1.00  0.00    -0.358 N 
HETATM   11  H   UNL     1     -39.726  53.634 -50.410  1.00  0.00     0.166 HD
HETATM   12  C   UNL     1     -40.096  52.579 -52.202  1.00  0.00     0.043 A 
HETATM   13  C   UNL     1     -40.872  52.920 -53.310  1.00  0.00     0.004 A 
HETATM   14  C   UNL     1     -39.385  51.376 -52.108  1.00  0.00     0.030 A 
HETATM   15  C   UNL     1     -40.931  52.003 -54.384  1.00  0.00     0.014 A 
HETATM   16  C   UNL     1     -40.226  50.796 -54.308  1.00  0.00     0.001 A 
HETATM   17  C   UNL     1     -39.466  50.488 -53.184  1.00  0.00     0.002 A 
ENDBRANCH   6   7
ENDBRANCH   1   5
BRANCH   2  18
HETATM   18  C   UNL     1     -45.284  57.903 -55.121  1.00  0.00     0.227 C 
BRANCH  18  19
HETATM   19  N   UNL     1     -44.871  57.650 -56.498  1.00  0.00    -0.352 N 
HETATM   20  C   UNL     1     -43.698  58.144 -57.021  1.00  0.00     0.222 C 
HETATM   21  O   UNL     1     -42.789  58.552 -56.301  1.00  0.00    -0.273 OA
HETATM   22  H   UNL     1     -45.580  57.303 -57.131  1.00  0.00     0.162 HD
BRANCH  20  23
HETATM   23  C   UNL     1     -43.607  58.120 -58.535  1.00  0.00     0.141 C 
BRANCH  23  24
HETATM   24  C   UNL     1     -44.227  56.896 -59.154  1.00  0.00    -0.050 A 
HETATM   25  C   UNL     1     -45.429  56.988 -59.869  1.00  0.00     0.007 A 
HETATM   26  C   UNL     1     -45.986  55.854 -60.463  1.00  0.00     0.001 A 
HETATM   27  C   UNL     1     -45.354  54.619 -60.343  1.00  0.00     0.000 A 
HETATM   28  C   UNL     1     -44.165  54.513 -59.623  1.00  0.00     0.001 A 
HETATM   29  C   UNL     1     -43.606  55.645 -59.027  1.00  0.00     0.007 A 
ENDBRANCH  23  24
ENDBRANCH  20  23
ENDBRANCH  18  19
ENDBRANCH   2  18
TORSDOF 6
ENDMDL
MODEL 4
REMARK VINA RESULT:      -8.2      2.270      4.819
REMARK  6 active torsions:
REMARK  status: ('A' for Active; 'I' for Inactive)
REMARK    1  A    between atoms: C_7  and  C_8 
REMARK    2  A    between atoms: N_9  and  N_10 
REMARK       I    between atoms: N_10  and  C_11 
REMARK    3  A    between atoms: C_11  and  C_12 
REMARK    4  A    between atoms: C_12  and  N_13 
REMARK       I    between atoms: N_13  and  C_14 
REMARK    5  A    between atoms: C_14  and  C_15 
REMARK    6  A    between atoms: C_15  and  C_16 
ROOT
HETATM    1  N   UNL     1     -42.651  56.161 -54.483  1.00  0.00    -0.246 N 
HETATM    2  C   UNL     1     -42.811  56.190 -55.856  1.00  0.00     0.255 C 
HETATM    3  O   UNL     1     -42.571  55.253 -56.618  1.00  0.00    -0.270 OA
HETATM    4  H   UNL     1     -43.046  56.925 -53.930  1.00  0.00     0.192 HD
ENDROOT
BRANCH   1   5
HETATM    5  N   UNL     1     -42.282  55.004 -53.852  1.00  0.00    -0.184 NA
HETATM    6  C   UNL     1     -41.112  55.043 -53.301  1.00  0.00     0.153 C 
BRANCH   6   7
HETATM    7  C   UNL     1     -40.618  53.917 -52.531  1.00  0.00     0.018 A 
HETATM    8  C   UNL     1     -40.383  53.963 -51.162  1.00  0.00     0.018 A 
HETATM    9  C   UNL     1     -40.523  55.074 -50.186  1.00  0.00     0.069 C 
HETATM   10  N   UNL     1     -39.958  52.718 -50.770  1.00  0.00    -0.358 N 
HETATM   11  H   UNL     1     -39.715  52.455 -49.825  1.00  0.00     0.166 HD
HETATM   12  C   UNL     1     -39.911  51.861 -51.841  1.00  0.00     0.043 A 
HETATM   13  C   UNL     1     -40.307  52.586 -52.966  1.00  0.00     0.004 A 
HETATM   14  C   UNL     1     -39.554  50.507 -51.893  1.00  0.00     0.030 A 
HETATM   15  C   UNL     1     -40.341  51.915 -54.209  1.00  0.00     0.014 A 
HETATM   16  C   UNL     1     -39.986  50.562 -54.279  1.00  0.00     0.001 A 
HETATM   17  C   UNL     1     -39.601  49.869 -53.135  1.00  0.00     0.002 A 
ENDBRANCH   6   7
ENDBRANCH   1   5
BRANCH   2  18
HETATM   18  C   UNL     1     -43.514  57.454 -56.367  1.00  0.00     0.227 C 
BRANCH  18  19
HETATM   19  N   UNL     1     -43.454  58.656 -55.540  1.00  0.00    -0.352 N 
HETATM   20  C   UNL     1     -42.437  59.577 -55.647  1.00  0.00     0.222 C 
HETATM   21  O   UNL     1     -41.701  59.617 -56.632  1.00  0.00    -0.273 OA
HETATM   22  H   UNL     1     -44.048  58.679 -54.722  1.00  0.00     0.162 HD
BRANCH  20  23
HETATM   23  C   UNL     1     -42.315  60.541 -54.483  1.00  0.00     0.141 C 
BRANCH  23  24
HETATM   24  C   UNL     1     -41.847  59.887 -53.210  1.00  0.00    -0.050 A 
HETATM   25  C   UNL     1     -40.754  59.010 -53.217  1.00  0.00     0.007 A 
HETATM   26  C   UNL     1     -40.308  58.427 -52.031  1.00  0.00     0.001 A 
HETATM   27  C   UNL     1     -40.953  58.708 -50.828  1.00  0.00     0.000 A 
HETATM   28  C   UNL     1     -42.049  59.568 -50.811  1.00  0.00     0.001 A 
HETATM   29  C   UNL     1     -42.498  60.152 -51.996  1.00  0.00     0.007 A 
ENDBRANCH  23  24
ENDBRANCH  20  23
ENDBRANCH  18  19
ENDBRANCH   2  18
TORSDOF 6
ENDMDL
MODEL 5
REMARK VINA RESULT:      -7.9      2.018      7.532
REMARK  6 active torsions:
REMARK  status: ('A' for Active; 'I' for Inactive)
REMARK    1  A    between atoms: C_7  and  C_8 
REMARK    2  A    between atoms: N_9  and  N_10 
REMARK       I    between atoms: N_10  and  C_11 
REMARK    3  A    between atoms: C_11  and  C_12 
REMARK    4  A    between atoms: C_12  and  N_13 
REMARK       I    between atoms: N_13  and  C_14 
REMARK    5  A    between atoms: C_14  and  C_15 
REMARK    6  A    between atoms: C_15  and  C_16 
ROOT
HETATM    1  N   UNL     1     -43.727  55.868 -52.994  1.00  0.00    -0.246 N 
HETATM    2  C   UNL     1     -43.627  56.420 -51.731  1.00  0.00     0.255 C 
HETATM    3  O   UNL     1     -43.495  57.620 -51.490  1.00  0.00    -0.270 OA
HETATM    4  H   UNL     1     -44.012  54.888 -53.076  1.00  0.00     0.192 HD
ENDROOT
BRANCH   1   5
HETATM    5  N   UNL     1     -43.777  56.670 -54.101  1.00  0.00    -0.184 NA
HETATM    6  C   UNL     1     -42.653  56.785 -54.731  1.00  0.00     0.153 C 
BRANCH   6   7
HETATM    7  C   UNL     1     -42.570  57.542 -55.966  1.00  0.00     0.018 A 
HETATM    8  C   UNL     1     -42.284  58.901 -56.020  1.00  0.00     0.018 A 
HETATM    9  C   UNL     1     -42.037  59.889 -54.938  1.00  0.00     0.069 C 
HETATM   10  N   UNL     1     -42.253  59.268 -57.342  1.00  0.00    -0.358 N 
HETATM   11  H   UNL     1     -42.066  60.200 -57.685  1.00  0.00     0.166 HD
HETATM   12  C   UNL     1     -42.506  58.189 -58.153  1.00  0.00     0.043 A 
HETATM   13  C   UNL     1     -42.723  57.091 -57.319  1.00  0.00     0.004 A 
HETATM   14  C   UNL     1     -42.554  58.107 -59.551  1.00  0.00     0.030 A 
HETATM   15  C   UNL     1     -43.007  55.846 -57.924  1.00  0.00     0.014 A 
HETATM   16  C   UNL     1     -43.060  55.747 -59.320  1.00  0.00     0.001 A 
HETATM   17  C   UNL     1     -42.834  56.862 -60.120  1.00  0.00     0.002 A 
ENDBRANCH   6   7
ENDBRANCH   1   5
BRANCH   2  18
HETATM   18  C   UNL     1     -43.890  55.419 -50.598  1.00  0.00     0.227 C 
BRANCH  18  19
HETATM   19  N   UNL     1     -42.889  54.387 -50.347  1.00  0.00    -0.352 N 
HETATM   20  C   UNL     1     -41.604  54.684 -49.954  1.00  0.00     0.222 C 
HETATM   21  O   UNL     1     -41.305  55.784 -49.495  1.00  0.00    -0.273 OA
HETATM   22  H   UNL     1     -43.090  53.460 -50.696  1.00  0.00     0.162 HD
BRANCH  20  23
HETATM   23  C   UNL     1     -40.606  53.552 -50.109  1.00  0.00     0.141 C 
BRANCH  23  24
HETATM   24  C   UNL     1     -40.385  53.138 -51.539  1.00  0.00    -0.050 A 
HETATM   25  C   UNL     1     -39.867  51.872 -51.844  1.00  0.00     0.007 A 
HETATM   26  C   UNL     1     -39.688  51.484 -53.172  1.00  0.00     0.001 A 
HETATM   27  C   UNL     1     -40.018  52.356 -54.207  1.00  0.00     0.000 A 
HETATM   28  C   UNL     1     -40.521  53.622 -53.915  1.00  0.00     0.001 A 
HETATM   29  C   UNL     1     -40.700  54.015 -52.587  1.00  0.00     0.007 A 
ENDBRANCH  23  24
ENDBRANCH  20  23
ENDBRANCH  18  19
ENDBRANCH   2  18
TORSDOF 6
ENDMDL
MODEL 6
REMARK VINA RESULT:      -7.5      2.512      8.462
REMARK  6 active torsions:
REMARK  status: ('A' for Active; 'I' for Inactive)
REMARK    1  A    between atoms: C_7  and  C_8 
REMARK    2  A    between atoms: N_9  and  N_10 
REMARK       I    between atoms: N_10  and  C_11 
REMARK    3  A    between atoms: C_11  and  C_12 
REMARK    4  A    between atoms: C_12  and  N_13 
REMARK       I    between atoms: N_13  and  C_14 
REMARK    5  A    between atoms: C_14  and  C_15 
REMARK    6  A    between atoms: C_15  and  C_16 
ROOT
HETATM    1  N   UNL     1     -43.241  57.104 -54.907  1.00  0.00    -0.246 N 
HETATM    2  C   UNL     1     -43.995  57.623 -53.870  1.00  0.00     0.255 C 
HETATM    3  O   UNL     1     -44.769  58.576 -53.963  1.00  0.00    -0.270 OA
HETATM    4  H   UNL     1     -42.771  56.206 -54.766  1.00  0.00     0.192 HD
ENDROOT
BRANCH   1   5
HETATM    5  N   UNL     1     -43.385  57.587 -56.178  1.00  0.00    -0.184 NA
HETATM    6  C   UNL     1     -42.308  57.543 -56.893  1.00  0.00     0.153 C 
BRANCH   6   7
HETATM    7  C   UNL     1     -42.325  57.950 -58.286  1.00  0.00     0.018 A 
HETATM    8  C   UNL     1     -42.718  57.119 -59.328  1.00  0.00     0.018 A 
HETATM    9  C   UNL     1     -43.161  55.700 -59.329  1.00  0.00     0.069 C 
HETATM   10  N   UNL     1     -42.642  57.843 -60.491  1.00  0.00    -0.358 N 
HETATM   11  H   UNL     1     -42.871  57.495 -61.412  1.00  0.00     0.166 HD
HETATM   12  C   UNL     1     -42.214  59.124 -60.239  1.00  0.00     0.043 A 
HETATM   13  C   UNL     1     -41.993  59.220 -58.865  1.00  0.00     0.004 A 
HETATM   14  C   UNL     1     -42.013  60.193 -61.122  1.00  0.00     0.030 A 
HETATM   15  C   UNL     1     -41.541  60.457 -58.352  1.00  0.00     0.014 A 
HETATM   16  C   UNL     1     -41.334  61.536 -59.220  1.00  0.00     0.001 A 
HETATM   17  C   UNL     1     -41.569  61.404 -60.585  1.00  0.00     0.002 A 
ENDBRANCH   6   7
ENDBRANCH   1   5
BRANCH   2  18
HETATM   18  C   UNL     1     -43.943  56.779 -52.589  1.00  0.00     0.227 C 
BRANCH  18  19
HETATM   19  N   UNL     1     -42.722  56.031 -52.308  1.00  0.00    -0.352 N 
HETATM   20  C   UNL     1     -42.738  54.770 -51.758  1.00  0.00     0.222 C 
HETATM   21  O   UNL     1     -43.753  54.076 -51.757  1.00  0.00    -0.273 OA
HETATM   22  H   UNL     1     -41.856  56.553 -52.306  1.00  0.00     0.162 HD
BRANCH  20  23
HETATM   23  C   UNL     1     -41.415  54.301 -51.183  1.00  0.00     0.141 C 
BRANCH  23  24
HETATM   24  C   UNL     1     -40.741  53.244 -52.015  1.00  0.00    -0.050 A 
HETATM   25  C   UNL     1     -40.881  53.235 -53.410  1.00  0.00     0.007 A 
HETATM   26  C   UNL     1     -40.233  52.268 -54.179  1.00  0.00     0.001 A 
HETATM   27  C   UNL     1     -39.445  51.298 -53.564  1.00  0.00     0.000 A 
HETATM   28  C   UNL     1     -39.309  51.289 -52.178  1.00  0.00     0.001 A 
HETATM   29  C   UNL     1     -39.957  52.254 -51.405  1.00  0.00     0.007 A 
ENDBRANCH  23  24
ENDBRANCH  20  23
ENDBRANCH  18  19
ENDBRANCH   2  18
TORSDOF 6
ENDMDL
MODEL 7
REMARK VINA RESULT:      -7.5      2.661      4.603
REMARK  6 active torsions:
REMARK  status: ('A' for Active; 'I' for Inactive)
REMARK    1  A    between atoms: C_7  and  C_8 
REMARK    2  A    between atoms: N_9  and  N_10 
REMARK       I    between atoms: N_10  and  C_11 
REMARK    3  A    between atoms: C_11  and  C_12 
REMARK    4  A    between atoms: C_12  and  N_13 
REMARK       I    between atoms: N_13  and  C_14 
REMARK    5  A    between atoms: C_14  and  C_15 
REMARK    6  A    between atoms: C_15  and  C_16 
ROOT
HETATM    1  N   UNL     1     -41.929  54.937 -56.321  1.00  0.00    -0.246 N 
HETATM    2  C   UNL     1     -42.849  55.951 -56.513  1.00  0.00     0.255 C 
HETATM    3  O   UNL     1     -43.238  56.729 -55.641  1.00  0.00    -0.270 OA
HETATM    4  H   UNL     1     -41.544  54.467 -57.145  1.00  0.00     0.192 HD
ENDROOT
BRANCH   1   5
HETATM    5  N   UNL     1     -41.301  54.789 -55.116  1.00  0.00    -0.184 NA
HETATM    6  C   UNL     1     -41.622  53.713 -54.472  1.00  0.00     0.153 C 
BRANCH   6   7
HETATM    7  C   UNL     1     -40.979  53.382 -53.214  1.00  0.00     0.018 A 
HETATM    8  C   UNL     1     -40.146  52.284 -53.039  1.00  0.00     0.018 A 
HETATM    9  C   UNL     1     -39.734  51.212 -53.983  1.00  0.00     0.069 C 
HETATM   10  N   UNL     1     -39.695  52.305 -51.743  1.00  0.00    -0.358 N 
HETATM   11  H   UNL     1     -39.069  51.627 -51.332  1.00  0.00     0.166 HD
HETATM   12  C   UNL     1     -40.206  53.386 -51.068  1.00  0.00     0.043 A 
HETATM   13  C   UNL     1     -41.028  54.076 -51.960  1.00  0.00     0.004 A 
HETATM   14  C   UNL     1     -39.998  53.799 -49.746  1.00  0.00     0.030 A 
HETATM   15  C   UNL     1     -41.678  55.242 -51.495  1.00  0.00     0.014 A 
HETATM   16  C   UNL     1     -41.481  55.668 -50.176  1.00  0.00     0.001 A 
HETATM   17  C   UNL     1     -40.651  54.957 -49.316  1.00  0.00     0.002 A 
ENDBRANCH   6   7
ENDBRANCH   1   5
BRANCH   2  18
HETATM   18  C   UNL     1     -43.227  56.171 -57.983  1.00  0.00     0.227 C 
BRANCH  18  19
HETATM   19  N   UNL     1     -42.465  57.152 -58.749  1.00  0.00    -0.352 N 
HETATM   20  C   UNL     1     -43.046  58.265 -59.312  1.00  0.00     0.222 C 
HETATM   21  O   UNL     1     -44.152  58.668 -58.955  1.00  0.00    -0.273 OA
HETATM   22  H   UNL     1     -41.543  56.874 -59.059  1.00  0.00     0.162 HD
BRANCH  20  23
HETATM   23  C   UNL     1     -42.215  58.959 -60.373  1.00  0.00     0.141 C 
BRANCH  23  24
HETATM   24  C   UNL     1     -41.723  60.319 -59.955  1.00  0.00    -0.050 A 
HETATM   25  C   UNL     1     -41.478  60.605 -58.605  1.00  0.00     0.007 A 
HETATM   26  C   UNL     1     -40.997  61.859 -58.224  1.00  0.00     0.001 A 
HETATM   27  C   UNL     1     -40.762  62.839 -59.186  1.00  0.00     0.000 A 
HETATM   28  C   UNL     1     -41.014  62.569 -60.530  1.00  0.00     0.001 A 
HETATM   29  C   UNL     1     -41.496  61.317 -60.913  1.00  0.00     0.007 A 
ENDBRANCH  23  24
ENDBRANCH  20  23
ENDBRANCH  18  19
ENDBRANCH   2  18
TORSDOF 6
ENDMDL
MODEL 8
REMARK VINA RESULT:      -7.5      2.934      4.218
REMARK  6 active torsions:
REMARK  status: ('A' for Active; 'I' for Inactive)
REMARK    1  A    between atoms: C_7  and  C_8 
REMARK    2  A    between atoms: N_9  and  N_10 
REMARK       I    between atoms: N_10  and  C_11 
REMARK    3  A    between atoms: C_11  and  C_12 
REMARK    4  A    between atoms: C_12  and  N_13 
REMARK       I    between atoms: N_13  and  C_14 
REMARK    5  A    between atoms: C_14  and  C_15 
REMARK    6  A    between atoms: C_15  and  C_16 
ROOT
HETATM    1  N   UNL     1     -42.414  55.555 -56.983  1.00  0.00    -0.246 N 
HETATM    2  C   UNL     1     -43.222  56.676 -57.037  1.00  0.00     0.255 C 
HETATM    3  O   UNL     1     -43.404  57.465 -56.110  1.00  0.00    -0.270 OA
HETATM    4  H   UNL     1     -42.192  55.072 -57.857  1.00  0.00     0.192 HD
ENDROOT
BRANCH   1   5
HETATM    5  N   UNL     1     -41.665  55.294 -55.869  1.00  0.00    -0.184 NA
HETATM    6  C   UNL     1     -42.139  54.357 -55.112  1.00  0.00     0.153 C 
BRANCH   6   7
HETATM    7  C   UNL     1     -41.413  53.917 -53.935  1.00  0.00     0.018 A 
HETATM    8  C   UNL     1     -41.248  54.693 -52.795  1.00  0.00     0.018 A 
HETATM    9  C   UNL     1     -41.693  56.077 -52.485  1.00  0.00     0.069 C 
HETATM   10  N   UNL     1     -40.546  53.948 -51.881  1.00  0.00    -0.358 N 
HETATM   11  H   UNL     1     -40.281  54.256 -50.956  1.00  0.00     0.166 HD
HETATM   12  C   UNL     1     -40.250  52.707 -52.390  1.00  0.00     0.043 A 
HETATM   13  C   UNL     1     -40.769  52.659 -53.684  1.00  0.00     0.004 A 
HETATM   14  C   UNL     1     -39.570  51.633 -51.800  1.00  0.00     0.030 A 
HETATM   15  C   UNL     1     -40.590  51.470 -54.426  1.00  0.00     0.014 A 
HETATM   16  C   UNL     1     -39.912  50.388 -53.852  1.00  0.00     0.001 A 
HETATM   17  C   UNL     1     -39.412  50.470 -52.557  1.00  0.00     0.002 A 
ENDBRANCH   6   7
ENDBRANCH   1   5
BRANCH   2  18
HETATM   18  C   UNL     1     -43.748  56.988 -58.444  1.00  0.00     0.227 C 
BRANCH  18  19
HETATM   19  N   UNL     1     -42.999  57.937 -59.263  1.00  0.00    -0.352 N 
HETATM   20  C   UNL     1     -43.463  59.203 -59.538  1.00  0.00     0.222 C 
HETATM   21  O   UNL     1     -44.360  59.722 -58.876  1.00  0.00    -0.273 OA
HETATM   22  H   UNL     1     -42.242  57.563 -59.820  1.00  0.00     0.162 HD
BRANCH  20  23
HETATM   23  C   UNL     1     -42.771  59.907 -60.689  1.00  0.00     0.141 C 
BRANCH  23  24
HETATM   24  C   UNL     1     -41.768  60.938 -60.246  1.00  0.00    -0.050 A 
HETATM   25  C   UNL     1     -41.158  61.789 -61.178  1.00  0.00     0.007 A 
HETATM   26  C   UNL     1     -40.248  62.760 -60.759  1.00  0.00     0.001 A 
HETATM   27  C   UNL     1     -39.933  62.887 -59.408  1.00  0.00     0.000 A 
HETATM   28  C   UNL     1     -40.523  62.038 -58.474  1.00  0.00     0.001 A 
HETATM   29  C   UNL     1     -41.433  61.065 -58.890  1.00  0.00     0.007 A 
ENDBRANCH  23  24
ENDBRANCH  20  23
ENDBRANCH  18  19
ENDBRANCH   2  18
TORSDOF 6
ENDMDL
MODEL 9
REMARK VINA RESULT:      -7.5      1.626      2.237
REMARK  6 active torsions:
REMARK  status: ('A' for Active; 'I' for Inactive)
REMARK    1  A    between atoms: C_7  and  C_8 
REMARK    2  A    between atoms: N_9  and  N_10 
REMARK       I    between atoms: N_10  and  C_11 
REMARK    3  A    between atoms: C_11  and  C_12 
REMARK    4  A    between atoms: C_12  and  N_13 
REMARK       I    between atoms: N_13  and  C_14 
REMARK    5  A    between atoms: C_14  and  C_15 
REMARK    6  A    between atoms: C_15  and  C_16 
ROOT
HETATM    1  N   UNL     1     -42.374  56.159 -53.940  1.00  0.00    -0.246 N 
HETATM    2  C   UNL     1     -42.710  57.361 -53.346  1.00  0.00     0.255 C 
HETATM    3  O   UNL     1     -42.879  57.533 -52.139  1.00  0.00    -0.270 OA
HETATM    4  H   UNL     1     -42.082  56.165 -54.921  1.00  0.00     0.192 HD
ENDROOT
BRANCH   1   5
HETATM    5  N   UNL     1     -42.111  55.057 -53.175  1.00  0.00    -0.184 NA
HETATM    6  C   UNL     1     -40.907  54.596 -53.293  1.00  0.00     0.153 C 
BRANCH   6   7
HETATM    7  C   UNL     1     -40.459  53.477 -52.486  1.00  0.00     0.018 A 
HETATM    8  C   UNL     1     -40.271  53.543 -51.111  1.00  0.00     0.018 A 
HETATM    9  C   UNL     1     -40.426  54.675 -50.160  1.00  0.00     0.069 C 
HETATM   10  N   UNL     1     -39.881  52.299 -50.683  1.00  0.00    -0.358 N 
HETATM   11  H   UNL     1     -39.675  52.049 -49.726  1.00  0.00     0.166 HD
HETATM   12  C   UNL     1     -39.812  51.422 -51.737  1.00  0.00     0.043 A 
HETATM   13  C   UNL     1     -40.157  52.133 -52.887  1.00  0.00     0.004 A 
HETATM   14  C   UNL     1     -39.477  50.061 -51.752  1.00  0.00     0.030 A 
HETATM   15  C   UNL     1     -40.159  51.440 -54.118  1.00  0.00     0.014 A 
HETATM   16  C   UNL     1     -39.825  50.080 -54.152  1.00  0.00     0.001 A 
HETATM   17  C   UNL     1     -39.492  49.402 -52.984  1.00  0.00     0.002 A 
ENDBRANCH   6   7
ENDBRANCH   1   5
BRANCH   2  18
HETATM   18  C   UNL     1     -42.670  58.556 -54.308  1.00  0.00     0.227 C 
BRANCH  18  19
HETATM   19  N   UNL     1     -43.130  58.351 -55.678  1.00  0.00    -0.352 N 
HETATM   20  C   UNL     1     -44.397  58.693 -56.092  1.00  0.00     0.222 C 
HETATM   21  O   UNL     1     -45.104  59.462 -55.444  1.00  0.00    -0.273 OA
HETATM   22  H   UNL     1     -42.577  57.733 -56.258  1.00  0.00     0.162 HD
BRANCH  20  23
HETATM   23  C   UNL     1     -44.835  58.074 -57.406  1.00  0.00     0.141 C 
BRANCH  23  24
HETATM   24  C   UNL     1     -43.779  58.132 -58.477  1.00  0.00    -0.050 A 
HETATM   25  C   UNL     1     -43.180  56.958 -58.954  1.00  0.00     0.007 A 
HETATM   26  C   UNL     1     -42.221  57.014 -59.966  1.00  0.00     0.001 A 
HETATM   27  C   UNL     1     -41.845  58.243 -60.505  1.00  0.00     0.000 A 
HETATM   28  C   UNL     1     -42.424  59.418 -60.029  1.00  0.00     0.001 A 
HETATM   29  C   UNL     1     -43.383  59.364 -59.017  1.00  0.00     0.007 A 
ENDBRANCH  23  24
ENDBRANCH  20  23
ENDBRANCH  18  19
ENDBRANCH   2  18
TORSDOF 6
ENDMDL
MODEL 10
REMARK VINA RESULT:      -7.4      2.589      4.801
REMARK  6 active torsions:
REMARK  status: ('A' for Active; 'I' for Inactive)
REMARK    1  A    between atoms: C_7  and  C_8 
REMARK    2  A    between atoms: N_9  and  N_10 
REMARK       I    between atoms: N_10  and  C_11 
REMARK    3  A    between atoms: C_11  and  C_12 
REMARK    4  A    between atoms: C_12  and  N_13 
REMARK       I    between atoms: N_13  and  C_14 
REMARK    5  A    between atoms: C_14  and  C_15 
REMARK    6  A    between atoms: C_15  and  C_16 
ROOT
HETATM    1  N   UNL     1     -41.972  55.851 -54.988  1.00  0.00    -0.246 N 
HETATM    2  C   UNL     1     -43.193  56.498 -55.018  1.00  0.00     0.255 C 
HETATM    3  O   UNL     1     -44.216  56.109 -54.454  1.00  0.00    -0.270 OA
HETATM    4  H   UNL     1     -41.148  56.348 -55.338  1.00  0.00     0.192 HD
ENDROOT
BRANCH   1   5
HETATM    5  N   UNL     1     -41.797  54.733 -54.220  1.00  0.00    -0.184 NA
HETATM    6  C   UNL     1     -40.690  54.710 -53.550  1.00  0.00     0.153 C 
BRANCH   6   7
HETATM    7  C   UNL     1     -40.401  53.624 -52.633  1.00  0.00     0.018 A 
HETATM    8  C   UNL     1     -40.386  53.765 -51.251  1.00  0.00     0.018 A 
HETATM    9  C   UNL     1     -40.607  54.956 -50.390  1.00  0.00     0.069 C 
HETATM   10  N   UNL     1     -40.112  52.534 -50.709  1.00  0.00    -0.358 N 
HETATM   11  H   UNL     1     -40.042  52.334 -49.721  1.00  0.00     0.166 HD
HETATM   12  C   UNL     1     -39.951  51.593 -51.696  1.00  0.00     0.043 A 
HETATM   13  C   UNL     1     -40.113  52.248 -52.918  1.00  0.00     0.004 A 
HETATM   14  C   UNL     1     -39.681  50.222 -51.594  1.00  0.00     0.030 A 
HETATM   15  C   UNL     1     -39.991  51.483 -54.099  1.00  0.00     0.014 A 
HETATM   16  C   UNL     1     -39.720  50.112 -54.016  1.00  0.00     0.001 A 
HETATM   17  C   UNL     1     -39.570  49.492 -52.780  1.00  0.00     0.002 A 
ENDBRANCH   6   7
ENDBRANCH   1   5
BRANCH   2  18
HETATM   18  C   UNL     1     -43.140  57.885 -55.670  1.00  0.00     0.227 C 
BRANCH  18  19
HETATM   19  N   UNL     1     -43.160  59.056 -54.798  1.00  0.00    -0.352 N 
HETATM   20  C   UNL     1     -42.094  59.400 -53.999  1.00  0.00     0.222 C 
HETATM   21  O   UNL     1     -40.967  58.947 -54.191  1.00  0.00    -0.273 OA
HETATM   22  H   UNL     1     -44.062  59.474 -54.615  1.00  0.00     0.162 HD
BRANCH  20  23
HETATM   23  C   UNL     1     -42.410  60.390 -52.894  1.00  0.00     0.141 C 
BRANCH  23  24
HETATM   24  C   UNL     1     -43.794  60.231 -52.324  1.00  0.00    -0.050 A 
HETATM   25  C   UNL     1     -44.821  61.113 -52.686  1.00  0.00     0.007 A 
HETATM   26  C   UNL     1     -46.109  60.946 -52.175  1.00  0.00     0.001 A 
HETATM   27  C   UNL     1     -46.382  59.902 -51.294  1.00  0.00     0.000 A 
HETATM   28  C   UNL     1     -45.365  59.026 -50.918  1.00  0.00     0.001 A 
HETATM   29  C   UNL     1     -44.076  59.191 -51.426  1.00  0.00     0.007 A 
ENDBRANCH  23  24
ENDBRANCH  20  23
ENDBRANCH  18  19
ENDBRANCH   2  18
TORSDOF 6
ENDMDL
