MODEL 1
REMARK VINA RESULT:      -8.9      0.000      0.000
REMARK  7 active torsions:
REMARK  status: ('A' for Active; 'I' for Inactive)
REMARK    1  A    between atoms: C_4  and  C_5 
REMARK    2  A    between atoms: C_9  and  C_10 
REMARK       I    between atoms: C_10  and  N_11 
REMARK    3  A    between atoms: N_11  and  N_12 
REMARK       I    between atoms: N_12  and  C_13 
REMARK    4  A    between atoms: C_13  and  C_14 
REMARK    5  A    between atoms: C_14  and  C_15 
REMARK    6  A    between atoms: C_15  and  C_16 
REMARK    7  A    between atoms: C_16  and  C_17 
ROOT
HETATM    1  N   UNL     1     -43.776  59.524 -50.339  1.00  0.00    -0.267 N 
HETATM    2  C   UNL     1     -43.438  60.776 -50.808  1.00  0.00     0.236 C 
HETATM    3  O   UNL     1     -42.819  60.949 -51.855  1.00  0.00    -0.272 OA
HETATM    4  H   UNL     1     -44.131  59.358 -49.397  1.00  0.00     0.190 HD
ENDROOT
BRANCH   1   5
HETATM    5  N   UNL     1     -43.293  58.413 -51.035  1.00  0.00    -0.262 N 
HETATM    6  C   UNL     1     -44.108  57.313 -51.198  1.00  0.00     0.288 C 
HETATM    7  O   UNL     1     -45.268  57.299 -50.788  1.00  0.00    -0.264 OA
HETATM    8  H   UNL     1     -42.304  58.421 -51.272  1.00  0.00     0.190 HD
BRANCH   6   9
HETATM    9  C   UNL     1     -43.513  56.198 -51.879  1.00  0.00     0.121 A 
HETATM   10  N   UNL     1     -43.975  55.763 -53.089  1.00  0.00    -0.272 N 
HETATM   11  N   UNL     1     -43.289  54.733 -53.602  1.00  0.00    -0.174 NA
HETATM   12  H   UNL     1     -44.753  56.146 -53.618  1.00  0.00     0.189 HD
HETATM   13  C   UNL     1     -42.344  54.461 -52.688  1.00  0.00     0.089 A 
HETATM   14  C   UNL     1     -42.455  55.359 -51.587  1.00  0.00     0.071 A 
BRANCH  13  15
HETATM   15  C   UNL     1     -41.364  53.387 -52.884  1.00  0.00    -0.006 A 
HETATM   16  C   UNL     1     -41.239  52.761 -54.134  1.00  0.00     0.014 A 
HETATM   17  C   UNL     1     -40.297  51.750 -54.337  1.00  0.00     0.001 A 
HETATM   18  C   UNL     1     -39.470  51.347 -53.292  1.00  0.00     0.000 A 
HETATM   19  C   UNL     1     -39.586  51.952 -52.042  1.00  0.00     0.001 A 
HETATM   20  C   UNL     1     -40.527  52.967 -51.839  1.00  0.00     0.014 A 
ENDBRANCH  13  15
ENDBRANCH   6   9
ENDBRANCH   1   5
BRANCH   2  21
HETATM   21  C   UNL     1     -43.927  61.895 -49.918  1.00  0.00     0.112 C 
BRANCH  21  22
HETATM   22  C   UNL     1     -45.421  61.771 -49.637  1.00  0.00     0.093 C 
BRANCH  22  23
HETATM   23  C   UNL     1     -45.681  61.217 -48.250  1.00  0.00     0.160 C 
HETATM   24  O   UNL     1     -46.058  60.061 -48.075  1.00  0.00    -0.292 OA
BRANCH  23  25
HETATM   25  C   UNL     1     -45.473  62.110 -47.069  1.00  0.00     0.013 A 
HETATM   26  C   UNL     1     -44.875  61.568 -45.922  1.00  0.00     0.054 A 
HETATM   27  C   UNL     1     -44.652  62.369 -44.803  1.00  0.00     0.103 A 
HETATM   28  C   UNL     1     -45.049  63.709 -44.808  1.00  0.00     0.102 A 
HETATM   29  O   UNL     1     -44.046  61.772 -43.727  1.00  0.00    -0.346 OA
HETATM   30  O   UNL     1     -44.889  64.546 -43.735  1.00  0.00    -0.346 OA
HETATM   31  C   UNL     1     -45.632  64.258 -45.948  1.00  0.00     0.040 A 
HETATM   32  C   UNL     1     -44.609  63.812 -42.537  1.00  0.00     0.202 C 
HETATM   33  C   UNL     1     -43.560  62.742 -42.794  1.00  0.00     0.202 C 
HETATM   34  C   UNL     1     -45.847  63.461 -47.077  1.00  0.00     0.018 A 
ENDBRANCH  23  25
ENDBRANCH  22  23
ENDBRANCH  21  22
ENDBRANCH   2  21
TORSDOF 7
ENDMDL
MODEL 2
REMARK VINA RESULT:      -8.8      6.923     10.023
REMARK  7 active torsions:
REMARK  status: ('A' for Active; 'I' for Inactive)
REMARK    1  A    between atoms: C_4  and  C_5 
REMARK    2  A    between atoms: C_9  and  C_10 
REMARK       I    between atoms: C_10  and  N_11 
REMARK    3  A    between atoms: N_11  and  N_12 
REMARK       I    between atoms: N_12  and  C_13 
REMARK    4  A    between atoms: C_13  and  C_14 
REMARK    5  A    between atoms: C_14  and  C_15 
REMARK    6  A    between atoms: C_15  and  C_16 
REMARK    7  A    between atoms: C_16  and  C_17 
ROOT
HETATM    1  N   UNL     1     -42.960  58.659 -54.552  1.00  0.00    -0.267 N 
HETATM    2  C   UNL     1     -42.188  59.801 -54.585  1.00  0.00     0.236 C 
HETATM    3  O   UNL     1     -41.021  59.827 -54.200  1.00  0.00    -0.272 OA
HETATM    4  H   UNL     1     -43.969  58.663 -54.702  1.00  0.00     0.190 HD
ENDROOT
BRANCH   1   5
HETATM    5  N   UNL     1     -42.415  57.520 -53.952  1.00  0.00    -0.262 N 
HETATM    6  C   UNL     1     -41.930  56.505 -54.749  1.00  0.00     0.288 C 
HETATM    7  O   UNL     1     -41.918  56.594 -55.977  1.00  0.00    -0.264 OA
HETATM    8  H   UNL     1     -42.532  57.439 -52.945  1.00  0.00     0.190 HD
BRANCH   6   9
HETATM    9  C   UNL     1     -41.439  55.351 -54.050  1.00  0.00     0.121 A 
HETATM   10  N   UNL     1     -41.256  55.353 -52.696  1.00  0.00    -0.272 N 
HETATM   11  N   UNL     1     -40.824  54.187 -52.198  1.00  0.00    -0.174 NA
HETATM   12  H   UNL     1     -41.427  56.126 -52.059  1.00  0.00     0.189 HD
HETATM   13  C   UNL     1     -40.696  53.383 -53.266  1.00  0.00     0.089 A 
HETATM   14  C   UNL     1     -41.071  54.081 -54.450  1.00  0.00     0.071 A 
BRANCH  13  15
HETATM   15  C   UNL     1     -40.248  51.993 -53.138  1.00  0.00    -0.006 A 
HETATM   16  C   UNL     1     -40.244  51.144 -54.255  1.00  0.00     0.014 A 
HETATM   17  C   UNL     1     -39.803  49.822 -54.148  1.00  0.00     0.001 A 
HETATM   18  C   UNL     1     -39.363  49.331 -52.922  1.00  0.00     0.000 A 
HETATM   19  C   UNL     1     -39.368  50.158 -51.801  1.00  0.00     0.001 A 
HETATM   20  C   UNL     1     -39.807  51.482 -51.907  1.00  0.00     0.014 A 
ENDBRANCH  13  15
ENDBRANCH   6   9
ENDBRANCH   1   5
BRANCH   2  21
HETATM   21  C   UNL     1     -42.916  60.993 -55.160  1.00  0.00     0.112 C 
BRANCH  21  22
HETATM   22  C   UNL     1     -43.503  60.678 -56.532  1.00  0.00     0.093 C 
BRANCH  22  23
HETATM   23  C   UNL     1     -42.445  60.151 -57.482  1.00  0.00     0.160 C 
HETATM   24  O   UNL     1     -41.320  60.642 -57.534  1.00  0.00    -0.292 OA
BRANCH  23  25
HETATM   25  C   UNL     1     -42.791  59.003 -58.376  1.00  0.00     0.013 A 
HETATM   26  C   UNL     1     -44.099  58.500 -58.338  1.00  0.00     0.054 A 
HETATM   27  C   UNL     1     -44.466  57.439 -59.165  1.00  0.00     0.103 A 
HETATM   28  C   UNL     1     -43.525  56.853 -60.015  1.00  0.00     0.102 A 
HETATM   29  O   UNL     1     -45.768  57.016 -59.083  1.00  0.00    -0.346 OA
HETATM   30  O   UNL     1     -43.807  55.789 -60.832  1.00  0.00    -0.346 OA
HETATM   31  C   UNL     1     -42.227  57.355 -60.068  1.00  0.00     0.040 A 
HETATM   32  C   UNL     1     -45.033  55.151 -60.454  1.00  0.00     0.202 C 
HETATM   33  C   UNL     1     -46.118  56.182 -60.193  1.00  0.00     0.202 C 
HETATM   34  C   UNL     1     -41.857  58.427 -59.249  1.00  0.00     0.018 A 
ENDBRANCH  23  25
ENDBRANCH  22  23
ENDBRANCH  21  22
ENDBRANCH   2  21
TORSDOF 7
ENDMDL
MODEL 3
REMARK VINA RESULT:      -8.8      1.431      2.066
REMARK  7 active torsions:
REMARK  status: ('A' for Active; 'I' for Inactive)
REMARK    1  A    between atoms: C_4  and  C_5 
REMARK    2  A    between atoms: C_9  and  C_10 
REMARK       I    between atoms: C_10  and  N_11 
REMARK    3  A    between atoms: N_11  and  N_12 
REMARK       I    between atoms: N_12  and  C_13 
REMARK    4  A    between atoms: C_13  and  C_14 
REMARK    5  A    between atoms: C_14  and  C_15 
REMARK    6  A    between atoms: C_15  and  C_16 
REMARK    7  A    between atoms: C_16  and  C_17 
ROOT
HETATM    1  N   UNL     1     -44.190  60.147 -50.633  1.00  0.00    -0.267 N 
HETATM    2  C   UNL     1     -45.439  60.206 -50.054  1.00  0.00     0.236 C 
HETATM    3  O   UNL     1     -45.931  59.265 -49.436  1.00  0.00    -0.272 OA
HETATM    4  H   UNL     1     -43.845  60.847 -51.290  1.00  0.00     0.190 HD
ENDROOT
BRANCH   1   5
HETATM    5  N   UNL     1     -43.513  58.924 -50.604  1.00  0.00    -0.262 N 
HETATM    6  C   UNL     1     -43.205  58.295 -51.791  1.00  0.00     0.288 C 
HETATM    7  O   UNL     1     -43.467  58.804 -52.881  1.00  0.00    -0.264 OA
HETATM    8  H   UNL     1     -43.402  58.489 -49.691  1.00  0.00     0.190 HD
BRANCH   6   9
HETATM    9  C   UNL     1     -42.558  57.020 -51.666  1.00  0.00     0.121 A 
HETATM   10  N   UNL     1     -42.433  56.391 -50.460  1.00  0.00    -0.272 N 
HETATM   11  N   UNL     1     -41.834  55.195 -50.522  1.00  0.00    -0.174 NA
HETATM   12  H   UNL     1     -42.754  56.732 -49.558  1.00  0.00     0.189 HD
HETATM   13  C   UNL     1     -41.532  55.029 -51.820  1.00  0.00     0.089 A 
HETATM   14  C   UNL     1     -41.969  56.158 -52.571  1.00  0.00     0.071 A 
BRANCH  13  15
HETATM   15  C   UNL     1     -40.865  53.819 -52.311  1.00  0.00    -0.006 A 
HETATM   16  C   UNL     1     -40.853  53.522 -53.682  1.00  0.00     0.014 A 
HETATM   17  C   UNL     1     -40.205  52.381 -54.163  1.00  0.00     0.001 A 
HETATM   18  C   UNL     1     -39.565  51.518 -53.277  1.00  0.00     0.000 A 
HETATM   19  C   UNL     1     -39.575  51.793 -51.911  1.00  0.00     0.001 A 
HETATM   20  C   UNL     1     -40.220  52.937 -51.430  1.00  0.00     0.014 A 
ENDBRANCH  13  15
ENDBRANCH   6   9
ENDBRANCH   1   5
BRANCH   2  21
HETATM   21  C   UNL     1     -46.116  61.544 -50.238  1.00  0.00     0.112 C 
BRANCH  21  22
HETATM   22  C   UNL     1     -45.648  62.554 -49.195  1.00  0.00     0.093 C 
BRANCH  22  23
HETATM   23  C   UNL     1     -46.417  62.407 -47.896  1.00  0.00     0.160 C 
HETATM   24  O   UNL     1     -47.645  62.379 -47.871  1.00  0.00    -0.292 OA
BRANCH  23  25
HETATM   25  C   UNL     1     -45.650  62.298 -46.617  1.00  0.00     0.013 A 
HETATM   26  C   UNL     1     -45.507  63.447 -45.826  1.00  0.00     0.054 A 
HETATM   27  C   UNL     1     -44.811  63.385 -44.620  1.00  0.00     0.103 A 
HETATM   28  C   UNL     1     -44.227  62.185 -44.207  1.00  0.00     0.102 A 
HETATM   29  O   UNL     1     -44.730  64.546 -43.894  1.00  0.00    -0.346 OA
HETATM   30  O   UNL     1     -43.503  62.059 -43.050  1.00  0.00    -0.346 OA
HETATM   31  C   UNL     1     -44.375  61.036 -44.980  1.00  0.00     0.040 A 
HETATM   32  C   UNL     1     -43.130  63.339 -42.524  1.00  0.00     0.202 C 
HETATM   33  C   UNL     1     -44.311  64.295 -42.549  1.00  0.00     0.202 C 
HETATM   34  C   UNL     1     -45.083  61.090 -46.185  1.00  0.00     0.018 A 
ENDBRANCH  23  25
ENDBRANCH  22  23
ENDBRANCH  21  22
ENDBRANCH   2  21
TORSDOF 7
ENDMDL
MODEL 4
REMARK VINA RESULT:      -8.8      5.787      7.183
REMARK  7 active torsions:
REMARK  status: ('A' for Active; 'I' for Inactive)
REMARK    1  A    between atoms: C_4  and  C_5 
REMARK    2  A    between atoms: C_9  and  C_10 
REMARK       I    between atoms: C_10  and  N_11 
REMARK    3  A    between atoms: N_11  and  N_12 
REMARK       I    between atoms: N_12  and  C_13 
REMARK    4  A    between atoms: C_13  and  C_14 
REMARK    5  A    between atoms: C_14  and  C_15 
REMARK    6  A    between atoms: C_15  and  C_16 
REMARK    7  A    between atoms: C_16  and  C_17 
ROOT
HETATM    1  N   UNL     1     -44.100  56.960 -57.330  1.00  0.00    -0.267 N 
HETATM    2  C   UNL     1     -43.603  57.965 -58.133  1.00  0.00     0.236 C 
HETATM    3  O   UNL     1     -42.441  57.983 -58.533  1.00  0.00    -0.272 OA
HETATM    4  H   UNL     1     -44.999  57.020 -56.852  1.00  0.00     0.190 HD
ENDROOT
BRANCH   1   5
HETATM    5  N   UNL     1     -43.205  55.988 -56.870  1.00  0.00    -0.262 N 
HETATM    6  C   UNL     1     -43.026  55.826 -55.513  1.00  0.00     0.288 C 
HETATM    7  O   UNL     1     -43.667  56.481 -54.691  1.00  0.00    -0.264 OA
HETATM    8  H   UNL     1     -42.624  55.538 -57.573  1.00  0.00     0.190 HD
BRANCH   6   9
HETATM    9  C   UNL     1     -42.051  54.844 -55.132  1.00  0.00     0.121 A 
HETATM   10  N   UNL     1     -40.746  54.932 -55.528  1.00  0.00    -0.272 N 
HETATM   11  N   UNL     1     -39.961  53.954 -55.059  1.00  0.00    -0.174 NA
HETATM   12  H   UNL     1     -40.334  55.654 -56.113  1.00  0.00     0.189 HD
HETATM   13  C   UNL     1     -40.780  53.173 -54.336  1.00  0.00     0.089 A 
HETATM   14  C   UNL     1     -42.104  53.699 -54.361  1.00  0.00     0.071 A 
BRANCH  13  15
HETATM   15  C   UNL     1     -40.293  51.980 -53.637  1.00  0.00    -0.006 A 
HETATM   16  C   UNL     1     -39.920  52.052 -52.286  1.00  0.00     0.014 A 
HETATM   17  C   UNL     1     -39.472  50.917 -51.605  1.00  0.00     0.001 A 
HETATM   18  C   UNL     1     -39.385  49.695 -52.268  1.00  0.00     0.000 A 
HETATM   19  C   UNL     1     -39.744  49.608 -53.611  1.00  0.00     0.001 A 
HETATM   20  C   UNL     1     -40.196  50.743 -54.293  1.00  0.00     0.014 A 
ENDBRANCH  13  15
ENDBRANCH   6   9
ENDBRANCH   1   5
BRANCH   2  21
HETATM   21  C   UNL     1     -44.635  59.011 -58.480  1.00  0.00     0.112 C 
BRANCH  21  22
HETATM   22  C   UNL     1     -45.111  59.758 -57.238  1.00  0.00     0.093 C 
BRANCH  22  23
HETATM   23  C   UNL     1     -43.970  60.485 -56.555  1.00  0.00     0.160 C 
HETATM   24  O   UNL     1     -43.381  61.418 -57.096  1.00  0.00    -0.292 OA
BRANCH  23  25
HETATM   25  C   UNL     1     -43.554  60.044 -55.188  1.00  0.00     0.013 A 
HETATM   26  C   UNL     1     -42.195  59.786 -54.956  1.00  0.00     0.054 A 
HETATM   27  C   UNL     1     -41.764  59.385 -53.693  1.00  0.00     0.103 A 
HETATM   28  C   UNL     1     -42.686  59.210 -52.658  1.00  0.00     0.102 A 
HETATM   29  O   UNL     1     -40.418  59.170 -53.540  1.00  0.00    -0.346 OA
HETATM   30  O   UNL     1     -42.338  58.790 -51.401  1.00  0.00    -0.346 OA
HETATM   31  C   UNL     1     -44.036  59.477 -52.876  1.00  0.00     0.040 A 
HETATM   32  C   UNL     1     -41.020  58.227 -51.385  1.00  0.00     0.202 C 
HETATM   33  C   UNL     1     -40.050  59.107 -52.158  1.00  0.00     0.202 C 
HETATM   34  C   UNL     1     -44.472  59.891 -54.139  1.00  0.00     0.018 A 
ENDBRANCH  23  25
ENDBRANCH  22  23
ENDBRANCH  21  22
ENDBRANCH   2  21
TORSDOF 7
ENDMDL
MODEL 5
REMARK VINA RESULT:      -8.8      4.974      6.003
REMARK  7 active torsions:
REMARK  status: ('A' for Active; 'I' for Inactive)
REMARK    1  A    between atoms: C_4  and  C_5 
REMARK    2  A    between atoms: C_9  and  C_10 
REMARK       I    between atoms: C_10  and  N_11 
REMARK    3  A    between atoms: N_11  and  N_12 
REMARK       I    between atoms: N_12  and  C_13 
REMARK    4  A    between atoms: C_13  and  C_14 
REMARK    5  A    between atoms: C_14  and  C_15 
REMARK    6  A    between atoms: C_15  and  C_16 
REMARK    7  A    between atoms: C_16  and  C_17 
ROOT
HETATM    1  N   UNL     1     -42.801  58.678 -55.031  1.00  0.00    -0.267 N 
HETATM    2  C   UNL     1     -42.198  59.841 -54.600  1.00  0.00     0.236 C 
HETATM    3  O   UNL     1     -41.018  59.893 -54.263  1.00  0.00    -0.272 OA
HETATM    4  H   UNL     1     -43.810  58.580 -55.144  1.00  0.00     0.190 HD
ENDROOT
BRANCH   1   5
HETATM    5  N   UNL     1     -42.056  57.496 -54.972  1.00  0.00    -0.262 N 
HETATM    6  C   UNL     1     -42.704  56.303 -54.728  1.00  0.00     0.288 C 
HETATM    7  O   UNL     1     -43.927  56.243 -54.607  1.00  0.00    -0.264 OA
HETATM    8  H   UNL     1     -41.044  57.597 -54.977  1.00  0.00     0.190 HD
BRANCH   6   9
HETATM    9  C   UNL     1     -41.856  55.148 -54.631  1.00  0.00     0.121 A 
HETATM   10  N   UNL     1     -40.761  54.990 -55.431  1.00  0.00    -0.272 N 
HETATM   11  N   UNL     1     -40.060  53.874 -55.191  1.00  0.00    -0.174 NA
HETATM   12  H   UNL     1     -40.437  55.626 -56.154  1.00  0.00     0.189 HD
HETATM   13  C   UNL     1     -40.727  53.256 -54.202  1.00  0.00     0.089 A 
HETATM   14  C   UNL     1     -41.865  54.026 -53.826  1.00  0.00     0.071 A 
BRANCH  13  15
HETATM   15  C   UNL     1     -40.267  51.984 -53.637  1.00  0.00    -0.006 A 
HETATM   16  C   UNL     1     -39.864  51.909 -52.295  1.00  0.00     0.014 A 
HETATM   17  C   UNL     1     -39.441  50.698 -51.741  1.00  0.00     0.001 A 
HETATM   18  C   UNL     1     -39.411  49.546 -52.523  1.00  0.00     0.000 A 
HETATM   19  C   UNL     1     -39.802  49.604 -53.859  1.00  0.00     0.001 A 
HETATM   20  C   UNL     1     -40.228  50.816 -54.414  1.00  0.00     0.014 A 
ENDBRANCH  13  15
ENDBRANCH   6   9
ENDBRANCH   1   5
BRANCH   2  21
HETATM   21  C   UNL     1     -43.129  61.030 -54.611  1.00  0.00     0.112 C 
BRANCH  21  22
HETATM   22  C   UNL     1     -44.152  60.947 -53.482  1.00  0.00     0.093 C 
BRANCH  22  23
HETATM   23  C   UNL     1     -43.498  60.579 -52.165  1.00  0.00     0.160 C 
HETATM   24  O   UNL     1     -42.939  61.418 -51.463  1.00  0.00    -0.292 OA
BRANCH  23  25
HETATM   25  C   UNL     1     -43.536  59.152 -51.718  1.00  0.00     0.013 A 
HETATM   26  C   UNL     1     -42.351  58.571 -51.244  1.00  0.00     0.054 A 
HETATM   27  C   UNL     1     -42.346  57.247 -50.807  1.00  0.00     0.103 A 
HETATM   28  C   UNL     1     -43.515  56.484 -50.865  1.00  0.00     0.102 A 
HETATM   29  O   UNL     1     -41.154  56.757 -50.340  1.00  0.00    -0.346 OA
HETATM   30  O   UNL     1     -43.576  55.170 -50.481  1.00  0.00    -0.346 OA
HETATM   31  C   UNL     1     -44.699  57.057 -51.323  1.00  0.00     0.040 A 
HETATM   32  C   UNL     1     -42.267  54.599 -50.360  1.00  0.00     0.202 C 
HETATM   33  C   UNL     1     -41.338  55.539 -49.610  1.00  0.00     0.202 C 
HETATM   34  C   UNL     1     -44.712  58.389 -51.752  1.00  0.00     0.018 A 
ENDBRANCH  23  25
ENDBRANCH  22  23
ENDBRANCH  21  22
ENDBRANCH   2  21
TORSDOF 7
ENDMDL
MODEL 6
REMARK VINA RESULT:      -8.7      4.550      7.804
REMARK  7 active torsions:
REMARK  status: ('A' for Active; 'I' for Inactive)
REMARK    1  A    between atoms: C_4  and  C_5 
REMARK    2  A    between atoms: C_9  and  C_10 
REMARK       I    between atoms: C_10  and  N_11 
REMARK    3  A    between atoms: N_11  and  N_12 
REMARK       I    between atoms: N_12  and  C_13 
REMARK    4  A    between atoms: C_13  and  C_14 
REMARK    5  A    between atoms: C_14  and  C_15 
REMARK    6  A    between atoms: C_15  and  C_16 
REMARK    7  A    between atoms: C_16  and  C_17 
ROOT
HETATM    1  N   UNL     1     -43.615  58.434 -50.850  1.00  0.00    -0.267 N 
HETATM    2  C   UNL     1     -44.993  58.464 -50.884  1.00  0.00     0.236 C 
HETATM    3  O   UNL     1     -45.682  57.448 -50.825  1.00  0.00    -0.272 OA
HETATM    4  H   UNL     1     -43.034  59.242 -51.072  1.00  0.00     0.190 HD
ENDROOT
BRANCH   1   5
HETATM    5  N   UNL     1     -42.988  57.184 -50.861  1.00  0.00    -0.262 N 
HETATM    6  C   UNL     1     -41.730  57.067 -51.412  1.00  0.00     0.288 C 
HETATM    7  O   UNL     1     -41.121  58.042 -51.852  1.00  0.00    -0.264 OA
HETATM    8  H   UNL     1     -43.557  56.389 -50.582  1.00  0.00     0.190 HD
BRANCH   6   9
HETATM    9  C   UNL     1     -41.184  55.739 -51.429  1.00  0.00     0.121 A 
HETATM   10  N   UNL     1     -40.587  55.191 -50.329  1.00  0.00    -0.272 N 
HETATM   11  N   UNL     1     -40.161  53.934 -50.503  1.00  0.00    -0.174 NA
HETATM   12  H   UNL     1     -40.457  55.633 -49.423  1.00  0.00     0.189 HD
HETATM   13  C   UNL     1     -40.470  53.640 -51.776  1.00  0.00     0.089 A 
HETATM   14  C   UNL     1     -41.112  54.752 -52.393  1.00  0.00     0.071 A 
BRANCH  13  15
HETATM   15  C   UNL     1     -40.172  52.329 -52.361  1.00  0.00    -0.006 A 
HETATM   16  C   UNL     1     -39.732  51.273 -51.549  1.00  0.00     0.014 A 
HETATM   17  C   UNL     1     -39.462  50.015 -52.093  1.00  0.00     0.001 A 
HETATM   18  C   UNL     1     -39.623  49.796 -53.459  1.00  0.00     0.000 A 
HETATM   19  C   UNL     1     -40.052  50.836 -54.281  1.00  0.00     0.001 A 
HETATM   20  C   UNL     1     -40.325  52.095 -53.737  1.00  0.00     0.014 A 
ENDBRANCH  13  15
ENDBRANCH   6   9
ENDBRANCH   1   5
BRANCH   2  21
HETATM   21  C   UNL     1     -45.555  59.863 -50.974  1.00  0.00     0.112 C 
BRANCH  21  22
HETATM   22  C   UNL     1     -45.808  60.269 -52.423  1.00  0.00     0.093 C 
BRANCH  22  23
HETATM   23  C   UNL     1     -44.528  60.258 -53.235  1.00  0.00     0.160 C 
HETATM   24  O   UNL     1     -43.551  60.931 -52.913  1.00  0.00    -0.292 OA
BRANCH  23  25
HETATM   25  C   UNL     1     -44.462  59.405 -54.461  1.00  0.00     0.013 A 
HETATM   26  C   UNL     1     -43.560  58.331 -54.477  1.00  0.00     0.054 A 
HETATM   27  C   UNL     1     -43.475  57.504 -55.596  1.00  0.00     0.103 A 
HETATM   28  C   UNL     1     -44.268  57.757 -56.718  1.00  0.00     0.102 A 
HETATM   29  O   UNL     1     -42.583  56.464 -55.528  1.00  0.00    -0.346 OA
HETATM   30  O   UNL     1     -44.216  57.005 -57.863  1.00  0.00    -0.346 OA
HETATM   31  C   UNL     1     -45.176  58.814 -56.706  1.00  0.00     0.040 A 
HETATM   32  C   UNL     1     -43.040  56.186 -57.897  1.00  0.00     0.202 C 
HETATM   33  C   UNL     1     -42.824  55.499 -56.558  1.00  0.00     0.202 C 
HETATM   34  C   UNL     1     -45.272  59.640 -55.581  1.00  0.00     0.018 A 
ENDBRANCH  23  25
ENDBRANCH  22  23
ENDBRANCH  21  22
ENDBRANCH   2  21
TORSDOF 7
ENDMDL
MODEL 7
REMARK VINA RESULT:      -8.7      6.236      8.328
REMARK  7 active torsions:
REMARK  status: ('A' for Active; 'I' for Inactive)
REMARK    1  A    between atoms: C_4  and  C_5 
REMARK    2  A    between atoms: C_9  and  C_10 
REMARK       I    between atoms: C_10  and  N_11 
REMARK    3  A    between atoms: N_11  and  N_12 
REMARK       I    between atoms: N_12  and  C_13 
REMARK    4  A    between atoms: C_13  and  C_14 
REMARK    5  A    between atoms: C_14  and  C_15 
REMARK    6  A    between atoms: C_15  and  C_16 
REMARK    7  A    between atoms: C_16  and  C_17 
ROOT
HETATM    1  N   UNL     1     -44.007  56.219 -58.207  1.00  0.00    -0.267 N 
HETATM    2  C   UNL     1     -43.668  56.625 -59.480  1.00  0.00     0.236 C 
HETATM    3  O   UNL     1     -42.674  56.207 -60.069  1.00  0.00    -0.272 OA
HETATM    4  H   UNL     1     -44.721  56.682 -57.644  1.00  0.00     0.190 HD
ENDROOT
BRANCH   1   5
HETATM    5  N   UNL     1     -43.115  55.382 -57.529  1.00  0.00    -0.262 N 
HETATM    6  C   UNL     1     -43.035  55.456 -56.154  1.00  0.00     0.288 C 
HETATM    7  O   UNL     1     -43.760  56.205 -55.502  1.00  0.00    -0.264 OA
HETATM    8  H   UNL     1     -42.465  54.851 -58.104  1.00  0.00     0.190 HD
BRANCH   6   9
HETATM    9  C   UNL     1     -42.056  54.600 -55.546  1.00  0.00     0.121 A 
HETATM   10  N   UNL     1     -40.716  54.781 -55.747  1.00  0.00    -0.272 N 
HETATM   11  N   UNL     1     -39.938  53.917 -55.081  1.00  0.00    -0.174 NA
HETATM   12  H   UNL     1     -40.277  55.493 -56.323  1.00  0.00     0.189 HD
HETATM   13  C   UNL     1     -40.796  53.119 -54.424  1.00  0.00     0.089 A 
HETATM   14  C   UNL     1     -42.137  53.515 -54.695  1.00  0.00     0.071 A 
BRANCH  13  15
HETATM   15  C   UNL     1     -40.330  52.031 -53.558  1.00  0.00    -0.006 A 
HETATM   16  C   UNL     1     -40.144  50.741 -54.078  1.00  0.00     0.014 A 
HETATM   17  C   UNL     1     -39.683  49.702 -53.266  1.00  0.00     0.001 A 
HETATM   18  C   UNL     1     -39.409  49.937 -51.921  1.00  0.00     0.000 A 
HETATM   19  C   UNL     1     -39.596  51.210 -51.387  1.00  0.00     0.001 A 
HETATM   20  C   UNL     1     -40.054  52.252 -52.200  1.00  0.00     0.014 A 
ENDBRANCH  13  15
ENDBRANCH   6   9
ENDBRANCH   1   5
BRANCH   2  21
HETATM   21  C   UNL     1     -44.652  57.607 -60.071  1.00  0.00     0.112 C 
BRANCH  21  22
HETATM   22  C   UNL     1     -44.988  58.720 -59.085  1.00  0.00     0.093 C 
BRANCH  22  23
HETATM   23  C   UNL     1     -43.814  59.658 -58.884  1.00  0.00     0.160 C 
HETATM   24  O   UNL     1     -43.159  60.087 -59.831  1.00  0.00    -0.292 OA
BRANCH  23  25
HETATM   25  C   UNL     1     -43.449  60.063 -57.491  1.00  0.00     0.013 A 
HETATM   26  C   UNL     1     -42.706  59.166 -56.710  1.00  0.00     0.054 A 
HETATM   27  C   UNL     1     -42.335  59.510 -55.411  1.00  0.00     0.103 A 
HETATM   28  C   UNL     1     -42.724  60.738 -54.871  1.00  0.00     0.102 A 
HETATM   29  O   UNL     1     -41.594  58.587 -54.717  1.00  0.00    -0.346 OA
HETATM   30  O   UNL     1     -42.421  61.129 -53.593  1.00  0.00    -0.346 OA
HETATM   31  C   UNL     1     -43.451  61.640 -55.644  1.00  0.00     0.040 A 
HETATM   32  C   UNL     1     -41.987  60.019 -52.796  1.00  0.00     0.202 C 
HETATM   33  C   UNL     1     -40.985  59.169 -53.560  1.00  0.00     0.202 C 
HETATM   34  C   UNL     1     -43.816  61.305 -56.952  1.00  0.00     0.018 A 
ENDBRANCH  23  25
ENDBRANCH  22  23
ENDBRANCH  21  22
ENDBRANCH   2  21
TORSDOF 7
ENDMDL
MODEL 8
REMARK VINA RESULT:      -8.4      6.837     10.046
REMARK  7 active torsions:
REMARK  status: ('A' for Active; 'I' for Inactive)
REMARK    1  A    between atoms: C_4  and  C_5 
REMARK    2  A    between atoms: C_9  and  C_10 
REMARK       I    between atoms: C_10  and  N_11 
REMARK    3  A    between atoms: N_11  and  N_12 
REMARK       I    between atoms: N_12  and  C_13 
REMARK    4  A    between atoms: C_13  and  C_14 
REMARK    5  A    between atoms: C_14  and  C_15 
REMARK    6  A    between atoms: C_15  and  C_16 
REMARK    7  A    between atoms: C_16  and  C_17 
ROOT
HETATM    1  N   UNL     1     -42.974  58.605 -55.017  1.00  0.00    -0.267 N 
HETATM    2  C   UNL     1     -44.332  58.809 -54.898  1.00  0.00     0.236 C 
HETATM    3  O   UNL     1     -45.125  57.895 -54.679  1.00  0.00    -0.272 OA
HETATM    4  H   UNL     1     -42.331  59.315 -55.369  1.00  0.00     0.190 HD
ENDROOT
BRANCH   1   5
HETATM    5  N   UNL     1     -42.506  57.288 -54.995  1.00  0.00    -0.262 N 
HETATM    6  C   UNL     1     -41.546  56.929 -54.073  1.00  0.00     0.288 C 
HETATM    7  O   UNL     1     -41.122  57.725 -53.235  1.00  0.00    -0.264 OA
HETATM    8  H   UNL     1     -42.803  56.688 -55.761  1.00  0.00     0.190 HD
BRANCH   6   9
HETATM    9  C   UNL     1     -41.085  55.572 -54.157  1.00  0.00     0.121 A 
HETATM   10  N   UNL     1     -40.592  55.049 -55.319  1.00  0.00    -0.272 N 
HETATM   11  N   UNL     1     -40.175  53.780 -55.219  1.00  0.00    -0.174 NA
HETATM   12  H   UNL     1     -40.506  55.525 -56.213  1.00  0.00     0.189 HD
HETATM   13  C   UNL     1     -40.416  53.440 -53.942  1.00  0.00     0.089 A 
HETATM   14  C   UNL     1     -40.992  54.540 -53.244  1.00  0.00     0.071 A 
BRANCH  13  15
HETATM   15  C   UNL     1     -40.084  52.110 -53.421  1.00  0.00    -0.006 A 
HETATM   16  C   UNL     1     -39.815  51.930 -52.056  1.00  0.00     0.014 A 
HETATM   17  C   UNL     1     -39.515  50.665 -51.545  1.00  0.00     0.001 A 
HETATM   18  C   UNL     1     -39.476  49.562 -52.394  1.00  0.00     0.000 A 
HETATM   19  C   UNL     1     -39.734  49.724 -53.754  1.00  0.00     0.001 A 
HETATM   20  C   UNL     1     -40.037  50.990 -54.266  1.00  0.00     0.014 A 
ENDBRANCH  13  15
ENDBRANCH   6   9
ENDBRANCH   1   5
BRANCH   2  21
HETATM   21  C   UNL     1     -44.730  60.259 -55.040  1.00  0.00     0.112 C 
BRANCH  21  22
HETATM   22  C   UNL     1     -44.070  60.900 -56.257  1.00  0.00     0.093 C 
BRANCH  22  23
HETATM   23  C   UNL     1     -44.898  60.696 -57.510  1.00  0.00     0.160 C 
HETATM   24  O   UNL     1     -45.806  61.464 -57.818  1.00  0.00    -0.292 OA
BRANCH  23  25
HETATM   25  C   UNL     1     -44.595  59.524 -58.387  1.00  0.00     0.013 A 
HETATM   26  C   UNL     1     -45.620  58.600 -58.640  1.00  0.00     0.054 A 
HETATM   27  C   UNL     1     -45.383  57.499 -59.463  1.00  0.00     0.103 A 
HETATM   28  C   UNL     1     -44.116  57.295 -60.016  1.00  0.00     0.102 A 
HETATM   29  O   UNL     1     -46.440  56.651 -59.677  1.00  0.00    -0.346 OA
HETATM   30  O   UNL     1     -43.804  56.220 -60.807  1.00  0.00    -0.346 OA
HETATM   31  C   UNL     1     -43.097  58.214 -59.780  1.00  0.00     0.040 A 
HETATM   32  C   UNL     1     -44.794  55.189 -60.703  1.00  0.00     0.202 C 
HETATM   33  C   UNL     1     -46.194  55.777 -60.784  1.00  0.00     0.202 C 
HETATM   34  C   UNL     1     -43.333  59.327 -58.965  1.00  0.00     0.018 A 
ENDBRANCH  23  25
ENDBRANCH  22  23
ENDBRANCH  21  22
ENDBRANCH   2  21
TORSDOF 7
ENDMDL
MODEL 9
REMARK VINA RESULT:      -8.3      8.464     11.788
REMARK  7 active torsions:
REMARK  status: ('A' for Active; 'I' for Inactive)
REMARK    1  A    between atoms: C_4  and  C_5 
REMARK    2  A    between atoms: C_9  and  C_10 
REMARK       I    between atoms: C_10  and  N_11 
REMARK    3  A    between atoms: N_11  and  N_12 
REMARK       I    between atoms: N_12  and  C_13 
REMARK    4  A    between atoms: C_13  and  C_14 
REMARK    5  A    between atoms: C_14  and  C_15 
REMARK    6  A    between atoms: C_15  and  C_16 
REMARK    7  A    between atoms: C_16  and  C_17 
ROOT
HETATM    1  N   UNL     1     -42.361  57.133 -58.176  1.00  0.00    -0.267 N 
HETATM    2  C   UNL     1     -42.901  56.745 -59.384  1.00  0.00     0.236 C 
HETATM    3  O   UNL     1     -43.241  55.588 -59.619  1.00  0.00    -0.272 OA
HETATM    4  H   UNL     1     -41.917  58.040 -58.028  1.00  0.00     0.190 HD
ENDROOT
BRANCH   1   5
HETATM    5  N   UNL     1     -42.095  56.139 -57.230  1.00  0.00    -0.262 N 
HETATM    6  C   UNL     1     -42.168  56.449 -55.888  1.00  0.00     0.288 C 
HETATM    7  O   UNL     1     -42.508  57.565 -55.498  1.00  0.00    -0.264 OA
HETATM    8  H   UNL     1     -41.723  55.262 -57.586  1.00  0.00     0.190 HD
BRANCH   6   9
HETATM    9  C   UNL     1     -41.827  55.383 -54.988  1.00  0.00     0.121 A 
HETATM   10  N   UNL     1     -42.277  55.358 -53.698  1.00  0.00    -0.272 N 
HETATM   11  N   UNL     1     -41.895  54.279 -53.003  1.00  0.00    -0.174 NA
HETATM   12  H   UNL     1     -42.865  56.052 -53.244  1.00  0.00     0.189 HD
HETATM   13  C   UNL     1     -41.145  53.567 -53.860  1.00  0.00     0.089 A 
HETATM   14  C   UNL     1     -41.076  54.231 -55.118  1.00  0.00     0.071 A 
BRANCH  13  15
HETATM   15  C   UNL     1     -40.538  52.288 -53.477  1.00  0.00    -0.006 A 
HETATM   16  C   UNL     1     -39.977  52.123 -52.202  1.00  0.00     0.014 A 
HETATM   17  C   UNL     1     -39.412  50.903 -51.821  1.00  0.00     0.001 A 
HETATM   18  C   UNL     1     -39.397  49.832 -52.711  1.00  0.00     0.000 A 
HETATM   19  C   UNL     1     -39.944  49.982 -53.984  1.00  0.00     0.001 A 
HETATM   20  C   UNL     1     -40.512  51.202 -54.366  1.00  0.00     0.014 A 
ENDBRANCH  13  15
ENDBRANCH   6   9
ENDBRANCH   1   5
BRANCH   2  21
HETATM   21  C   UNL     1     -43.047  57.887 -60.362  1.00  0.00     0.112 C 
BRANCH  21  22
HETATM   22  C   UNL     1     -43.935  58.992 -59.800  1.00  0.00     0.093 C 
BRANCH  22  23
HETATM   23  C   UNL     1     -45.242  58.439 -59.269  1.00  0.00     0.160 C 
HETATM   24  O   UNL     1     -45.433  58.272 -58.066  1.00  0.00    -0.292 OA
BRANCH  23  25
HETATM   25  C   UNL     1     -46.321  58.085 -60.242  1.00  0.00     0.013 A 
HETATM   26  C   UNL     1     -46.942  59.122 -60.952  1.00  0.00     0.054 A 
HETATM   27  C   UNL     1     -47.945  58.835 -61.878  1.00  0.00     0.103 A 
HETATM   28  C   UNL     1     -48.355  57.515 -62.082  1.00  0.00     0.102 A 
HETATM   29  O   UNL     1     -48.490  59.901 -62.547  1.00  0.00    -0.346 OA
HETATM   30  O   UNL     1     -49.353  57.162 -62.952  1.00  0.00    -0.346 OA
HETATM   31  C   UNL     1     -47.734  56.478 -61.390  1.00  0.00     0.040 A 
HETATM   32  C   UNL     1     -50.135  58.300 -63.339  1.00  0.00     0.202 C 
HETATM   33  C   UNL     1     -49.237  59.475 -63.691  1.00  0.00     0.202 C 
HETATM   34  C   UNL     1     -46.720  56.760 -60.469  1.00  0.00     0.018 A 
ENDBRANCH  23  25
ENDBRANCH  22  23
ENDBRANCH  21  22
ENDBRANCH   2  21
TORSDOF 7
ENDMDL
MODEL 10
REMARK VINA RESULT:      -8.2      5.648      9.423
REMARK  7 active torsions:
REMARK  status: ('A' for Active; 'I' for Inactive)
REMARK    1  A    between atoms: C_4  and  C_5 
REMARK    2  A    between atoms: C_9  and  C_10 
REMARK       I    between atoms: C_10  and  N_11 
REMARK    3  A    between atoms: N_11  and  N_12 
REMARK       I    between atoms: N_12  and  C_13 
REMARK    4  A    between atoms: C_13  and  C_14 
REMARK    5  A    between atoms: C_14  and  C_15 
REMARK    6  A    between atoms: C_15  and  C_16 
REMARK    7  A    between atoms: C_16  and  C_17 
ROOT
HETATM    1  N   UNL     1     -41.334  55.033 -56.061  1.00  0.00    -0.267 N 
HETATM    2  C   UNL     1     -41.504  54.086 -55.073  1.00  0.00     0.236 C 
HETATM    3  O   UNL     1     -42.585  53.545 -54.849  1.00  0.00    -0.272 OA
HETATM    4  H   UNL     1     -40.498  55.611 -56.142  1.00  0.00     0.190 HD
ENDROOT
BRANCH   1   5
HETATM    5  N   UNL     1     -42.469  55.466 -56.754  1.00  0.00    -0.262 N 
HETATM    6  C   UNL     1     -42.848  56.788 -56.665  1.00  0.00     0.288 C 
HETATM    7  O   UNL     1     -42.188  57.611 -56.032  1.00  0.00    -0.264 OA
HETATM    8  H   UNL     1     -43.041  54.743 -57.183  1.00  0.00     0.190 HD
BRANCH   6   9
HETATM    9  C   UNL     1     -44.054  57.134 -57.364  1.00  0.00     0.121 A 
HETATM   10  N   UNL     1     -45.068  57.818 -56.756  1.00  0.00    -0.272 N 
HETATM   11  N   UNL     1     -46.107  58.089 -57.557  1.00  0.00    -0.174 NA
HETATM   12  H   UNL     1     -45.095  58.139 -55.793  1.00  0.00     0.189 HD
HETATM   13  C   UNL     1     -45.778  57.546 -58.741  1.00  0.00     0.089 A 
HETATM   14  C   UNL     1     -44.495  56.933 -58.658  1.00  0.00     0.071 A 
BRANCH  13  15
HETATM   15  C   UNL     1     -46.665  57.637 -59.905  1.00  0.00    -0.006 A 
HETATM   16  C   UNL     1     -47.090  58.888 -60.378  1.00  0.00     0.014 A 
HETATM   17  C   UNL     1     -47.919  58.986 -61.497  1.00  0.00     0.001 A 
HETATM   18  C   UNL     1     -48.340  57.835 -62.157  1.00  0.00     0.000 A 
HETATM   19  C   UNL     1     -47.934  56.584 -61.697  1.00  0.00     0.001 A 
HETATM   20  C   UNL     1     -47.100  56.484 -60.578  1.00  0.00     0.014 A 
ENDBRANCH  13  15
ENDBRANCH   6   9
ENDBRANCH   1   5
BRANCH   2  21
HETATM   21  C   UNL     1     -40.230  53.773 -54.325  1.00  0.00     0.112 C 
BRANCH  21  22
HETATM   22  C   UNL     1     -40.501  52.902 -53.102  1.00  0.00     0.093 C 
BRANCH  22  23
HETATM   23  C   UNL     1     -40.524  53.724 -51.829  1.00  0.00     0.160 C 
HETATM   24  O   UNL     1     -39.595  53.698 -51.025  1.00  0.00    -0.292 OA
BRANCH  23  25
HETATM   25  C   UNL     1     -41.715  54.585 -51.550  1.00  0.00     0.013 A 
HETATM   26  C   UNL     1     -41.677  55.926 -51.959  1.00  0.00     0.054 A 
HETATM   27  C   UNL     1     -42.770  56.760 -51.729  1.00  0.00     0.103 A 
HETATM   28  C   UNL     1     -43.899  56.271 -51.065  1.00  0.00     0.102 A 
HETATM   29  O   UNL     1     -42.665  58.052 -52.174  1.00  0.00    -0.346 OA
HETATM   30  O   UNL     1     -44.996  57.040 -50.779  1.00  0.00    -0.346 OA
HETATM   31  C   UNL     1     -43.950  54.937 -50.668  1.00  0.00     0.040 A 
HETATM   32  C   UNL     1     -44.706  58.437 -50.916  1.00  0.00     0.202 C 
HETATM   33  C   UNL     1     -43.939  58.703 -52.202  1.00  0.00     0.202 C 
HETATM   34  C   UNL     1     -42.859  54.094 -50.906  1.00  0.00     0.018 A 
ENDBRANCH  23  25
ENDBRANCH  22  23
ENDBRANCH  21  22
ENDBRANCH   2  21
TORSDOF 7
ENDMDL
