MODEL 1
REMARK VINA RESULT:      -8.8      0.000      0.000
REMARK  8 active torsions:
REMARK  status: ('A' for Active; 'I' for Inactive)
REMARK    1  A    between atoms: C_6  and  N_7 
REMARK    2  A    between atoms: N_7  and  C_8 
REMARK    3  A    between atoms: C_8  and  N_9 
REMARK    4  A    between atoms: N_9  and  C_10 
REMARK    5  A    between atoms: N_9  and  C_25 
REMARK    6  A    between atoms: C_10  and  C_11 
REMARK    7  A    between atoms: C_25  and  C_26 
REMARK    8  A    between atoms: C_26  and  N_27 
ROOT
HETATM    1  N   UNL     1     -42.123  55.505 -53.656  1.00  0.00    -0.352 N 
ENDROOT
BRANCH   1   2
HETATM    2  C   UNL     1     -41.712  54.701 -52.615  1.00  0.00     0.174 C 
HETATM    3  S   UNL     1     -42.773  54.289 -51.383  1.00  0.00    -0.041 SA
BRANCH   2   4
HETATM    4  N   UNL     1     -40.555  53.996 -52.687  1.00  0.00    -0.333 N 
HETATM    5  H   UNL     1     -39.738  54.592 -52.814  1.00  0.00     0.168 HD
BRANCH   4   6
HETATM    6  C   UNL     1     -40.301  52.635 -52.955  1.00  0.00     0.035 A 
HETATM    7  C   UNL     1     -39.874  51.848 -51.880  1.00  0.00     0.053 A 
HETATM    8  C   UNL     1     -39.597  50.492 -52.065  1.00  0.00     0.036 A 
HETATM    9  C   UNL     1     -39.719  49.914 -53.324  1.00  0.00     0.024 A 
HETATM   10 CL   UNL     1     -39.111  49.535 -50.723  1.00  0.00    -0.084 Cl
HETATM   11  C   UNL     1     -40.107  50.700 -54.407  1.00  0.00     0.004 A 
HETATM   12  C   UNL     1     -40.389  52.058 -54.223  1.00  0.00     0.029 A 
ENDBRANCH   4   6
ENDBRANCH   2   4
ENDBRANCH   1   2
BRANCH   1  13
HETATM   13  C   UNL     1     -41.352  56.744 -53.909  1.00  0.00     0.169 C 
BRANCH  13  14
HETATM   14  C   UNL     1     -41.823  57.927 -53.108  1.00  0.00     0.029 A 
HETATM   15  C   UNL     1     -40.798  58.937 -52.703  1.00  0.00     0.253 A 
HETATM   16  O   UNL     1     -39.660  58.916 -53.166  1.00  0.00    -0.268 OA
HETATM   17  N   UNL     1     -41.171  59.904 -51.812  1.00  0.00    -0.322 N 
HETATM   18  C   UNL     1     -42.454  60.005 -51.263  1.00  0.00     0.048 A 
HETATM   19  H   UNL     1     -40.450  60.553 -51.523  1.00  0.00     0.169 HD
HETATM   20  C   UNL     1     -43.437  59.073 -51.658  1.00  0.00    -0.006 A 
HETATM   21  C   UNL     1     -42.734  61.010 -50.336  1.00  0.00     0.070 A 
HETATM   22  C   UNL     1     -44.727  59.149 -51.119  1.00  0.00     0.053 A 
HETATM   23  C   UNL     1     -43.063  58.009 -52.590  1.00  0.00     0.028 A 
HETATM   24  C   UNL     1     -44.979  60.149 -50.202  1.00  0.00     0.106 A 
HETATM   25  C   UNL     1     -44.011  61.049 -49.821  1.00  0.00     0.107 A 
HETATM   26  O   UNL     1     -46.163  60.363 -49.568  1.00  0.00    -0.323 OA
HETATM   27  O   UNL     1     -44.467  61.941 -48.900  1.00  0.00    -0.323 OA
HETATM   28  C   UNL     1     -45.826  61.485 -48.723  1.00  0.00     0.352 A 
ENDBRANCH  13  14
ENDBRANCH   1  13
BRANCH   1  29
HETATM   29  C   UNL     1     -42.923  54.995 -54.792  1.00  0.00     0.153 C 
BRANCH  29  30
HETATM   30  C   UNL     1     -42.485  55.468 -56.191  1.00  0.00     0.254 C 
BRANCH  30  31
HETATM   31  N   UNL     1     -43.606  56.152 -56.950  1.00  0.00    -0.066 N 
HETATM   32  H   UNL     1     -44.463  55.606 -56.777  1.00  0.00     0.280 HD
HETATM   33  C   UNL     1     -43.903  57.568 -56.473  1.00  0.00     0.261 C 
HETATM   34  C   UNL     1     -45.043  58.159 -57.314  1.00  0.00     0.195 C 
HETATM   35  O   UNL     1     -44.712  58.147 -58.708  1.00  0.00    -0.388 OA
HETATM   36  C   UNL     1     -44.506  56.814 -59.188  1.00  0.00     0.195 C 
HETATM   37  C   UNL     1     -43.345  56.143 -58.450  1.00  0.00     0.261 C 
ENDBRANCH  30  31
ENDBRANCH  29  30
ENDBRANCH   1  29
TORSDOF 8
ENDMDL
MODEL 2
REMARK VINA RESULT:      -8.7      3.352      6.706
REMARK  8 active torsions:
REMARK  status: ('A' for Active; 'I' for Inactive)
REMARK    1  A    between atoms: C_6  and  N_7 
REMARK    2  A    between atoms: N_7  and  C_8 
REMARK    3  A    between atoms: C_8  and  N_9 
REMARK    4  A    between atoms: N_9  and  C_10 
REMARK    5  A    between atoms: N_9  and  C_25 
REMARK    6  A    between atoms: C_10  and  C_11 
REMARK    7  A    between atoms: C_25  and  C_26 
REMARK    8  A    between atoms: C_26  and  N_27 
ROOT
HETATM    1  N   UNL     1     -44.484  58.996 -55.425  1.00  0.00    -0.352 N 
ENDROOT
BRANCH   1   2
HETATM    2  C   UNL     1     -44.293  60.200 -54.784  1.00  0.00     0.174 C 
HETATM    3  S   UNL     1     -45.603  61.147 -54.337  1.00  0.00    -0.041 SA
BRANCH   2   4
HETATM    4  N   UNL     1     -43.090  60.526 -54.247  1.00  0.00    -0.333 N 
HETATM    5  H   UNL     1     -42.696  61.375 -54.649  1.00  0.00     0.168 HD
BRANCH   4   6
HETATM    6  C   UNL     1     -42.153  59.768 -53.514  1.00  0.00     0.035 A 
HETATM    7  C   UNL     1     -42.039  60.052 -52.149  1.00  0.00     0.053 A 
HETATM    8  C   UNL     1     -41.131  59.348 -51.356  1.00  0.00     0.036 A 
HETATM    9  C   UNL     1     -40.312  58.374 -51.918  1.00  0.00     0.024 A 
HETATM   10 CL   UNL     1     -41.033  59.686 -49.674  1.00  0.00    -0.084 Cl
HETATM   11  C   UNL     1     -40.395  58.113 -53.284  1.00  0.00     0.004 A 
HETATM   12  C   UNL     1     -41.307  58.814 -54.080  1.00  0.00     0.029 A 
ENDBRANCH   4   6
ENDBRANCH   2   4
ENDBRANCH   1   2
BRANCH   1  13
HETATM   13  C   UNL     1     -45.308  57.976 -54.737  1.00  0.00     0.169 C 
BRANCH  13  14
HETATM   14  C   UNL     1     -44.504  56.925 -54.022  1.00  0.00     0.029 A 
HETATM   15  C   UNL     1     -44.258  57.121 -52.560  1.00  0.00     0.253 A 
HETATM   16  O   UNL     1     -44.847  57.990 -51.923  1.00  0.00    -0.268 OA
HETATM   17  N   UNL     1     -43.367  56.287 -51.945  1.00  0.00    -0.322 N 
HETATM   18  C   UNL     1     -42.679  55.260 -52.602  1.00  0.00     0.048 A 
HETATM   19  H   UNL     1     -43.187  56.463 -50.965  1.00  0.00     0.169 HD
HETATM   20  C   UNL     1     -42.924  55.048 -53.975  1.00  0.00    -0.006 A 
HETATM   21  C   UNL     1     -41.765  54.477 -51.896  1.00  0.00     0.070 A 
HETATM   22  C   UNL     1     -42.243  54.032 -54.657  1.00  0.00     0.053 A 
HETATM   23  C   UNL     1     -43.852  55.942 -54.671  1.00  0.00     0.028 A 
HETATM   24  C   UNL     1     -41.342  53.273 -53.938  1.00  0.00     0.106 A 
HETATM   25  C   UNL     1     -41.108  53.491 -52.601  1.00  0.00     0.107 A 
HETATM   26  O   UNL     1     -40.585  52.259 -54.437  1.00  0.00    -0.323 OA
HETATM   27  O   UNL     1     -40.176  52.641 -52.092  1.00  0.00    -0.323 OA
HETATM   28  C   UNL     1     -39.828  51.878 -53.268  1.00  0.00     0.352 A 
ENDBRANCH  13  14
ENDBRANCH   1  13
BRANCH   1  29
HETATM   29  C   UNL     1     -44.351  58.841 -56.892  1.00  0.00     0.153 C 
BRANCH  29  30
HETATM   30  C   UNL     1     -45.501  58.098 -57.598  1.00  0.00     0.254 C 
BRANCH  30  31
HETATM   31  N   UNL     1     -45.007  56.966 -58.478  1.00  0.00    -0.066 N 
HETATM   32  H   UNL     1     -45.213  56.086 -57.981  1.00  0.00     0.280 HD
HETATM   33  C   UNL     1     -45.719  56.869 -59.821  1.00  0.00     0.261 C 
HETATM   34  C   UNL     1     -45.134  55.700 -60.624  1.00  0.00     0.195 C 
HETATM   35  O   UNL     1     -43.721  55.857 -60.804  1.00  0.00    -0.388 OA
HETATM   36  C   UNL     1     -43.030  55.870 -59.550  1.00  0.00     0.195 C 
HETATM   37  C   UNL     1     -43.500  57.041 -58.682  1.00  0.00     0.261 C 
ENDBRANCH  30  31
ENDBRANCH  29  30
ENDBRANCH   1  29
TORSDOF 8
ENDMDL
MODEL 3
REMARK VINA RESULT:      -8.6      1.832      6.002
REMARK  8 active torsions:
REMARK  status: ('A' for Active; 'I' for Inactive)
REMARK    1  A    between atoms: C_6  and  N_7 
REMARK    2  A    between atoms: N_7  and  C_8 
REMARK    3  A    between atoms: C_8  and  N_9 
REMARK    4  A    between atoms: N_9  and  C_10 
REMARK    5  A    between atoms: N_9  and  C_25 
REMARK    6  A    between atoms: C_10  and  C_11 
REMARK    7  A    between atoms: C_25  and  C_26 
REMARK    8  A    between atoms: C_26  and  N_27 
ROOT
HETATM    1  N   UNL     1     -42.432  56.463 -52.195  1.00  0.00    -0.352 N 
ENDROOT
BRANCH   1   2
HETATM    2  C   UNL     1     -42.154  55.236 -51.634  1.00  0.00     0.174 C 
HETATM    3  S   UNL     1     -43.388  54.268 -51.040  1.00  0.00    -0.041 SA
BRANCH   2   4
HETATM    4  N   UNL     1     -40.939  54.652 -51.793  1.00  0.00    -0.333 N 
HETATM    5  H   UNL     1     -40.168  55.306 -51.669  1.00  0.00     0.168 HD
BRANCH   4   6
HETATM    6  C   UNL     1     -40.553  53.442 -52.408  1.00  0.00     0.035 A 
HETATM    7  C   UNL     1     -40.116  52.415 -51.564  1.00  0.00     0.053 A 
HETATM    8  C   UNL     1     -39.712  51.190 -52.097  1.00  0.00     0.036 A 
HETATM    9  C   UNL     1     -39.716  50.984 -53.472  1.00  0.00     0.024 A 
HETATM   10 CL   UNL     1     -39.215  49.928 -51.040  1.00  0.00    -0.084 Cl
HETATM   11  C   UNL     1     -40.114  52.015 -54.320  1.00  0.00     0.004 A 
HETATM   12  C   UNL     1     -40.523  53.243 -53.789  1.00  0.00     0.029 A 
ENDBRANCH   4   6
ENDBRANCH   2   4
ENDBRANCH   1   2
BRANCH   1  13
HETATM   13  C   UNL     1     -41.358  57.118 -52.977  1.00  0.00     0.169 C 
BRANCH  13  14
HETATM   14  C   UNL     1     -41.696  57.313 -54.430  1.00  0.00     0.029 A 
HETATM   15  C   UNL     1     -41.804  58.718 -54.929  1.00  0.00     0.253 A 
HETATM   16  O   UNL     1     -41.440  59.670 -54.245  1.00  0.00    -0.268 OA
HETATM   17  N   UNL     1     -42.304  58.912 -56.186  1.00  0.00    -0.322 N 
HETATM   18  C   UNL     1     -42.714  57.874 -57.031  1.00  0.00     0.048 A 
HETATM   19  H   UNL     1     -42.404  59.873 -56.489  1.00  0.00     0.169 HD
HETATM   20  C   UNL     1     -42.592  56.543 -56.581  1.00  0.00    -0.006 A 
HETATM   21  C   UNL     1     -43.241  58.172 -58.289  1.00  0.00     0.070 A 
HETATM   22  C   UNL     1     -43.001  55.487 -57.404  1.00  0.00     0.053 A 
HETATM   23  C   UNL     1     -42.086  56.301 -55.228  1.00  0.00     0.028 A 
HETATM   24  C   UNL     1     -43.522  55.806 -58.642  1.00  0.00     0.106 A 
HETATM   25  C   UNL     1     -43.640  57.108 -59.069  1.00  0.00     0.107 A 
HETATM   26  O   UNL     1     -43.981  54.916 -59.562  1.00  0.00    -0.323 OA
HETATM   27  O   UNL     1     -44.188  57.199 -60.311  1.00  0.00    -0.323 OA
HETATM   28  C   UNL     1     -44.427  55.806 -60.609  1.00  0.00     0.352 A 
ENDBRANCH  13  14
ENDBRANCH   1  13
BRANCH   1  29
HETATM   29  C   UNL     1     -43.812  56.918 -52.480  1.00  0.00     0.153 C 
BRANCH  29  30
HETATM   30  C   UNL     1     -44.306  58.125 -51.663  1.00  0.00     0.254 C 
BRANCH  30  31
HETATM   31  N   UNL     1     -43.975  59.449 -52.324  1.00  0.00    -0.066 N 
HETATM   32  H   UNL     1     -43.135  59.294 -52.903  1.00  0.00     0.280 HD
HETATM   33  C   UNL     1     -45.054  59.956 -53.272  1.00  0.00     0.261 C 
HETATM   34  C   UNL     1     -44.614  61.298 -53.872  1.00  0.00     0.195 C 
HETATM   35  O   UNL     1     -44.345  62.258 -52.842  1.00  0.00    -0.388 OA
HETATM   36  C   UNL     1     -43.278  61.828 -51.990  1.00  0.00     0.195 C 
HETATM   37  C   UNL     1     -43.635  60.514 -51.291  1.00  0.00     0.261 C 
ENDBRANCH  30  31
ENDBRANCH  29  30
ENDBRANCH   1  29
TORSDOF 8
ENDMDL
MODEL 4
REMARK VINA RESULT:      -8.5      3.921      6.413
REMARK  8 active torsions:
REMARK  status: ('A' for Active; 'I' for Inactive)
REMARK    1  A    between atoms: C_6  and  N_7 
REMARK    2  A    between atoms: N_7  and  C_8 
REMARK    3  A    between atoms: C_8  and  N_9 
REMARK    4  A    between atoms: N_9  and  C_10 
REMARK    5  A    between atoms: N_9  and  C_25 
REMARK    6  A    between atoms: C_10  and  C_11 
REMARK    7  A    between atoms: C_25  and  C_26 
REMARK    8  A    between atoms: C_26  and  N_27 
ROOT
HETATM    1  N   UNL     1     -43.281  57.349 -55.737  1.00  0.00    -0.352 N 
ENDROOT
BRANCH   1   2
HETATM    2  C   UNL     1     -43.530  58.690 -55.539  1.00  0.00     0.174 C 
HETATM    3  S   UNL     1     -45.084  59.302 -55.684  1.00  0.00    -0.041 SA
BRANCH   2   4
HETATM    4  N   UNL     1     -42.606  59.495 -54.956  1.00  0.00    -0.333 N 
HETATM    5  H   UNL     1     -42.106  60.074 -55.630  1.00  0.00     0.168 HD
BRANCH   4   6
HETATM    6  C   UNL     1     -41.985  59.447 -53.690  1.00  0.00     0.035 A 
HETATM    7  C   UNL     1     -42.644  60.093 -52.638  1.00  0.00     0.053 A 
HETATM    8  C   UNL     1     -42.091  60.095 -51.357  1.00  0.00     0.036 A 
HETATM    9  C   UNL     1     -40.868  59.477 -51.115  1.00  0.00     0.024 A 
HETATM   10 CL   UNL     1     -42.935  60.861 -50.070  1.00  0.00    -0.084 Cl
HETATM   11  C   UNL     1     -40.189  58.865 -52.167  1.00  0.00     0.004 A 
HETATM   12  C   UNL     1     -40.743  58.858 -53.451  1.00  0.00     0.029 A 
ENDBRANCH   4   6
ENDBRANCH   2   4
ENDBRANCH   1   2
BRANCH   1  13
HETATM   13  C   UNL     1     -44.000  56.386 -54.872  1.00  0.00     0.169 C 
BRANCH  13  14
HETATM   14  C   UNL     1     -43.110  55.657 -53.903  1.00  0.00     0.029 A 
HETATM   15  C   UNL     1     -42.636  54.294 -54.294  1.00  0.00     0.253 A 
HETATM   16  O   UNL     1     -42.795  53.863 -55.432  1.00  0.00    -0.268 OA
HETATM   17  N   UNL     1     -41.998  53.544 -53.346  1.00  0.00    -0.322 N 
HETATM   18  C   UNL     1     -41.760  53.979 -52.037  1.00  0.00     0.048 A 
HETATM   19  H   UNL     1     -41.720  52.610 -53.621  1.00  0.00     0.169 HD
HETATM   20  C   UNL     1     -42.178  55.274 -51.665  1.00  0.00    -0.006 A 
HETATM   21  C   UNL     1     -41.126  53.129 -51.129  1.00  0.00     0.070 A 
HETATM   22  C   UNL     1     -41.957  55.730 -50.360  1.00  0.00     0.053 A 
HETATM   23  C   UNL     1     -42.889  56.093 -52.648  1.00  0.00     0.028 A 
HETATM   24  C   UNL     1     -41.332  54.871 -49.479  1.00  0.00     0.106 A 
HETATM   25  C   UNL     1     -40.932  53.609 -49.852  1.00  0.00     0.107 A 
HETATM   26  O   UNL     1     -41.051  55.139 -48.176  1.00  0.00    -0.323 OA
HETATM   27  O   UNL     1     -40.349  52.927 -48.830  1.00  0.00    -0.323 OA
HETATM   28  C   UNL     1     -40.450  53.893 -47.761  1.00  0.00     0.352 A 
ENDBRANCH  13  14
ENDBRANCH   1  13
BRANCH   1  29
HETATM   29  C   UNL     1     -42.761  56.812 -57.015  1.00  0.00     0.153 C 
BRANCH  29  30
HETATM   30  C   UNL     1     -43.368  57.415 -58.296  1.00  0.00     0.254 C 
BRANCH  30  31
HETATM   31  N   UNL     1     -44.438  56.529 -58.904  1.00  0.00    -0.066 N 
HETATM   32  H   UNL     1     -44.838  55.969 -58.135  1.00  0.00     0.280 HD
HETATM   33  C   UNL     1     -45.603  57.295 -59.517  1.00  0.00     0.261 C 
HETATM   34  C   UNL     1     -46.614  56.301 -60.104  1.00  0.00     0.195 C 
HETATM   35  O   UNL     1     -45.992  55.451 -61.076  1.00  0.00    -0.388 OA
HETATM   36  C   UNL     1     -44.945  54.666 -60.494  1.00  0.00     0.195 C 
HETATM   37  C   UNL     1     -43.846  55.564 -59.921  1.00  0.00     0.261 C 
ENDBRANCH  30  31
ENDBRANCH  29  30
ENDBRANCH   1  29
TORSDOF 8
ENDMDL
MODEL 5
REMARK VINA RESULT:      -8.5      3.929      8.097
REMARK  8 active torsions:
REMARK  status: ('A' for Active; 'I' for Inactive)
REMARK    1  A    between atoms: C_6  and  N_7 
REMARK    2  A    between atoms: N_7  and  C_8 
REMARK    3  A    between atoms: C_8  and  N_9 
REMARK    4  A    between atoms: N_9  and  C_10 
REMARK    5  A    between atoms: N_9  and  C_25 
REMARK    6  A    between atoms: C_10  and  C_11 
REMARK    7  A    between atoms: C_25  and  C_26 
REMARK    8  A    between atoms: C_26  and  N_27 
ROOT
HETATM    1  N   UNL     1     -42.717  57.127 -55.568  1.00  0.00    -0.352 N 
ENDROOT
BRANCH   1   2
HETATM    2  C   UNL     1     -42.576  57.750 -56.789  1.00  0.00     0.174 C 
HETATM    3  S   UNL     1     -42.115  59.360 -56.879  1.00  0.00    -0.041 SA
BRANCH   2   4
HETATM    4  N   UNL     1     -42.526  57.033 -57.940  1.00  0.00    -0.333 N 
HETATM    5  H   UNL     1     -41.619  57.090 -58.400  1.00  0.00     0.168 HD
BRANCH   4   6
HETATM    6  C   UNL     1     -43.544  56.521 -58.772  1.00  0.00     0.035 A 
HETATM    7  C   UNL     1     -44.659  57.341 -58.983  1.00  0.00     0.053 A 
HETATM    8  C   UNL     1     -45.711  56.904 -59.790  1.00  0.00     0.036 A 
HETATM    9  C   UNL     1     -45.675  55.642 -60.373  1.00  0.00     0.024 A 
HETATM   10 CL   UNL     1     -47.053  57.941 -60.068  1.00  0.00    -0.084 Cl
HETATM   11  C   UNL     1     -44.585  54.807 -60.137  1.00  0.00     0.004 A 
HETATM   12  C   UNL     1     -43.528  55.244 -59.332  1.00  0.00     0.029 A 
ENDBRANCH   4   6
ENDBRANCH   2   4
ENDBRANCH   1   2
BRANCH   1  13
HETATM   13  C   UNL     1     -41.563  57.168 -54.641  1.00  0.00     0.169 C 
BRANCH  13  14
HETATM   14  C   UNL     1     -41.356  55.894 -53.870  1.00  0.00     0.029 A 
HETATM   15  C   UNL     1     -41.268  55.997 -52.381  1.00  0.00     0.253 A 
HETATM   16  O   UNL     1     -41.548  57.038 -51.793  1.00  0.00    -0.268 OA
HETATM   17  N   UNL     1     -40.881  54.885 -51.686  1.00  0.00    -0.322 N 
HETATM   18  C   UNL     1     -40.571  53.660 -52.286  1.00  0.00     0.048 A 
HETATM   19  H   UNL     1     -40.791  54.989 -50.683  1.00  0.00     0.169 HD
HETATM   20  C   UNL     1     -40.677  53.543 -53.687  1.00  0.00    -0.006 A 
HETATM   21  C   UNL     1     -40.157  52.587 -51.495  1.00  0.00     0.070 A 
HETATM   22  C   UNL     1     -40.366  52.329 -54.312  1.00  0.00     0.053 A 
HETATM   23  C   UNL     1     -41.062  54.723 -54.464  1.00  0.00     0.028 A 
HETATM   24  C   UNL     1     -39.956  51.284 -53.510  1.00  0.00     0.106 A 
HETATM   25  C   UNL     1     -39.852  51.410 -52.145  1.00  0.00     0.107 A 
HETATM   26  O   UNL     1     -39.601  50.045 -53.944  1.00  0.00    -0.323 OA
HETATM   27  O   UNL     1     -39.419  50.266 -51.549  1.00  0.00    -0.323 OA
HETATM   28  C   UNL     1     -39.236  49.410 -52.698  1.00  0.00     0.352 A 
ENDBRANCH  13  14
ENDBRANCH   1  13
BRANCH   1  29
HETATM   29  C   UNL     1     -44.038  56.870 -54.949  1.00  0.00     0.153 C 
BRANCH  29  30
HETATM   30  C   UNL     1     -45.008  58.065 -54.912  1.00  0.00     0.254 C 
BRANCH  30  31
HETATM   31  N   UNL     1     -45.017  58.765 -53.566  1.00  0.00    -0.066 N 
HETATM   32  H   UNL     1     -45.958  59.171 -53.445  1.00  0.00     0.280 HD
HETATM   33  C   UNL     1     -44.803  57.832 -52.381  1.00  0.00     0.261 C 
HETATM   34  C   UNL     1     -44.824  58.648 -51.082  1.00  0.00     0.195 C 
HETATM   35  O   UNL     1     -43.830  59.680 -51.107  1.00  0.00    -0.388 OA
HETATM   36  C   UNL     1     -44.065  60.609 -52.170  1.00  0.00     0.195 C 
HETATM   37  C   UNL     1     -44.011  59.907 -53.529  1.00  0.00     0.261 C 
ENDBRANCH  30  31
ENDBRANCH  29  30
ENDBRANCH   1  29
TORSDOF 8
ENDMDL
MODEL 6
REMARK VINA RESULT:      -8.4      3.774      8.050
REMARK  8 active torsions:
REMARK  status: ('A' for Active; 'I' for Inactive)
REMARK    1  A    between atoms: C_6  and  N_7 
REMARK    2  A    between atoms: N_7  and  C_8 
REMARK    3  A    between atoms: C_8  and  N_9 
REMARK    4  A    between atoms: N_9  and  C_10 
REMARK    5  A    between atoms: N_9  and  C_25 
REMARK    6  A    between atoms: C_10  and  C_11 
REMARK    7  A    between atoms: C_25  and  C_26 
REMARK    8  A    between atoms: C_26  and  N_27 
ROOT
HETATM    1  N   UNL     1     -43.916  58.316 -55.353  1.00  0.00    -0.352 N 
ENDROOT
BRANCH   1   2
HETATM    2  C   UNL     1     -44.492  58.991 -56.407  1.00  0.00     0.174 C 
HETATM    3  S   UNL     1     -45.295  60.442 -56.157  1.00  0.00    -0.041 SA
BRANCH   2   4
HETATM    4  N   UNL     1     -44.195  58.669 -57.692  1.00  0.00    -0.333 N 
HETATM    5  H   UNL     1     -44.032  59.488 -58.276  1.00  0.00     0.168 HD
BRANCH   4   6
HETATM    6  C   UNL     1     -44.394  57.486 -58.433  1.00  0.00     0.035 A 
HETATM    7  C   UNL     1     -45.564  57.409 -59.199  1.00  0.00     0.053 A 
HETATM    8  C   UNL     1     -45.836  56.269 -59.956  1.00  0.00     0.036 A 
HETATM    9  C   UNL     1     -44.963  55.186 -59.939  1.00  0.00     0.024 A 
HETATM   10 CL   UNL     1     -47.258  56.211 -60.920  1.00  0.00    -0.084 Cl
HETATM   11  C   UNL     1     -43.816  55.241 -59.149  1.00  0.00     0.004 A 
HETATM   12  C   UNL     1     -43.539  56.385 -58.393  1.00  0.00     0.029 A 
ENDBRANCH   4   6
ENDBRANCH   2   4
ENDBRANCH   1   2
BRANCH   1  13
HETATM   13  C   UNL     1     -44.716  57.251 -54.705  1.00  0.00     0.169 C 
BRANCH  13  14
HETATM   14  C   UNL     1     -43.887  56.212 -54.000  1.00  0.00     0.029 A 
HETATM   15  C   UNL     1     -43.519  56.475 -52.575  1.00  0.00     0.253 A 
HETATM   16  O   UNL     1     -44.030  57.394 -51.941  1.00  0.00    -0.268 OA
HETATM   17  N   UNL     1     -42.606  55.644 -51.988  1.00  0.00    -0.322 N 
HETATM   18  C   UNL     1     -42.002  54.564 -52.641  1.00  0.00     0.048 A 
HETATM   19  H   UNL     1     -42.343  55.865 -51.035  1.00  0.00     0.169 HD
HETATM   20  C   UNL     1     -42.361  54.290 -53.977  1.00  0.00    -0.006 A 
HETATM   21  C   UNL     1     -41.056  53.789 -51.967  1.00  0.00     0.070 A 
HETATM   22  C   UNL     1     -41.766  53.219 -54.654  1.00  0.00     0.053 A 
HETATM   23  C   UNL     1     -43.316  55.176 -54.644  1.00  0.00     0.028 A 
HETATM   24  C   UNL     1     -40.832  52.469 -53.969  1.00  0.00     0.106 A 
HETATM   25  C   UNL     1     -40.486  52.748 -52.667  1.00  0.00     0.107 A 
HETATM   26  O   UNL     1     -40.147  51.407 -54.470  1.00  0.00    -0.323 OA
HETATM   27  O   UNL     1     -39.541  51.895 -52.188  1.00  0.00    -0.323 OA
HETATM   28  C   UNL     1     -39.309  51.062 -53.345  1.00  0.00     0.352 A 
ENDBRANCH  13  14
ENDBRANCH   1  13
BRANCH   1  29
HETATM   29  C   UNL     1     -42.451  58.238 -55.158  1.00  0.00     0.153 C 
BRANCH  29  30
HETATM   30  C   UNL     1     -41.803  59.435 -54.437  1.00  0.00     0.254 C 
BRANCH  30  31
HETATM   31  N   UNL     1     -41.744  59.245 -52.933  1.00  0.00    -0.066 N 
HETATM   32  H   UNL     1     -42.354  58.444 -52.707  1.00  0.00     0.280 HD
HETATM   33  C   UNL     1     -40.360  58.883 -52.409  1.00  0.00     0.261 C 
HETATM   34  C   UNL     1     -40.421  58.724 -50.883  1.00  0.00     0.195 C 
HETATM   35  O   UNL     1     -40.908  59.919 -50.262  1.00  0.00    -0.388 OA
HETATM   36  C   UNL     1     -42.239  60.228 -50.688  1.00  0.00     0.195 C 
HETATM   37  C   UNL     1     -42.286  60.463 -52.200  1.00  0.00     0.261 C 
ENDBRANCH  30  31
ENDBRANCH  29  30
ENDBRANCH   1  29
TORSDOF 8
ENDMDL
MODEL 7
REMARK VINA RESULT:      -8.4      3.811      6.313
REMARK  8 active torsions:
REMARK  status: ('A' for Active; 'I' for Inactive)
REMARK    1  A    between atoms: C_6  and  N_7 
REMARK    2  A    between atoms: N_7  and  C_8 
REMARK    3  A    between atoms: C_8  and  N_9 
REMARK    4  A    between atoms: N_9  and  C_10 
REMARK    5  A    between atoms: N_9  and  C_25 
REMARK    6  A    between atoms: C_10  and  C_11 
REMARK    7  A    between atoms: C_25  and  C_26 
REMARK    8  A    between atoms: C_26  and  N_27 
ROOT
HETATM    1  N   UNL     1     -43.002  57.907 -55.874  1.00  0.00    -0.352 N 
ENDROOT
BRANCH   1   2
HETATM    2  C   UNL     1     -42.821  59.260 -55.680  1.00  0.00     0.174 C 
HETATM    3  S   UNL     1     -44.005  60.355 -56.140  1.00  0.00    -0.041 SA
BRANCH   2   4
HETATM    4  N   UNL     1     -41.835  59.727 -54.874  1.00  0.00    -0.333 N 
HETATM    5  H   UNL     1     -41.013  60.034 -55.393  1.00  0.00     0.168 HD
BRANCH   4   6
HETATM    6  C   UNL     1     -41.594  59.561 -53.494  1.00  0.00     0.035 A 
HETATM    7  C   UNL     1     -42.308  60.393 -52.623  1.00  0.00     0.053 A 
HETATM    8  C   UNL     1     -42.121  60.294 -51.244  1.00  0.00     0.036 A 
HETATM    9  C   UNL     1     -41.208  59.385 -50.719  1.00  0.00     0.024 A 
HETATM   10 CL   UNL     1     -43.036  61.298 -50.190  1.00  0.00    -0.084 Cl
HETATM   11  C   UNL     1     -40.467  58.581 -51.582  1.00  0.00     0.004 A 
HETATM   12  C   UNL     1     -40.654  58.676 -52.965  1.00  0.00     0.029 A 
ENDBRANCH   4   6
ENDBRANCH   2   4
ENDBRANCH   1   2
BRANCH   1  13
HETATM   13  C   UNL     1     -44.169  57.273 -55.220  1.00  0.00     0.169 C 
BRANCH  13  14
HETATM   14  C   UNL     1     -43.863  56.678 -53.872  1.00  0.00     0.029 A 
HETATM   15  C   UNL     1     -44.329  57.429 -52.666  1.00  0.00     0.253 A 
HETATM   16  O   UNL     1     -45.098  58.381 -52.762  1.00  0.00    -0.268 OA
HETATM   17  N   UNL     1     -43.886  57.010 -51.443  1.00  0.00    -0.322 N 
HETATM   18  C   UNL     1     -43.030  55.919 -51.256  1.00  0.00     0.048 A 
HETATM   19  H   UNL     1     -44.184  57.556 -50.644  1.00  0.00     0.169 HD
HETATM   20  C   UNL     1     -42.605  55.186 -52.384  1.00  0.00    -0.006 A 
HETATM   21  C   UNL     1     -42.607  55.583 -49.968  1.00  0.00     0.070 A 
HETATM   22  C   UNL     1     -41.743  54.095 -52.224  1.00  0.00     0.053 A 
HETATM   23  C   UNL     1     -43.039  55.626 -53.712  1.00  0.00     0.028 A 
HETATM   24  C   UNL     1     -41.336  53.785 -50.942  1.00  0.00     0.106 A 
HETATM   25  C   UNL     1     -41.753  54.508 -49.850  1.00  0.00     0.107 A 
HETATM   26  O   UNL     1     -40.494  52.773 -50.602  1.00  0.00    -0.323 OA
HETATM   27  O   UNL     1     -41.225  54.041 -48.686  1.00  0.00    -0.323 OA
HETATM   28  C   UNL     1     -40.405  52.956 -49.172  1.00  0.00     0.352 A 
ENDBRANCH  13  14
ENDBRANCH   1  13
BRANCH   1  29
HETATM   29  C   UNL     1     -42.433  57.182 -57.032  1.00  0.00     0.153 C 
BRANCH  29  30
HETATM   30  C   UNL     1     -43.031  55.792 -57.317  1.00  0.00     0.254 C 
BRANCH  30  31
HETATM   31  N   UNL     1     -43.994  55.803 -58.489  1.00  0.00    -0.066 N 
HETATM   32  H   UNL     1     -44.939  55.948 -58.100  1.00  0.00     0.280 HD
HETATM   33  C   UNL     1     -43.762  56.943 -59.471  1.00  0.00     0.261 C 
HETATM   34  C   UNL     1     -44.784  56.848 -60.612  1.00  0.00     0.195 C 
HETATM   35  O   UNL     1     -44.701  55.578 -61.271  1.00  0.00    -0.388 OA
HETATM   36  C   UNL     1     -44.994  54.501 -60.375  1.00  0.00     0.195 C 
HETATM   37  C   UNL     1     -43.993  54.467 -59.218  1.00  0.00     0.261 C 
ENDBRANCH  30  31
ENDBRANCH  29  30
ENDBRANCH   1  29
TORSDOF 8
ENDMDL
MODEL 8
REMARK VINA RESULT:      -8.2      3.404      7.657
REMARK  8 active torsions:
REMARK  status: ('A' for Active; 'I' for Inactive)
REMARK    1  A    between atoms: C_6  and  N_7 
REMARK    2  A    between atoms: N_7  and  C_8 
REMARK    3  A    between atoms: C_8  and  N_9 
REMARK    4  A    between atoms: N_9  and  C_10 
REMARK    5  A    between atoms: N_9  and  C_25 
REMARK    6  A    between atoms: C_10  and  C_11 
REMARK    7  A    between atoms: C_25  and  C_26 
REMARK    8  A    between atoms: C_26  and  N_27 
ROOT
HETATM    1  N   UNL     1     -42.505  57.728 -51.784  1.00  0.00    -0.352 N 
ENDROOT
BRANCH   1   2
HETATM    2  C   UNL     1     -43.542  56.834 -51.941  1.00  0.00     0.174 C 
HETATM    3  S   UNL     1     -44.323  56.188 -50.604  1.00  0.00    -0.041 SA
BRANCH   2   4
HETATM    4  N   UNL     1     -44.145  56.663 -53.144  1.00  0.00    -0.333 N 
HETATM    5  H   UNL     1     -45.159  56.755 -53.094  1.00  0.00     0.168 HD
BRANCH   4   6
HETATM    6  C   UNL     1     -43.697  56.068 -54.343  1.00  0.00     0.035 A 
HETATM    7  C   UNL     1     -43.346  56.934 -55.385  1.00  0.00     0.053 A 
HETATM    8  C   UNL     1     -42.898  56.422 -56.604  1.00  0.00     0.036 A 
HETATM    9  C   UNL     1     -42.819  55.048 -56.806  1.00  0.00     0.024 A 
HETATM   10 CL   UNL     1     -42.435  57.503 -57.858  1.00  0.00    -0.084 Cl
HETATM   11  C   UNL     1     -43.203  54.181 -55.785  1.00  0.00     0.004 A 
HETATM   12  C   UNL     1     -43.649  54.691 -54.561  1.00  0.00     0.029 A 
ENDBRANCH   4   6
ENDBRANCH   2   4
ENDBRANCH   1   2
BRANCH   1  13
HETATM   13  C   UNL     1     -41.257  57.227 -51.164  1.00  0.00     0.169 C 
BRANCH  13  14
HETATM   14  C   UNL     1     -41.099  55.733 -51.237  1.00  0.00     0.029 A 
HETATM   15  C   UNL     1     -40.908  54.997 -49.949  1.00  0.00     0.253 A 
HETATM   16  O   UNL     1     -41.071  55.550 -48.865  1.00  0.00    -0.268 OA
HETATM   17  N   UNL     1     -40.563  53.676 -50.014  1.00  0.00    -0.322 N 
HETATM   18  C   UNL     1     -40.385  52.975 -51.212  1.00  0.00     0.048 A 
HETATM   19  H   UNL     1     -40.402  53.208 -49.131  1.00  0.00     0.169 HD
HETATM   20  C   UNL     1     -40.589  53.652 -52.433  1.00  0.00    -0.006 A 
HETATM   21  C   UNL     1     -40.003  51.632 -51.178  1.00  0.00     0.070 A 
HETATM   22  C   UNL     1     -40.410  52.974 -53.645  1.00  0.00     0.053 A 
HETATM   23  C   UNL     1     -40.932  55.074 -52.399  1.00  0.00     0.028 A 
HETATM   24  C   UNL     1     -40.030  51.649 -53.586  1.00  0.00     0.106 A 
HETATM   25  C   UNL     1     -39.830  51.000 -52.390  1.00  0.00     0.107 A 
HETATM   26  O   UNL     1     -39.798  50.843 -54.657  1.00  0.00    -0.323 OA
HETATM   27  O   UNL     1     -39.448  49.705 -52.560  1.00  0.00    -0.323 OA
HETATM   28  C   UNL     1     -39.403  49.618 -54.001  1.00  0.00     0.352 A 
ENDBRANCH  13  14
ENDBRANCH   1  13
BRANCH   1  29
HETATM   29  C   UNL     1     -42.376  58.953 -52.605  1.00  0.00     0.153 C 
BRANCH  29  30
HETATM   30  C   UNL     1     -42.426  60.287 -51.836  1.00  0.00     0.254 C 
BRANCH  30  31
HETATM   31  N   UNL     1     -43.842  60.803 -51.662  1.00  0.00    -0.066 N 
HETATM   32  H   UNL     1     -43.811  61.823 -51.813  1.00  0.00     0.280 HD
HETATM   33  C   UNL     1     -44.832  60.256 -52.682  1.00  0.00     0.261 C 
HETATM   34  C   UNL     1     -46.224  60.839 -52.404  1.00  0.00     0.195 C 
HETATM   35  O   UNL     1     -46.647  60.540 -51.068  1.00  0.00    -0.388 OA
HETATM   36  C   UNL     1     -45.768  61.116 -50.097  1.00  0.00     0.195 C 
HETATM   37  C   UNL     1     -44.350  60.559 -50.248  1.00  0.00     0.261 C 
ENDBRANCH  30  31
ENDBRANCH  29  30
ENDBRANCH   1  29
TORSDOF 8
ENDMDL
MODEL 9
REMARK VINA RESULT:      -8.2      3.741      8.146
REMARK  8 active torsions:
REMARK  status: ('A' for Active; 'I' for Inactive)
REMARK    1  A    between atoms: C_6  and  N_7 
REMARK    2  A    between atoms: N_7  and  C_8 
REMARK    3  A    between atoms: C_8  and  N_9 
REMARK    4  A    between atoms: N_9  and  C_10 
REMARK    5  A    between atoms: N_9  and  C_25 
REMARK    6  A    between atoms: C_10  and  C_11 
REMARK    7  A    between atoms: C_25  and  C_26 
REMARK    8  A    between atoms: C_26  and  N_27 
ROOT
HETATM    1  N   UNL     1     -43.031  57.811 -53.420  1.00  0.00    -0.352 N 
ENDROOT
BRANCH   1   2
HETATM    2  C   UNL     1     -43.475  57.912 -54.721  1.00  0.00     0.174 C 
HETATM    3  S   UNL     1     -45.068  58.317 -55.052  1.00  0.00    -0.041 SA
BRANCH   2   4
HETATM    4  N   UNL     1     -42.600  57.969 -55.757  1.00  0.00    -0.333 N 
HETATM    5  H   UNL     1     -41.958  58.756 -55.688  1.00  0.00     0.168 HD
BRANCH   4   6
HETATM    6  C   UNL     1     -42.624  57.378 -57.038  1.00  0.00     0.035 A 
HETATM    7  C   UNL     1     -42.277  58.197 -58.118  1.00  0.00     0.053 A 
HETATM    8  C   UNL     1     -42.281  57.688 -59.418  1.00  0.00     0.036 A 
HETATM    9  C   UNL     1     -42.653  56.369 -59.657  1.00  0.00     0.024 A 
HETATM   10 CL   UNL     1     -41.814  58.700 -60.727  1.00  0.00    -0.084 Cl
HETATM   11  C   UNL     1     -43.036  55.560 -58.590  1.00  0.00     0.004 A 
HETATM   12  C   UNL     1     -43.029  56.066 -57.286  1.00  0.00     0.029 A 
ENDBRANCH   4   6
ENDBRANCH   2   4
ENDBRANCH   1   2
BRANCH   1  13
HETATM   13  C   UNL     1     -41.602  57.484 -53.208  1.00  0.00     0.169 C 
BRANCH  13  14
HETATM   14  C   UNL     1     -41.358  56.053 -52.813  1.00  0.00     0.029 A 
HETATM   15  C   UNL     1     -41.107  55.772 -51.366  1.00  0.00     0.253 A 
HETATM   16  O   UNL     1     -41.286  56.629 -50.506  1.00  0.00    -0.268 OA
HETATM   17  N   UNL     1     -40.687  54.517 -51.024  1.00  0.00    -0.322 N 
HETATM   18  C   UNL     1     -40.485  53.484 -51.946  1.00  0.00     0.048 A 
HETATM   19  H   UNL     1     -40.485  54.360 -50.044  1.00  0.00     0.169 HD
HETATM   20  C   UNL     1     -40.745  53.730 -53.310  1.00  0.00    -0.006 A 
HETATM   21  C   UNL     1     -40.025  52.242 -51.505  1.00  0.00     0.070 A 
HETATM   22  C   UNL     1     -40.545  52.714 -54.253  1.00  0.00     0.053 A 
HETATM   23  C   UNL     1     -41.170  55.071 -53.714  1.00  0.00     0.028 A 
HETATM   24  C   UNL     1     -40.087  51.497 -53.794  1.00  0.00     0.106 A 
HETATM   25  C   UNL     1     -39.833  51.269 -52.462  1.00  0.00     0.107 A 
HETATM   26  O   UNL     1     -39.824  50.407 -54.564  1.00  0.00    -0.323 OA
HETATM   27  O   UNL     1     -39.378  50.008 -52.229  1.00  0.00    -0.323 OA
HETATM   28  C   UNL     1     -39.349  49.473 -53.570  1.00  0.00     0.352 A 
ENDBRANCH  13  14
ENDBRANCH   1  13
BRANCH   1  29
HETATM   29  C   UNL     1     -43.723  58.466 -52.287  1.00  0.00     0.153 C 
BRANCH  29  30
HETATM   30  C   UNL     1     -43.030  59.711 -51.703  1.00  0.00     0.254 C 
BRANCH  30  31
HETATM   31  N   UNL     1     -44.012  60.818 -51.367  1.00  0.00    -0.066 N 
HETATM   32  H   UNL     1     -43.457  61.617 -51.023  1.00  0.00     0.280 HD
HETATM   33  C   UNL     1     -44.798  61.333 -52.565  1.00  0.00     0.261 C 
HETATM   34  C   UNL     1     -45.759  62.438 -52.105  1.00  0.00     0.195 C 
HETATM   35  O   UNL     1     -46.640  61.959 -51.082  1.00  0.00    -0.388 OA
HETATM   36  C   UNL     1     -45.917  61.544 -49.918  1.00  0.00     0.195 C 
HETATM   37  C   UNL     1     -44.959  60.397 -50.253  1.00  0.00     0.261 C 
ENDBRANCH  30  31
ENDBRANCH  29  30
ENDBRANCH   1  29
TORSDOF 8
ENDMDL
MODEL 10
REMARK VINA RESULT:      -7.9      2.327      3.022
REMARK  8 active torsions:
REMARK  status: ('A' for Active; 'I' for Inactive)
REMARK    1  A    between atoms: C_6  and  N_7 
REMARK    2  A    between atoms: N_7  and  C_8 
REMARK    3  A    between atoms: C_8  and  N_9 
REMARK    4  A    between atoms: N_9  and  C_10 
REMARK    5  A    between atoms: N_9  and  C_25 
REMARK    6  A    between atoms: C_10  and  C_11 
REMARK    7  A    between atoms: C_25  and  C_26 
REMARK    8  A    between atoms: C_26  and  N_27 
ROOT
HETATM    1  N   UNL     1     -42.495  56.316 -54.388  1.00  0.00    -0.352 N 
ENDROOT
BRANCH   1   2
HETATM    2  C   UNL     1     -41.694  56.588 -53.301  1.00  0.00     0.174 C 
HETATM    3  S   UNL     1     -40.954  58.085 -53.137  1.00  0.00    -0.041 SA
BRANCH   2   4
HETATM    4  N   UNL     1     -41.701  55.785 -52.206  1.00  0.00    -0.333 N 
HETATM    5  H   UNL     1     -42.014  56.268 -51.365  1.00  0.00     0.168 HD
BRANCH   4   6
HETATM    6  C   UNL     1     -41.060  54.557 -51.940  1.00  0.00     0.035 A 
HETATM    7  C   UNL     1     -40.852  53.704 -53.030  1.00  0.00     0.053 A 
HETATM    8  C   UNL     1     -40.229  52.468 -52.848  1.00  0.00     0.036 A 
HETATM    9  C   UNL     1     -39.830  52.060 -51.579  1.00  0.00     0.024 A 
HETATM   10 CL   UNL     1     -39.947  51.452 -54.206  1.00  0.00    -0.084 Cl
HETATM   11  C   UNL     1     -40.070  52.888 -50.485  1.00  0.00     0.004 A 
HETATM   12  C   UNL     1     -40.690  54.129 -50.665  1.00  0.00     0.029 A 
ENDBRANCH   4   6
ENDBRANCH   2   4
ENDBRANCH   1   2
BRANCH   1  13
HETATM   13  C   UNL     1     -43.940  56.111 -54.140  1.00  0.00     0.169 C 
BRANCH  13  14
HETATM   14  C   UNL     1     -44.657  57.345 -53.667  1.00  0.00     0.029 A 
HETATM   15  C   UNL     1     -45.103  58.324 -54.706  1.00  0.00     0.253 A 
HETATM   16  O   UNL     1     -45.068  58.048 -55.902  1.00  0.00    -0.268 OA
HETATM   17  N   UNL     1     -45.572  59.536 -54.282  1.00  0.00    -0.322 N 
HETATM   18  C   UNL     1     -45.664  59.909 -52.936  1.00  0.00     0.048 A 
HETATM   19  H   UNL     1     -45.831  60.196 -55.004  1.00  0.00     0.169 HD
HETATM   20  C   UNL     1     -45.272  58.983 -51.946  1.00  0.00    -0.006 A 
HETATM   21  C   UNL     1     -46.129  61.181 -52.601  1.00  0.00     0.070 A 
HETATM   22  C   UNL     1     -45.349  59.335 -50.593  1.00  0.00     0.053 A 
HETATM   23  C   UNL     1     -44.739  57.686 -52.367  1.00  0.00     0.028 A 
HETATM   24  C   UNL     1     -45.808  60.599 -50.286  1.00  0.00     0.106 A 
HETATM   25  C   UNL     1     -46.183  61.495 -51.260  1.00  0.00     0.107 A 
HETATM   26  O   UNL     1     -45.934  61.114 -49.033  1.00  0.00    -0.323 OA
HETATM   27  O   UNL     1     -46.592  62.684 -50.741  1.00  0.00    -0.323 OA
HETATM   28  C   UNL     1     -46.407  62.446 -49.328  1.00  0.00     0.352 A 
ENDBRANCH  13  14
ENDBRANCH   1  13
BRANCH   1  29
HETATM   29  C   UNL     1     -42.120  56.692 -55.771  1.00  0.00     0.153 C 
BRANCH  29  30
HETATM   30  C   UNL     1     -42.663  55.780 -56.887  1.00  0.00     0.254 C 
BRANCH  30  31
HETATM   31  N   UNL     1     -42.647  56.454 -58.246  1.00  0.00    -0.066 N 
HETATM   32  H   UNL     1     -41.912  55.992 -58.802  1.00  0.00     0.280 HD
HETATM   33  C   UNL     1     -43.940  56.288 -59.035  1.00  0.00     0.261 C 
HETATM   34  C   UNL     1     -43.810  57.014 -60.381  1.00  0.00     0.195 C 
HETATM   35  O   UNL     1     -43.501  58.400 -60.190  1.00  0.00    -0.388 OA
HETATM   36  C   UNL     1     -42.249  58.571 -59.518  1.00  0.00     0.195 C 
HETATM   37  C   UNL     1     -42.284  57.928 -58.129  1.00  0.00     0.261 C 
ENDBRANCH  30  31
ENDBRANCH  29  30
ENDBRANCH   1  29
TORSDOF 8
ENDMDL
