MODEL 1
REMARK VINA RESULT:      -8.2      0.000      0.000
REMARK  6 active torsions:
REMARK  status: ('A' for Active; 'I' for Inactive)
REMARK    1  A    between atoms: O_1  and  C_2 
REMARK    2  A    between atoms: C_2  and  CA_3 
REMARK    3  A    between atoms: CA_3  and  N_4 
REMARK    4  A    between atoms: CA_3  and  C_20 
REMARK       I    between atoms: N_4  and  C_5 
REMARK       I    between atoms: C_5  and  N_7 
REMARK    5  A    between atoms: N_7  and  C_8 
REMARK    6  A    between atoms: C_11  and  C_14 
ROOT
HETATM    1  N   UNL     1     -42.350  56.683 -57.574  1.00  0.00    -0.332 N 
HETATM    2  C   UNL     1     -42.366  55.734 -56.610  1.00  0.00     0.322 C 
HETATM    3  O   UNL     1     -43.001  54.702 -56.527  1.00  0.00    -0.247 OA
HETATM    4  N   UNL     1     -41.513  56.101 -55.565  1.00  0.00    -0.289 N 
HETATM    5  H   UNL     1     -41.729  57.475 -57.528  1.00  0.00     0.165 HD
HETATM    6  H   UNL     1     -41.051  56.988 -55.496  1.00  0.00     0.172 HD
ENDROOT
BRANCH   1   7
HETATM    7  CA  UNL     1     -43.139  56.554 -58.797  1.00  0.00     0.143 C 
BRANCH   7   8
HETATM    8  C   UNL     1     -42.449  57.210 -60.019  1.00  0.00     0.194 C 
BRANCH   8   9
HETATM    9  O   UNL     1     -41.273  56.490 -60.385  1.00  0.00    -0.398 OA
HETATM   10  H   UNL     1     -41.563  55.616 -60.707  1.00  0.00     0.209 HD
ENDBRANCH   8   9
ENDBRANCH   7   8
BRANCH   7  11
HETATM   11  C   UNL     1     -44.520  57.128 -58.528  1.00  0.00    -0.033 A 
HETATM   12  C   UNL     1     -44.702  58.040 -57.478  1.00  0.00     0.009 A 
HETATM   13  C   UNL     1     -45.950  58.623 -57.247  1.00  0.00     0.001 A 
HETATM   14  C   UNL     1     -47.032  58.307 -58.065  1.00  0.00     0.000 A 
HETATM   15  C   UNL     1     -46.868  57.410 -59.116  1.00  0.00     0.001 A 
HETATM   16  C   UNL     1     -45.620  56.827 -59.351  1.00  0.00     0.009 A 
ENDBRANCH   7  11
ENDBRANCH   1   7
BRANCH   4  17
HETATM   17  C   UNL     1     -41.278  55.285 -54.551  1.00  0.00     0.153 A 
HETATM   18  N   UNL     1     -40.977  53.988 -54.628  1.00  0.00    -0.335 N 
HETATM   19  H   UNL     1     -40.971  53.550 -55.553  1.00  0.00     0.168 HD
HETATM   20  C   UNL     1     -40.677  53.394 -53.413  1.00  0.00     0.051 A 
HETATM   21  C   UNL     1     -40.838  54.282 -52.369  1.00  0.00     0.083 A 
HETATM   22  S   UNL     1     -41.297  55.850 -52.921  1.00  0.00    -0.063 SA
BRANCH  20  23
HETATM   23  C   UNL     1     -40.234  52.005 -53.276  1.00  0.00    -0.006 A 
HETATM   24  C   UNL     1     -40.253  51.118 -54.360  1.00  0.00     0.033 A 
HETATM   25  C   UNL     1     -39.853  49.805 -54.161  1.00  0.00     0.117 A 
HETATM   26  N   UNL     1     -39.445  49.324 -52.973  1.00  0.00    -0.273 NA
HETATM   27  C   UNL     1     -39.428  50.182 -51.938  1.00  0.00     0.117 A 
HETATM   28  C   UNL     1     -39.805  51.514 -52.037  1.00  0.00     0.033 A 
ENDBRANCH  20  23
ENDBRANCH   4  17
TORSDOF 6
ENDMDL
MODEL 2
REMARK VINA RESULT:      -7.8      2.231      8.473
REMARK  6 active torsions:
REMARK  status: ('A' for Active; 'I' for Inactive)
REMARK    1  A    between atoms: O_1  and  C_2 
REMARK    2  A    between atoms: C_2  and  CA_3 
REMARK    3  A    between atoms: CA_3  and  N_4 
REMARK    4  A    between atoms: CA_3  and  C_20 
REMARK       I    between atoms: N_4  and  C_5 
REMARK       I    between atoms: C_5  and  N_7 
REMARK    5  A    between atoms: N_7  and  C_8 
REMARK    6  A    between atoms: C_11  and  C_14 
ROOT
HETATM    1  N   UNL     1     -40.886  54.599 -53.754  1.00  0.00    -0.332 N 
HETATM    2  C   UNL     1     -41.896  55.029 -54.545  1.00  0.00     0.322 C 
HETATM    3  O   UNL     1     -43.084  54.782 -54.513  1.00  0.00    -0.247 OA
HETATM    4  N   UNL     1     -41.393  55.852 -55.557  1.00  0.00    -0.289 N 
HETATM    5  H   UNL     1     -39.941  54.928 -53.875  1.00  0.00     0.165 HD
HETATM    6  H   UNL     1     -40.416  56.004 -55.731  1.00  0.00     0.172 HD
ENDROOT
BRANCH   1   7
HETATM    7  CA  UNL     1     -41.123  53.733 -52.602  1.00  0.00     0.143 C 
BRANCH   7   8
HETATM    8  C   UNL     1     -40.597  54.347 -51.280  1.00  0.00     0.194 C 
BRANCH   8   9
HETATM    9  O   UNL     1     -41.286  55.557 -50.973  1.00  0.00    -0.398 OA
HETATM   10  H   UNL     1     -42.211  55.438 -51.260  1.00  0.00     0.209 HD
ENDBRANCH   8   9
ENDBRANCH   7   8
BRANCH   7  11
HETATM   11  C   UNL     1     -40.510  52.375 -52.901  1.00  0.00    -0.033 A 
HETATM   12  C   UNL     1     -39.897  51.647 -51.870  1.00  0.00     0.009 A 
HETATM   13  C   UNL     1     -39.377  50.373 -52.108  1.00  0.00     0.001 A 
HETATM   14  C   UNL     1     -39.468  49.806 -53.377  1.00  0.00     0.000 A 
HETATM   15  C   UNL     1     -40.080  50.510 -54.409  1.00  0.00     0.001 A 
HETATM   16  C   UNL     1     -40.604  51.784 -54.174  1.00  0.00     0.009 A 
ENDBRANCH   7  11
ENDBRANCH   1   7
BRANCH   4  17
HETATM   17  C   UNL     1     -42.198  56.479 -56.397  1.00  0.00     0.153 A 
HETATM   18  N   UNL     1     -42.831  55.943 -57.442  1.00  0.00    -0.335 N 
HETATM   19  H   UNL     1     -42.648  54.961 -57.661  1.00  0.00     0.168 HD
HETATM   20  C   UNL     1     -43.697  56.805 -58.095  1.00  0.00     0.051 A 
HETATM   21  C   UNL     1     -43.646  58.072 -57.548  1.00  0.00     0.083 A 
HETATM   22  S   UNL     1     -42.574  58.151 -56.201  1.00  0.00    -0.063 SA
BRANCH  20  23
HETATM   23  C   UNL     1     -44.557  56.402 -59.208  1.00  0.00    -0.006 A 
HETATM   24  C   UNL     1     -45.844  56.933 -59.372  1.00  0.00     0.033 A 
HETATM   25  C   UNL     1     -46.626  56.486 -60.427  1.00  0.00     0.117 A 
HETATM   26  N   UNL     1     -46.219  55.560 -61.313  1.00  0.00    -0.273 NA
HETATM   27  C   UNL     1     -44.983  55.057 -61.150  1.00  0.00     0.117 A 
HETATM   28  C   UNL     1     -44.125  55.441 -60.130  1.00  0.00     0.033 A 
ENDBRANCH  20  23
ENDBRANCH   4  17
TORSDOF 6
ENDMDL
MODEL 3
REMARK VINA RESULT:      -7.8      1.516      2.110
REMARK  6 active torsions:
REMARK  status: ('A' for Active; 'I' for Inactive)
REMARK    1  A    between atoms: O_1  and  C_2 
REMARK    2  A    between atoms: C_2  and  CA_3 
REMARK    3  A    between atoms: CA_3  and  N_4 
REMARK    4  A    between atoms: CA_3  and  C_20 
REMARK       I    between atoms: N_4  and  C_5 
REMARK       I    between atoms: C_5  and  N_7 
REMARK    5  A    between atoms: N_7  and  C_8 
REMARK    6  A    between atoms: C_11  and  C_14 
ROOT
HETATM    1  N   UNL     1     -42.183  56.918 -57.432  1.00  0.00    -0.332 N 
HETATM    2  C   UNL     1     -42.306  55.983 -56.462  1.00  0.00     0.322 C 
HETATM    3  O   UNL     1     -43.119  55.092 -56.322  1.00  0.00    -0.247 OA
HETATM    4  N   UNL     1     -41.323  56.174 -55.486  1.00  0.00    -0.289 N 
HETATM    5  H   UNL     1     -41.420  57.577 -57.439  1.00  0.00     0.165 HD
HETATM    6  H   UNL     1     -40.695  56.957 -55.460  1.00  0.00     0.172 HD
ENDROOT
BRANCH   1   7
HETATM    7  CA  UNL     1     -43.072  56.951 -58.590  1.00  0.00     0.143 C 
BRANCH   7   8
HETATM    8  C   UNL     1     -42.684  55.904 -59.665  1.00  0.00     0.194 C 
BRANCH   8   9
HETATM    9  O   UNL     1     -41.481  56.283 -60.330  1.00  0.00    -0.398 OA
HETATM   10  H   UNL     1     -41.734  56.606 -61.215  1.00  0.00     0.209 HD
ENDBRANCH   8   9
ENDBRANCH   7   8
BRANCH   7  11
HETATM   11  C   UNL     1     -43.087  58.369 -59.133  1.00  0.00    -0.033 A 
HETATM   12  C   UNL     1     -44.051  58.741 -60.082  1.00  0.00     0.009 A 
HETATM   13  C   UNL     1     -44.119  60.054 -60.553  1.00  0.00     0.001 A 
HETATM   14  C   UNL     1     -43.228  61.014 -60.080  1.00  0.00     0.000 A 
HETATM   15  C   UNL     1     -42.271  60.666 -59.133  1.00  0.00     0.001 A 
HETATM   16  C   UNL     1     -42.202  59.354 -58.657  1.00  0.00     0.009 A 
ENDBRANCH   7  11
ENDBRANCH   1   7
BRANCH   4  17
HETATM   17  C   UNL     1     -41.171  55.322 -54.487  1.00  0.00     0.153 A 
HETATM   18  N   UNL     1     -40.860  54.029 -54.585  1.00  0.00    -0.335 N 
HETATM   19  H   UNL     1     -40.774  53.626 -55.521  1.00  0.00     0.168 HD
HETATM   20  C   UNL     1     -40.662  53.391 -53.371  1.00  0.00     0.051 A 
HETATM   21  C   UNL     1     -40.914  54.241 -52.314  1.00  0.00     0.083 A 
HETATM   22  S   UNL     1     -41.332  55.827 -52.845  1.00  0.00    -0.063 SA
BRANCH  20  23
HETATM   23  C   UNL     1     -40.226  51.999 -53.248  1.00  0.00    -0.006 A 
HETATM   24  C   UNL     1     -40.238  51.125 -54.344  1.00  0.00     0.033 A 
HETATM   25  C   UNL     1     -39.847  49.808 -54.157  1.00  0.00     0.117 A 
HETATM   26  N   UNL     1     -39.453  49.310 -52.972  1.00  0.00    -0.273 NA
HETATM   27  C   UNL     1     -39.442  50.155 -51.925  1.00  0.00     0.117 A 
HETATM   28  C   UNL     1     -39.813  51.490 -52.011  1.00  0.00     0.033 A 
ENDBRANCH  20  23
ENDBRANCH   4  17
TORSDOF 6
ENDMDL
MODEL 4
REMARK VINA RESULT:      -7.6      2.679      8.648
REMARK  6 active torsions:
REMARK  status: ('A' for Active; 'I' for Inactive)
REMARK    1  A    between atoms: O_1  and  C_2 
REMARK    2  A    between atoms: C_2  and  CA_3 
REMARK    3  A    between atoms: CA_3  and  N_4 
REMARK    4  A    between atoms: CA_3  and  C_20 
REMARK       I    between atoms: N_4  and  C_5 
REMARK       I    between atoms: C_5  and  N_7 
REMARK    5  A    between atoms: N_7  and  C_8 
REMARK    6  A    between atoms: C_11  and  C_14 
ROOT
HETATM    1  N   UNL     1     -40.475  54.400 -52.215  1.00  0.00    -0.332 N 
HETATM    2  C   UNL     1     -41.389  54.873 -53.093  1.00  0.00     0.322 C 
HETATM    3  O   UNL     1     -42.578  54.647 -53.194  1.00  0.00    -0.247 OA
HETATM    4  N   UNL     1     -40.770  55.719 -54.018  1.00  0.00    -0.289 N 
HETATM    5  H   UNL     1     -39.518  54.715 -52.225  1.00  0.00     0.165 HD
HETATM    6  H   UNL     1     -39.779  55.859 -54.083  1.00  0.00     0.172 HD
ENDROOT
BRANCH   1   7
HETATM    7  CA  UNL     1     -40.845  53.501 -51.125  1.00  0.00     0.143 C 
BRANCH   7   8
HETATM    8  C   UNL     1     -40.286  53.967 -49.757  1.00  0.00     0.194 C 
BRANCH   8   9
HETATM    9  O   UNL     1     -41.342  54.181 -48.823  1.00  0.00    -0.398 OA
HETATM   10  H   UNL     1     -41.031  53.848 -47.960  1.00  0.00     0.209 HD
ENDBRANCH   8   9
ENDBRANCH   7   8
BRANCH   7  11
HETATM   11  C   UNL     1     -40.390  52.099 -51.495  1.00  0.00    -0.033 A 
HETATM   12  C   UNL     1     -40.065  51.803 -52.828  1.00  0.00     0.009 A 
HETATM   13  C   UNL     1     -39.592  50.538 -53.182  1.00  0.00     0.001 A 
HETATM   14  C   UNL     1     -39.431  49.554 -52.210  1.00  0.00     0.000 A 
HETATM   15  C   UNL     1     -39.741  49.832 -50.883  1.00  0.00     0.001 A 
HETATM   16  C   UNL     1     -40.212  51.098 -50.524  1.00  0.00     0.009 A 
ENDBRANCH   7  11
ENDBRANCH   1   7
BRANCH   4  17
HETATM   17  C   UNL     1     -41.474  56.387 -54.916  1.00  0.00     0.153 A 
HETATM   18  N   UNL     1     -41.798  55.972 -56.142  1.00  0.00    -0.335 N 
HETATM   19  H   UNL     1     -41.434  55.069 -56.455  1.00  0.00     0.168 HD
HETATM   20  C   UNL     1     -42.632  56.832 -56.838  1.00  0.00     0.051 A 
HETATM   21  C   UNL     1     -42.878  57.982 -56.117  1.00  0.00     0.083 A 
HETATM   22  S   UNL     1     -42.122  57.948 -54.569  1.00  0.00    -0.063 SA
BRANCH  20  23
HETATM   23  C   UNL     1     -43.183  56.532 -58.161  1.00  0.00    -0.006 A 
HETATM   24  C   UNL     1     -43.533  55.227 -58.534  1.00  0.00     0.033 A 
HETATM   25  C   UNL     1     -44.018  55.001 -59.813  1.00  0.00     0.117 A 
HETATM   26  N   UNL     1     -44.172  55.970 -60.732  1.00  0.00    -0.273 NA
HETATM   27  C   UNL     1     -43.835  57.220 -60.367  1.00  0.00     0.117 A 
HETATM   28  C   UNL     1     -43.345  57.548 -59.111  1.00  0.00     0.033 A 
ENDBRANCH  20  23
ENDBRANCH   4  17
TORSDOF 6
ENDMDL
MODEL 5
REMARK VINA RESULT:      -7.4      4.671      8.961
REMARK  6 active torsions:
REMARK  status: ('A' for Active; 'I' for Inactive)
REMARK    1  A    between atoms: O_1  and  C_2 
REMARK    2  A    between atoms: C_2  and  CA_3 
REMARK    3  A    between atoms: CA_3  and  N_4 
REMARK    4  A    between atoms: CA_3  and  C_20 
REMARK       I    between atoms: N_4  and  C_5 
REMARK       I    between atoms: C_5  and  N_7 
REMARK    5  A    between atoms: N_7  and  C_8 
REMARK    6  A    between atoms: C_11  and  C_14 
ROOT
HETATM    1  N   UNL     1     -40.941  54.648 -52.634  1.00  0.00    -0.332 N 
HETATM    2  C   UNL     1     -41.060  55.996 -52.645  1.00  0.00     0.322 C 
HETATM    3  O   UNL     1     -40.909  56.795 -53.547  1.00  0.00    -0.247 OA
HETATM    4  N   UNL     1     -41.372  56.458 -51.363  1.00  0.00    -0.289 N 
HETATM    5  H   UNL     1     -41.144  54.104 -51.810  1.00  0.00     0.165 HD
HETATM    6  H   UNL     1     -41.391  55.882 -50.542  1.00  0.00     0.172 HD
ENDROOT
BRANCH   1   7
HETATM    7  CA  UNL     1     -40.633  53.891 -53.844  1.00  0.00     0.143 C 
BRANCH   7   8
HETATM    8  C   UNL     1     -41.768  53.966 -54.896  1.00  0.00     0.194 C 
BRANCH   8   9
HETATM    9  O   UNL     1     -41.431  54.874 -55.943  1.00  0.00    -0.398 OA
HETATM   10  H   UNL     1     -41.060  54.342 -56.673  1.00  0.00     0.209 HD
ENDBRANCH   8   9
ENDBRANCH   7   8
BRANCH   7  11
HETATM   11  C   UNL     1     -40.307  52.464 -53.437  1.00  0.00    -0.033 A 
HETATM   12  C   UNL     1     -40.405  51.431 -54.381  1.00  0.00     0.009 A 
HETATM   13  C   UNL     1     -40.058  50.121 -54.045  1.00  0.00     0.001 A 
HETATM   14  C   UNL     1     -39.602  49.826 -52.762  1.00  0.00     0.000 A 
HETATM   15  C   UNL     1     -39.490  50.838 -51.815  1.00  0.00     0.001 A 
HETATM   16  C   UNL     1     -39.835  52.151 -52.149  1.00  0.00     0.009 A 
ENDBRANCH   7  11
ENDBRANCH   1   7
BRANCH   4  17
HETATM   17  C   UNL     1     -41.642  57.732 -51.139  1.00  0.00     0.153 A 
HETATM   18  N   UNL     1     -42.845  58.309 -51.178  1.00  0.00    -0.335 N 
HETATM   19  H   UNL     1     -43.644  57.735 -51.456  1.00  0.00     0.168 HD
HETATM   20  C   UNL     1     -42.855  59.642 -50.801  1.00  0.00     0.051 A 
HETATM   21  C   UNL     1     -41.579  60.098 -50.540  1.00  0.00     0.083 A 
HETATM   22  S   UNL     1     -40.401  58.851 -50.708  1.00  0.00    -0.063 SA
BRANCH  20  23
HETATM   23  C   UNL     1     -44.076  60.443 -50.685  1.00  0.00    -0.006 A 
HETATM   24  C   UNL     1     -44.402  61.118 -49.501  1.00  0.00     0.033 A 
HETATM   25  C   UNL     1     -45.589  61.832 -49.440  1.00  0.00     0.117 A 
HETATM   26  N   UNL     1     -46.460  61.915 -50.461  1.00  0.00    -0.273 NA
HETATM   27  C   UNL     1     -46.139  61.267 -51.595  1.00  0.00     0.117 A 
HETATM   28  C   UNL     1     -44.974  60.529 -51.755  1.00  0.00     0.033 A 
ENDBRANCH  20  23
ENDBRANCH   4  17
TORSDOF 6
ENDMDL
MODEL 6
REMARK VINA RESULT:      -7.3      2.520      8.870
REMARK  6 active torsions:
REMARK  status: ('A' for Active; 'I' for Inactive)
REMARK    1  A    between atoms: O_1  and  C_2 
REMARK    2  A    between atoms: C_2  and  CA_3 
REMARK    3  A    between atoms: CA_3  and  N_4 
REMARK    4  A    between atoms: CA_3  and  C_20 
REMARK       I    between atoms: N_4  and  C_5 
REMARK       I    between atoms: C_5  and  N_7 
REMARK    5  A    between atoms: N_7  and  C_8 
REMARK    6  A    between atoms: C_11  and  C_14 
ROOT
HETATM    1  N   UNL     1     -41.664  55.100 -54.913  1.00  0.00    -0.332 N 
HETATM    2  C   UNL     1     -42.543  55.901 -55.559  1.00  0.00     0.322 C 
HETATM    3  O   UNL     1     -43.561  56.434 -55.168  1.00  0.00    -0.247 OA
HETATM    4  N   UNL     1     -42.157  56.052 -56.895  1.00  0.00    -0.289 N 
HETATM    5  H   UNL     1     -40.826  54.762 -55.360  1.00  0.00     0.165 HD
HETATM    6  H   UNL     1     -41.406  55.549 -57.328  1.00  0.00     0.172 HD
ENDROOT
BRANCH   1   7
HETATM    7  CA  UNL     1     -41.810  54.780 -53.495  1.00  0.00     0.143 C 
BRANCH   7   8
HETATM    8  C   UNL     1     -41.453  55.975 -52.577  1.00  0.00     0.194 C 
BRANCH   8   9
HETATM    9  O   UNL     1     -42.626  56.692 -52.197  1.00  0.00    -0.398 OA
HETATM   10  H   UNL     1     -42.878  57.250 -52.957  1.00  0.00     0.209 HD
ENDBRANCH   8   9
ENDBRANCH   7   8
BRANCH   7  11
HETATM   11  C   UNL     1     -40.972  53.547 -53.203  1.00  0.00    -0.033 A 
HETATM   12  C   UNL     1     -40.561  53.281 -51.887  1.00  0.00     0.009 A 
HETATM   13  C   UNL     1     -39.838  52.126 -51.585  1.00  0.00     0.001 A 
HETATM   14  C   UNL     1     -39.521  51.216 -52.592  1.00  0.00     0.000 A 
HETATM   15  C   UNL     1     -39.928  51.459 -53.900  1.00  0.00     0.001 A 
HETATM   16  C   UNL     1     -40.653  52.613 -54.205  1.00  0.00     0.009 A 
ENDBRANCH   7  11
ENDBRANCH   1   7
BRANCH   4  17
HETATM   17  C   UNL     1     -42.801  56.874 -57.707  1.00  0.00     0.153 A 
HETATM   18  N   UNL     1     -43.871  56.582 -58.449  1.00  0.00    -0.335 N 
HETATM   19  H   UNL     1     -44.213  55.619 -58.440  1.00  0.00     0.168 HD
HETATM   20  C   UNL     1     -44.408  57.662 -59.131  1.00  0.00     0.051 A 
HETATM   21  C   UNL     1     -43.650  58.799 -58.944  1.00  0.00     0.083 A 
HETATM   22  S   UNL     1     -42.323  58.522 -57.878  1.00  0.00    -0.063 SA
BRANCH  20  23
HETATM   23  C   UNL     1     -45.632  57.587 -59.931  1.00  0.00    -0.006 A 
HETATM   24  C   UNL     1     -46.321  58.741 -60.329  1.00  0.00     0.033 A 
HETATM   25  C   UNL     1     -47.494  58.606 -61.056  1.00  0.00     0.117 A 
HETATM   26  N   UNL     1     -48.020  57.419 -61.405  1.00  0.00    -0.273 NA
HETATM   27  C   UNL     1     -47.352  56.316 -61.021  1.00  0.00     0.117 A 
HETATM   28  C   UNL     1     -46.170  56.347 -60.295  1.00  0.00     0.033 A 
ENDBRANCH  20  23
ENDBRANCH   4  17
TORSDOF 6
ENDMDL
MODEL 7
REMARK VINA RESULT:      -7.2      2.912      8.993
REMARK  6 active torsions:
REMARK  status: ('A' for Active; 'I' for Inactive)
REMARK    1  A    between atoms: O_1  and  C_2 
REMARK    2  A    between atoms: C_2  and  CA_3 
REMARK    3  A    between atoms: CA_3  and  N_4 
REMARK    4  A    between atoms: CA_3  and  C_20 
REMARK       I    between atoms: N_4  and  C_5 
REMARK       I    between atoms: C_5  and  N_7 
REMARK    5  A    between atoms: N_7  and  C_8 
REMARK    6  A    between atoms: C_11  and  C_14 
ROOT
HETATM    1  N   UNL     1     -41.845  54.715 -55.126  1.00  0.00    -0.332 N 
HETATM    2  C   UNL     1     -42.419  55.744 -55.790  1.00  0.00     0.322 C 
HETATM    3  O   UNL     1     -43.018  56.716 -55.376  1.00  0.00    -0.247 OA
HETATM    4  N   UNL     1     -42.287  55.555 -57.169  1.00  0.00    -0.289 N 
HETATM    5  H   UNL     1     -41.336  53.990 -55.608  1.00  0.00     0.165 HD
HETATM    6  H   UNL     1     -41.921  54.724 -57.595  1.00  0.00     0.172 HD
ENDROOT
BRANCH   1   7
HETATM    7  CA  UNL     1     -41.820  54.656 -53.666  1.00  0.00     0.143 C 
BRANCH   7   8
HETATM    8  C   UNL     1     -41.260  55.953 -53.030  1.00  0.00     0.194 C 
BRANCH   8   9
HETATM    9  O   UNL     1     -42.304  56.716 -52.429  1.00  0.00    -0.398 OA
HETATM   10  H   UNL     1     -43.148  56.316 -52.711  1.00  0.00     0.209 HD
ENDBRANCH   8   9
ENDBRANCH   7   8
BRANCH   7  11
HETATM   11  C   UNL     1     -41.038  53.420 -53.258  1.00  0.00    -0.033 A 
HETATM   12  C   UNL     1     -40.679  52.472 -54.229  1.00  0.00     0.009 A 
HETATM   13  C   UNL     1     -39.913  51.356 -53.887  1.00  0.00     0.001 A 
HETATM   14  C   UNL     1     -39.488  51.174 -52.572  1.00  0.00     0.000 A 
HETATM   15  C   UNL     1     -39.828  52.108 -51.599  1.00  0.00     0.001 A 
HETATM   16  C   UNL     1     -40.593  53.227 -51.938  1.00  0.00     0.009 A 
ENDBRANCH   7  11
ENDBRANCH   1   7
BRANCH   4  17
HETATM   17  C   UNL     1     -42.678  56.480 -58.030  1.00  0.00     0.153 A 
HETATM   18  N   UNL     1     -42.113  57.673 -58.226  1.00  0.00    -0.335 N 
HETATM   19  H   UNL     1     -41.328  57.936 -57.626  1.00  0.00     0.168 HD
HETATM   20  C   UNL     1     -42.664  58.405 -59.265  1.00  0.00     0.051 A 
HETATM   21  C   UNL     1     -43.745  57.751 -59.820  1.00  0.00     0.083 A 
HETATM   22  S   UNL     1     -44.018  56.216 -59.084  1.00  0.00    -0.063 SA
BRANCH  20  23
HETATM   23  C   UNL     1     -42.142  59.698 -59.711  1.00  0.00    -0.006 A 
HETATM   24  C   UNL     1     -42.130  60.058 -61.066  1.00  0.00     0.033 A 
HETATM   25  C   UNL     1     -41.591  61.282 -61.431  1.00  0.00     0.117 A 
HETATM   26  N   UNL     1     -41.070  62.157 -60.552  1.00  0.00    -0.273 NA
HETATM   27  C   UNL     1     -41.087  61.806 -59.254  1.00  0.00     0.117 A 
HETATM   28  C   UNL     1     -41.606  60.606 -58.789  1.00  0.00     0.033 A 
ENDBRANCH  20  23
ENDBRANCH   4  17
TORSDOF 6
ENDMDL
MODEL 8
REMARK VINA RESULT:      -7.1      2.482      3.284
REMARK  6 active torsions:
REMARK  status: ('A' for Active; 'I' for Inactive)
REMARK    1  A    between atoms: O_1  and  C_2 
REMARK    2  A    between atoms: C_2  and  CA_3 
REMARK    3  A    between atoms: CA_3  and  N_4 
REMARK    4  A    between atoms: CA_3  and  C_20 
REMARK       I    between atoms: N_4  and  C_5 
REMARK       I    between atoms: C_5  and  N_7 
REMARK    5  A    between atoms: N_7  and  C_8 
REMARK    6  A    between atoms: C_11  and  C_14 
ROOT
HETATM    1  N   UNL     1     -42.212  58.397 -57.687  1.00  0.00    -0.332 N 
HETATM    2  C   UNL     1     -42.523  57.282 -56.987  1.00  0.00     0.322 C 
HETATM    3  O   UNL     1     -43.066  56.255 -57.338  1.00  0.00    -0.247 OA
HETATM    4  N   UNL     1     -42.159  57.443 -55.646  1.00  0.00    -0.289 N 
HETATM    5  H   UNL     1     -41.713  59.165 -57.267  1.00  0.00     0.165 HD
HETATM    6  H   UNL     1     -41.822  58.301 -55.250  1.00  0.00     0.172 HD
ENDROOT
BRANCH   1   7
HETATM    7  CA  UNL     1     -42.468  58.504 -59.121  1.00  0.00     0.143 C 
BRANCH   7   8
HETATM    8  C   UNL     1     -41.805  57.360 -59.929  1.00  0.00     0.194 C 
BRANCH   8   9
HETATM    9  O   UNL     1     -42.786  56.444 -60.411  1.00  0.00    -0.398 OA
HETATM   10  H   UNL     1     -43.651  56.889 -60.340  1.00  0.00     0.209 HD
ENDBRANCH   8   9
ENDBRANCH   7   8
BRANCH   7  11
HETATM   11  C   UNL     1     -42.016  59.880 -59.579  1.00  0.00    -0.033 A 
HETATM   12  C   UNL     1     -41.610  60.830 -58.630  1.00  0.00     0.009 A 
HETATM   13  C   UNL     1     -41.138  62.082 -59.029  1.00  0.00     0.001 A 
HETATM   14  C   UNL     1     -41.060  62.400 -60.384  1.00  0.00     0.000 A 
HETATM   15  C   UNL     1     -41.451  61.468 -61.339  1.00  0.00     0.001 A 
HETATM   16  C   UNL     1     -41.921  60.213 -60.942  1.00  0.00     0.009 A 
ENDBRANCH   7  11
ENDBRANCH   1   7
BRANCH   4  17
HETATM   17  C   UNL     1     -42.267  56.450 -54.781  1.00  0.00     0.153 A 
HETATM   18  N   UNL     1     -41.495  55.363 -54.717  1.00  0.00    -0.335 N 
HETATM   19  H   UNL     1     -40.772  55.246 -55.431  1.00  0.00     0.168 HD
HETATM   20  C   UNL     1     -41.764  54.529 -53.645  1.00  0.00     0.051 A 
HETATM   21  C   UNL     1     -42.845  54.983 -52.917  1.00  0.00     0.083 A 
HETATM   22  S   UNL     1     -43.465  56.466 -53.541  1.00  0.00    -0.063 SA
BRANCH  20  23
HETATM   23  C   UNL     1     -40.982  53.332 -53.332  1.00  0.00    -0.006 A 
HETATM   24  C   UNL     1     -40.723  52.349 -54.297  1.00  0.00     0.033 A 
HETATM   25  C   UNL     1     -40.006  51.221 -53.932  1.00  0.00     0.117 A 
HETATM   26  N   UNL     1     -39.537  51.007 -52.690  1.00  0.00    -0.273 NA
HETATM   27  C   UNL     1     -39.787  51.955 -51.769  1.00  0.00     0.117 A 
HETATM   28  C   UNL     1     -40.492  53.120 -52.037  1.00  0.00     0.033 A 
ENDBRANCH  20  23
ENDBRANCH   4  17
TORSDOF 6
ENDMDL
MODEL 9
REMARK VINA RESULT:      -7.0      1.471      2.187
REMARK  6 active torsions:
REMARK  status: ('A' for Active; 'I' for Inactive)
REMARK    1  A    between atoms: O_1  and  C_2 
REMARK    2  A    between atoms: C_2  and  CA_3 
REMARK    3  A    between atoms: CA_3  and  N_4 
REMARK    4  A    between atoms: CA_3  and  C_20 
REMARK       I    between atoms: N_4  and  C_5 
REMARK       I    between atoms: C_5  and  N_7 
REMARK    5  A    between atoms: N_7  and  C_8 
REMARK    6  A    between atoms: C_11  and  C_14 
ROOT
HETATM    1  N   UNL     1     -42.243  57.335 -57.301  1.00  0.00    -0.332 N 
HETATM    2  C   UNL     1     -42.397  56.613 -56.168  1.00  0.00     0.322 C 
HETATM    3  O   UNL     1     -43.389  56.384 -55.506  1.00  0.00    -0.247 OA
HETATM    4  N   UNL     1     -41.159  56.121 -55.742  1.00  0.00    -0.289 N 
HETATM    5  H   UNL     1     -41.353  57.401 -57.771  1.00  0.00     0.165 HD
HETATM    6  H   UNL     1     -40.279  56.366 -56.157  1.00  0.00     0.172 HD
ENDROOT
BRANCH   1   7
HETATM    7  CA  UNL     1     -43.376  57.957 -57.980  1.00  0.00     0.143 C 
BRANCH   7   8
HETATM    8  C   UNL     1     -44.329  58.684 -56.998  1.00  0.00     0.194 C 
BRANCH   8   9
HETATM    9  O   UNL     1     -44.155  60.098 -57.074  1.00  0.00    -0.398 OA
HETATM   10  H   UNL     1     -44.765  60.423 -57.763  1.00  0.00     0.209 HD
ENDBRANCH   8   9
ENDBRANCH   7   8
BRANCH   7  11
HETATM   11  C   UNL     1     -44.083  56.887 -58.795  1.00  0.00    -0.033 A 
HETATM   12  C   UNL     1     -45.417  57.078 -59.186  1.00  0.00     0.009 A 
HETATM   13  C   UNL     1     -46.069  56.135 -59.983  1.00  0.00     0.001 A 
HETATM   14  C   UNL     1     -45.395  54.990 -60.405  1.00  0.00     0.000 A 
HETATM   15  C   UNL     1     -44.070  54.789 -60.034  1.00  0.00     0.001 A 
HETATM   16  C   UNL     1     -43.414  55.732 -59.239  1.00  0.00     0.009 A 
ENDBRANCH   7  11
ENDBRANCH   1   7
BRANCH   4  17
HETATM   17  C   UNL     1     -41.064  55.298 -54.712  1.00  0.00     0.153 A 
HETATM   18  N   UNL     1     -40.764  53.999 -54.757  1.00  0.00    -0.335 N 
HETATM   19  H   UNL     1     -40.641  53.567 -55.676  1.00  0.00     0.168 HD
HETATM   20  C   UNL     1     -40.630  53.397 -53.517  1.00  0.00     0.051 A 
HETATM   21  C   UNL     1     -40.919  54.281 -52.498  1.00  0.00     0.083 A 
HETATM   22  S   UNL     1     -41.292  55.854 -53.095  1.00  0.00    -0.063 SA
BRANCH  20  23
HETATM   23  C   UNL     1     -40.218  52.004 -53.332  1.00  0.00    -0.006 A 
HETATM   24  C   UNL     1     -40.271  51.076 -54.381  1.00  0.00     0.033 A 
HETATM   25  C   UNL     1     -39.900  49.763 -54.137  1.00  0.00     0.117 A 
HETATM   26  N   UNL     1     -39.489  49.318 -52.936  1.00  0.00    -0.273 NA
HETATM   27  C   UNL     1     -39.437  50.214 -51.935  1.00  0.00     0.117 A 
HETATM   28  C   UNL     1     -39.784  51.550 -52.081  1.00  0.00     0.033 A 
ENDBRANCH  20  23
ENDBRANCH   4  17
TORSDOF 6
ENDMDL
MODEL 10
REMARK VINA RESULT:      -7.0      2.573      8.979
REMARK  6 active torsions:
REMARK  status: ('A' for Active; 'I' for Inactive)
REMARK    1  A    between atoms: O_1  and  C_2 
REMARK    2  A    between atoms: C_2  and  CA_3 
REMARK    3  A    between atoms: CA_3  and  N_4 
REMARK    4  A    between atoms: CA_3  and  C_20 
REMARK       I    between atoms: N_4  and  C_5 
REMARK       I    between atoms: C_5  and  N_7 
REMARK    5  A    between atoms: N_7  and  C_8 
REMARK    6  A    between atoms: C_11  and  C_14 
ROOT
HETATM    1  N   UNL     1     -41.834  54.917 -55.328  1.00  0.00    -0.332 N 
HETATM    2  C   UNL     1     -42.658  55.749 -56.006  1.00  0.00     0.322 C 
HETATM    3  O   UNL     1     -43.382  56.638 -55.609  1.00  0.00    -0.247 OA
HETATM    4  N   UNL     1     -42.635  55.437 -57.368  1.00  0.00    -0.289 N 
HETATM    5  H   UNL     1     -41.250  54.245 -55.802  1.00  0.00     0.165 HD
HETATM    6  H   UNL     1     -42.165  54.642 -57.760  1.00  0.00     0.172 HD
ENDROOT
BRANCH   1   7
HETATM    7  CA  UNL     1     -41.648  55.023 -53.883  1.00  0.00     0.143 C 
BRANCH   7   8
HETATM    8  C   UNL     1     -40.962  56.350 -53.470  1.00  0.00     0.194 C 
BRANCH   8   9
HETATM    9  O   UNL     1     -41.920  57.282 -52.973  1.00  0.00    -0.398 OA
HETATM   10  H   UNL     1     -41.432  58.094 -52.737  1.00  0.00     0.209 HD
ENDBRANCH   8   9
ENDBRANCH   7   8
BRANCH   7  11
HETATM   11  C   UNL     1     -40.880  53.798 -53.415  1.00  0.00    -0.033 A 
HETATM   12  C   UNL     1     -40.540  53.666 -52.061  1.00  0.00     0.009 A 
HETATM   13  C   UNL     1     -39.884  52.523 -51.598  1.00  0.00     0.001 A 
HETATM   14  C   UNL     1     -39.564  51.494 -52.481  1.00  0.00     0.000 A 
HETATM   15  C   UNL     1     -39.901  51.605 -53.827  1.00  0.00     0.001 A 
HETATM   16  C   UNL     1     -40.559  52.746 -54.292  1.00  0.00     0.009 A 
ENDBRANCH   7  11
ENDBRANCH   1   7
BRANCH   4  17
HETATM   17  C   UNL     1     -43.280  56.177 -58.253  1.00  0.00     0.153 A 
HETATM   18  N   UNL     1     -44.448  56.797 -58.072  1.00  0.00    -0.335 N 
HETATM   19  H   UNL     1     -44.933  56.656 -57.183  1.00  0.00     0.168 HD
HETATM   20  C   UNL     1     -44.847  57.593 -59.133  1.00  0.00     0.051 A 
HETATM   21  C   UNL     1     -43.964  57.499 -60.189  1.00  0.00     0.083 A 
HETATM   22  S   UNL     1     -42.626  56.475 -59.822  1.00  0.00    -0.063 SA
BRANCH  20  23
HETATM   23  C   UNL     1     -46.048  58.430 -59.112  1.00  0.00    -0.006 A 
HETATM   24  C   UNL     1     -46.450  59.168 -60.234  1.00  0.00     0.033 A 
HETATM   25  C   UNL     1     -47.576  59.971 -60.142  1.00  0.00     0.117 A 
HETATM   26  N   UNL     1     -48.317  60.088 -59.025  1.00  0.00    -0.273 NA
HETATM   27  C   UNL     1     -47.927  59.375 -57.954  1.00  0.00     0.117 A 
HETATM   28  C   UNL     1     -46.817  58.542 -57.947  1.00  0.00     0.033 A 
ENDBRANCH  20  23
ENDBRANCH   4  17
TORSDOF 6
ENDMDL
