MODEL 1
REMARK VINA RESULT:      -8.8      0.000      0.000
REMARK  7 active torsions:
REMARK  status: ('A' for Active; 'I' for Inactive)
REMARK    1  A    between atoms: C_2  and  O_3 
REMARK    2  A    between atoms: O_3  and  C_4 
REMARK    3  A    between atoms: C_5  and  C_6 
REMARK    4  A    between atoms: C_9  and  C_10 
REMARK       I    between atoms: C_10  and  N_11 
REMARK    5  A    between atoms: N_11  and  C_12 
REMARK    6  A    between atoms: C_25  and  C_26 
REMARK       I    between atoms: C_26  and  N_27 
REMARK    7  A    between atoms: N_27  and  C_28 
ROOT
HETATM    1  C   UNL     1     -42.136  57.633 -55.071  1.00  0.00     0.188 C 
HETATM    2  N   UNL     1     -42.527  58.099 -56.409  1.00  0.00    -0.239 N 
HETATM    3  C   UNL     1     -43.246  57.349 -57.309  1.00  0.00     0.142 C 
HETATM    4  C   UNL     1     -43.462  58.173 -58.397  1.00  0.00     0.097 C 
HETATM    5  C   UNL     1     -42.698  59.333 -58.100  1.00  0.00     0.160 C 
HETATM    6  N   UNL     1     -42.114  59.289 -56.901  1.00  0.00    -0.181 NA
HETATM    7  N   UNL     1     -43.556  56.062 -56.994  1.00  0.00    -0.343 N 
HETATM    8  C   UNL     1     -43.035  55.429 -55.856  1.00  0.00     0.021 C 
HETATM    9  C   UNL     1     -43.269  53.939 -55.776  1.00  0.00     0.069 C 
HETATM   10  C   UNL     1     -42.352  56.135 -54.919  1.00  0.00     0.061 C 
HETATM   11  H   UNL     1     -43.827  55.408 -57.728  1.00  0.00     0.167 HD
ENDROOT
BRANCH   4  12
HETATM   12  C   UNL     1     -44.253  57.968 -59.596  1.00  0.00     0.261 C 
HETATM   13  N   UNL     1     -45.609  57.850 -59.351  1.00  0.00    -0.323 N 
HETATM   14  H   UNL     1     -45.886  57.941 -58.382  1.00  0.00     0.169 HD
HETATM   15  O   UNL     1     -43.719  57.974 -60.697  1.00  0.00    -0.267 OA
BRANCH  13  16
HETATM   16  C   UNL     1     -46.649  57.772 -60.298  1.00  0.00     0.035 A 
HETATM   17  C   UNL     1     -47.128  56.573 -60.838  1.00  0.00     0.032 A 
HETATM   18  C   UNL     1     -48.138  56.583 -61.805  1.00  0.00     0.044 A 
HETATM   19  C   UNL     1     -48.676  57.792 -62.224  1.00  0.00     0.116 A 
HETATM   20  F   UNL     1     -49.639  57.801 -63.154  1.00  0.00    -0.206 F 
HETATM   21  C   UNL     1     -48.223  58.992 -61.694  1.00  0.00     0.044 A 
HETATM   22  C   UNL     1     -47.209  58.982 -60.732  1.00  0.00     0.032 A 
ENDBRANCH  13  16
ENDBRANCH   4  12
BRANCH   1  23
HETATM   23  C   UNL     1     -42.816  58.502 -54.005  1.00  0.00     0.005 A 
HETATM   24  C   UNL     1     -42.121  59.441 -53.214  1.00  0.00     0.077 A 
HETATM   25  C   UNL     1     -42.822  60.220 -52.285  1.00  0.00     0.037 A 
HETATM   26  C   UNL     1     -44.197  60.057 -52.114  1.00  0.00     0.003 A 
HETATM   27  C   UNL     1     -44.887  59.117 -52.868  1.00  0.00     0.001 A 
HETATM   28  C   UNL     1     -44.203  58.345 -53.805  1.00  0.00     0.012 A 
BRANCH  24  29
HETATM   29  O   UNL     1     -40.777  59.556 -53.435  1.00  0.00    -0.351 OA
BRANCH  29  30
HETATM   30  C   UNL     1     -39.915  58.647 -52.751  1.00  0.00     0.171 C 
HETATM   31  C   UNL     1     -39.733  59.151 -51.330  1.00  0.00     0.034 C 
ENDBRANCH  29  30
ENDBRANCH  24  29
ENDBRANCH   1  23
BRANCH  10  32
HETATM   32  C   UNL     1     -41.530  55.436 -53.884  1.00  0.00     0.256 C 
HETATM   33  N   UNL     1     -42.206  55.149 -52.720  1.00  0.00    -0.323 N 
HETATM   34  H   UNL     1     -43.210  55.278 -52.713  1.00  0.00     0.169 HD
HETATM   35  O   UNL     1     -40.342  55.226 -54.104  1.00  0.00    -0.267 OA
BRANCH  33  36
HETATM   36  C   UNL     1     -41.651  54.755 -51.482  1.00  0.00     0.035 A 
HETATM   37  C   UNL     1     -41.017  53.531 -51.260  1.00  0.00     0.029 A 
HETATM   38  C   UNL     1     -40.451  53.240 -50.015  1.00  0.00     0.002 A 
HETATM   39  C   UNL     1     -40.505  54.174 -48.982  1.00  0.00     0.000 A 
HETATM   40  C   UNL     1     -41.138  55.396 -49.191  1.00  0.00     0.002 A 
HETATM   41  C   UNL     1     -41.714  55.682 -50.432  1.00  0.00     0.029 A 
ENDBRANCH  33  36
ENDBRANCH  10  32
TORSDOF 7
ENDMDL
MODEL 2
REMARK VINA RESULT:      -8.8      1.791      2.412
REMARK  7 active torsions:
REMARK  status: ('A' for Active; 'I' for Inactive)
REMARK    1  A    between atoms: C_2  and  O_3 
REMARK    2  A    between atoms: O_3  and  C_4 
REMARK    3  A    between atoms: C_5  and  C_6 
REMARK    4  A    between atoms: C_9  and  C_10 
REMARK       I    between atoms: C_10  and  N_11 
REMARK    5  A    between atoms: N_11  and  C_12 
REMARK    6  A    between atoms: C_25  and  C_26 
REMARK       I    between atoms: C_26  and  N_27 
REMARK    7  A    between atoms: N_27  and  C_28 
ROOT
HETATM    1  C   UNL     1     -42.249  56.629 -54.385  1.00  0.00     0.188 C 
HETATM    2  N   UNL     1     -42.465  57.341 -55.653  1.00  0.00    -0.239 N 
HETATM    3  C   UNL     1     -43.160  56.823 -56.721  1.00  0.00     0.142 C 
HETATM    4  C   UNL     1     -43.194  57.827 -57.669  1.00  0.00     0.097 C 
HETATM    5  C   UNL     1     -42.361  58.839 -57.121  1.00  0.00     0.160 C 
HETATM    6  N   UNL     1     -41.901  58.543 -55.903  1.00  0.00    -0.181 NA
HETATM    7  N   UNL     1     -43.613  55.542 -56.652  1.00  0.00    -0.343 N 
HETATM    8  C   UNL     1     -43.263  54.684 -55.598  1.00  0.00     0.021 C 
HETATM    9  C   UNL     1     -43.638  53.233 -55.788  1.00  0.00     0.069 C 
HETATM   10  C   UNL     1     -42.613  55.157 -54.505  1.00  0.00     0.061 C 
HETATM   11  H   UNL     1     -43.870  55.045 -57.505  1.00  0.00     0.167 HD
ENDROOT
BRANCH   4  12
HETATM   12  C   UNL     1     -43.881  57.899 -58.945  1.00  0.00     0.261 C 
HETATM   13  N   UNL     1     -45.234  57.621 -58.862  1.00  0.00    -0.323 N 
HETATM   14  H   UNL     1     -45.582  57.424 -57.932  1.00  0.00     0.169 HD
HETATM   15  O   UNL     1     -43.279  58.245 -59.953  1.00  0.00    -0.267 OA
BRANCH  13  16
HETATM   16  C   UNL     1     -46.197  57.728 -59.885  1.00  0.00     0.035 A 
HETATM   17  C   UNL     1     -46.712  58.943 -60.349  1.00  0.00     0.032 A 
HETATM   18  C   UNL     1     -47.697  58.962 -61.342  1.00  0.00     0.044 A 
HETATM   19  C   UNL     1     -48.159  57.768 -61.876  1.00  0.00     0.116 A 
HETATM   20  F   UNL     1     -49.106  57.787 -62.822  1.00  0.00    -0.206 F 
HETATM   21  C   UNL     1     -47.654  56.551 -61.437  1.00  0.00     0.044 A 
HETATM   22  C   UNL     1     -46.673  56.532 -60.441  1.00  0.00     0.032 A 
ENDBRANCH  13  16
ENDBRANCH   4  12
BRANCH   1  23
HETATM   23  C   UNL     1     -42.947  57.384 -53.247  1.00  0.00     0.005 A 
HETATM   24  C   UNL     1     -42.257  57.940 -52.149  1.00  0.00     0.077 A 
HETATM   25  C   UNL     1     -42.965  58.644 -51.167  1.00  0.00     0.037 A 
HETATM   26  C   UNL     1     -44.352  58.777 -51.249  1.00  0.00     0.003 A 
HETATM   27  C   UNL     1     -45.045  58.211 -52.311  1.00  0.00     0.001 A 
HETATM   28  C   UNL     1     -44.350  57.520 -53.301  1.00  0.00     0.012 A 
BRANCH  24  29
HETATM   29  O   UNL     1     -40.899  57.779 -52.131  1.00  0.00    -0.351 OA
BRANCH  29  30
HETATM   30  C   UNL     1     -40.093  58.944 -52.308  1.00  0.00     0.171 C 
HETATM   31  C   UNL     1     -39.393  59.233 -50.992  1.00  0.00     0.034 C 
ENDBRANCH  29  30
ENDBRANCH  24  29
ENDBRANCH   1  23
BRANCH  10  32
HETATM   32  C   UNL     1     -41.961  54.220 -53.539  1.00  0.00     0.256 C 
HETATM   33  N   UNL     1     -40.997  53.410 -54.096  1.00  0.00    -0.323 N 
HETATM   34  H   UNL     1     -40.698  53.615 -55.041  1.00  0.00     0.169 HD
HETATM   35  O   UNL     1     -42.351  54.191 -52.377  1.00  0.00    -0.267 OA
BRANCH  33  36
HETATM   36  C   UNL     1     -40.411  52.259 -53.524  1.00  0.00     0.035 A 
HETATM   37  C   UNL     1     -39.924  52.193 -52.218  1.00  0.00     0.029 A 
HETATM   38  C   UNL     1     -39.402  50.997 -51.714  1.00  0.00     0.002 A 
HETATM   39  C   UNL     1     -39.370  49.854 -52.510  1.00  0.00     0.000 A 
HETATM   40  C   UNL     1     -39.850  49.909 -53.816  1.00  0.00     0.002 A 
HETATM   41  C   UNL     1     -40.360  51.107 -54.322  1.00  0.00     0.029 A 
ENDBRANCH  33  36
ENDBRANCH  10  32
TORSDOF 7
ENDMDL
MODEL 3
REMARK VINA RESULT:      -8.8      5.049      8.544
REMARK  7 active torsions:
REMARK  status: ('A' for Active; 'I' for Inactive)
REMARK    1  A    between atoms: C_2  and  O_3 
REMARK    2  A    between atoms: O_3  and  C_4 
REMARK    3  A    between atoms: C_5  and  C_6 
REMARK    4  A    between atoms: C_9  and  C_10 
REMARK       I    between atoms: C_10  and  N_11 
REMARK    5  A    between atoms: N_11  and  C_12 
REMARK    6  A    between atoms: C_25  and  C_26 
REMARK       I    between atoms: C_26  and  N_27 
REMARK    7  A    between atoms: N_27  and  C_28 
ROOT
HETATM    1  C   UNL     1     -43.515  56.331 -52.700  1.00  0.00     0.188 C 
HETATM    2  N   UNL     1     -44.081  57.589 -52.193  1.00  0.00    -0.239 N 
HETATM    3  C   UNL     1     -43.527  58.333 -51.178  1.00  0.00     0.142 C 
HETATM    4  C   UNL     1     -44.316  59.460 -51.064  1.00  0.00     0.097 C 
HETATM    5  C   UNL     1     -45.395  59.209 -51.953  1.00  0.00     0.160 C 
HETATM    6  N   UNL     1     -45.268  58.066 -52.630  1.00  0.00    -0.181 NA
HETATM    7  N   UNL     1     -42.430  57.851 -50.533  1.00  0.00    -0.343 N 
HETATM    8  C   UNL     1     -41.941  56.555 -50.761  1.00  0.00     0.021 C 
HETATM    9  C   UNL     1     -40.879  56.081 -49.798  1.00  0.00     0.069 C 
HETATM   10  C   UNL     1     -42.430  55.798 -51.776  1.00  0.00     0.061 C 
HETATM   11  H   UNL     1     -42.172  58.221 -49.618  1.00  0.00     0.167 HD
ENDROOT
BRANCH   4  12
HETATM   12  C   UNL     1     -44.155  60.649 -50.247  1.00  0.00     0.261 C 
HETATM   13  N   UNL     1     -45.041  60.715 -49.187  1.00  0.00    -0.323 N 
HETATM   14  H   UNL     1     -45.672  59.928 -49.096  1.00  0.00     0.169 HD
HETATM   15  O   UNL     1     -43.258  61.446 -50.486  1.00  0.00    -0.267 OA
BRANCH  13  16
HETATM   16  C   UNL     1     -45.064  61.663 -48.145  1.00  0.00     0.035 A 
HETATM   17  C   UNL     1     -45.078  63.047 -48.347  1.00  0.00     0.032 A 
HETATM   18  C   UNL     1     -45.060  63.924 -47.257  1.00  0.00     0.044 A 
HETATM   19  C   UNL     1     -45.037  63.415 -45.966  1.00  0.00     0.116 A 
HETATM   20  F   UNL     1     -45.014  64.255 -44.924  1.00  0.00    -0.206 F 
HETATM   21  C   UNL     1     -45.034  62.045 -45.743  1.00  0.00     0.044 A 
HETATM   22  C   UNL     1     -45.046  61.169 -46.833  1.00  0.00     0.032 A 
ENDBRANCH  13  16
ENDBRANCH   4  12
BRANCH   1  23
HETATM   23  C   UNL     1     -43.097  56.509 -54.165  1.00  0.00     0.005 A 
HETATM   24  C   UNL     1     -42.341  57.607 -54.625  1.00  0.00     0.077 A 
HETATM   25  C   UNL     1     -41.972  57.678 -55.975  1.00  0.00     0.037 A 
HETATM   26  C   UNL     1     -42.368  56.688 -56.874  1.00  0.00     0.003 A 
HETATM   27  C   UNL     1     -43.135  55.616 -56.436  1.00  0.00     0.001 A 
HETATM   28  C   UNL     1     -43.498  55.527 -55.094  1.00  0.00     0.012 A 
BRANCH  24  29
HETATM   29  O   UNL     1     -41.979  58.540 -53.693  1.00  0.00    -0.351 OA
BRANCH  29  30
HETATM   30  C   UNL     1     -41.666  59.852 -54.159  1.00  0.00     0.171 C 
HETATM   31  C   UNL     1     -42.963  60.635 -54.261  1.00  0.00     0.034 C 
ENDBRANCH  29  30
ENDBRANCH  24  29
ENDBRANCH   1  23
BRANCH  10  32
HETATM   32  C   UNL     1     -42.156  54.329 -51.833  1.00  0.00     0.256 C 
HETATM   33  N   UNL     1     -40.948  53.998 -52.405  1.00  0.00    -0.323 N 
HETATM   34  H   UNL     1     -40.291  54.746 -52.586  1.00  0.00     0.169 HD
HETATM   35  O   UNL     1     -43.013  53.545 -51.440  1.00  0.00    -0.267 OA
BRANCH  33  36
HETATM   36  C   UNL     1     -40.531  52.722 -52.845  1.00  0.00     0.035 A 
HETATM   37  C   UNL     1     -40.722  52.237 -54.140  1.00  0.00     0.029 A 
HETATM   38  C   UNL     1     -40.233  50.979 -54.506  1.00  0.00     0.002 A 
HETATM   39  C   UNL     1     -39.542  50.197 -53.583  1.00  0.00     0.000 A 
HETATM   40  C   UNL     1     -39.349  50.668 -52.287  1.00  0.00     0.002 A 
HETATM   41  C   UNL     1     -39.847  51.921 -51.919  1.00  0.00     0.029 A 
ENDBRANCH  33  36
ENDBRANCH  10  32
TORSDOF 7
ENDMDL
MODEL 4
REMARK VINA RESULT:      -8.6      4.631      8.397
REMARK  7 active torsions:
REMARK  status: ('A' for Active; 'I' for Inactive)
REMARK    1  A    between atoms: C_2  and  O_3 
REMARK    2  A    between atoms: O_3  and  C_4 
REMARK    3  A    between atoms: C_5  and  C_6 
REMARK    4  A    between atoms: C_9  and  C_10 
REMARK       I    between atoms: C_10  and  N_11 
REMARK    5  A    between atoms: N_11  and  C_12 
REMARK    6  A    between atoms: C_25  and  C_26 
REMARK       I    between atoms: C_26  and  N_27 
REMARK    7  A    between atoms: N_27  and  C_28 
ROOT
HETATM    1  C   UNL     1     -43.005  57.776 -53.612  1.00  0.00     0.188 C 
HETATM    2  N   UNL     1     -43.829  58.692 -52.809  1.00  0.00    -0.239 N 
HETATM    3  C   UNL     1     -43.398  59.313 -51.660  1.00  0.00     0.142 C 
HETATM    4  C   UNL     1     -44.436  60.133 -51.265  1.00  0.00     0.097 C 
HETATM    5  C   UNL     1     -45.487  59.807 -52.162  1.00  0.00     0.160 C 
HETATM    6  N   UNL     1     -45.130  58.919 -53.094  1.00  0.00    -0.181 NA
HETATM    7  N   UNL     1     -42.164  59.010 -51.173  1.00  0.00    -0.343 N 
HETATM    8  C   UNL     1     -41.383  57.977 -51.712  1.00  0.00     0.021 C 
HETATM    9  C   UNL     1     -40.157  57.603 -50.913  1.00  0.00     0.069 C 
HETATM   10  C   UNL     1     -41.747  57.362 -52.866  1.00  0.00     0.061 C 
HETATM   11  H   UNL     1     -41.932  59.224 -50.202  1.00  0.00     0.167 HD
ENDROOT
BRANCH   4  12
HETATM   12  C   UNL     1     -44.514  61.109 -50.193  1.00  0.00     0.261 C 
HETATM   13  N   UNL     1     -45.617  60.945 -49.375  1.00  0.00    -0.323 N 
HETATM   14  H   UNL     1     -46.218  60.162 -49.604  1.00  0.00     0.169 HD
HETATM   15  O   UNL     1     -43.622  61.933 -50.041  1.00  0.00    -0.267 OA
BRANCH  13  16
HETATM   16  C   UNL     1     -45.914  61.638 -48.184  1.00  0.00     0.035 A 
HETATM   17  C   UNL     1     -45.262  61.416 -46.967  1.00  0.00     0.032 A 
HETATM   18  C   UNL     1     -45.644  62.119 -45.820  1.00  0.00     0.044 A 
HETATM   19  C   UNL     1     -46.671  63.049 -45.892  1.00  0.00     0.116 A 
HETATM   20  F   UNL     1     -47.040  63.716 -44.792  1.00  0.00    -0.206 F 
HETATM   21  C   UNL     1     -47.325  63.291 -47.093  1.00  0.00     0.044 A 
HETATM   22  C   UNL     1     -46.947  62.585 -48.239  1.00  0.00     0.032 A 
ENDBRANCH  13  16
ENDBRANCH   4  12
BRANCH   1  23
HETATM   23  C   UNL     1     -42.772  58.381 -55.002  1.00  0.00     0.005 A 
HETATM   24  C   UNL     1     -43.070  57.700 -56.201  1.00  0.00     0.077 A 
HETATM   25  C   UNL     1     -42.858  58.336 -57.431  1.00  0.00     0.037 A 
HETATM   26  C   UNL     1     -42.328  59.625 -57.484  1.00  0.00     0.003 A 
HETATM   27  C   UNL     1     -42.005  60.294 -56.310  1.00  0.00     0.001 A 
HETATM   28  C   UNL     1     -42.224  59.678 -55.080  1.00  0.00     0.012 A 
BRANCH  24  29
HETATM   29  O   UNL     1     -43.592  56.442 -56.082  1.00  0.00    -0.351 OA
BRANCH  29  30
HETATM   30  C   UNL     1     -42.788  55.348 -56.521  1.00  0.00     0.171 C 
HETATM   31  C   UNL     1     -43.164  54.129 -55.699  1.00  0.00     0.034 C 
ENDBRANCH  29  30
ENDBRANCH  24  29
ENDBRANCH   1  23
BRANCH  10  32
HETATM   32  C   UNL     1     -41.114  56.071 -53.275  1.00  0.00     0.256 C 
HETATM   33  N   UNL     1     -41.494  54.986 -52.517  1.00  0.00    -0.323 N 
HETATM   34  H   UNL     1     -42.265  55.108 -51.873  1.00  0.00     0.169 HD
HETATM   35  O   UNL     1     -40.287  56.069 -54.181  1.00  0.00    -0.267 OA
BRANCH  33  36
HETATM   36  C   UNL     1     -40.880  53.714 -52.474  1.00  0.00     0.035 A 
HETATM   37  C   UNL     1     -40.530  52.973 -53.604  1.00  0.00     0.029 A 
HETATM   38  C   UNL     1     -39.880  51.742 -53.472  1.00  0.00     0.002 A 
HETATM   39  C   UNL     1     -39.568  51.243 -52.209  1.00  0.00     0.000 A 
HETATM   40  C   UNL     1     -39.916  51.971 -51.075  1.00  0.00     0.002 A 
HETATM   41  C   UNL     1     -40.575  53.197 -51.207  1.00  0.00     0.029 A 
ENDBRANCH  33  36
ENDBRANCH  10  32
TORSDOF 7
ENDMDL
MODEL 5
REMARK VINA RESULT:      -8.5      3.660      9.384
REMARK  7 active torsions:
REMARK  status: ('A' for Active; 'I' for Inactive)
REMARK    1  A    between atoms: C_2  and  O_3 
REMARK    2  A    between atoms: O_3  and  C_4 
REMARK    3  A    between atoms: C_5  and  C_6 
REMARK    4  A    between atoms: C_9  and  C_10 
REMARK       I    between atoms: C_10  and  N_11 
REMARK    5  A    between atoms: N_11  and  C_12 
REMARK    6  A    between atoms: C_25  and  C_26 
REMARK       I    between atoms: C_26  and  N_27 
REMARK    7  A    between atoms: N_27  and  C_28 
ROOT
HETATM    1  C   UNL     1     -44.570  58.216 -57.061  1.00  0.00     0.188 C 
HETATM    2  N   UNL     1     -43.988  57.354 -56.021  1.00  0.00    -0.239 N 
HETATM    3  C   UNL     1     -42.854  56.596 -56.191  1.00  0.00     0.142 C 
HETATM    4  C   UNL     1     -42.611  56.004 -54.967  1.00  0.00     0.097 C 
HETATM    5  C   UNL     1     -43.746  56.358 -54.189  1.00  0.00     0.160 C 
HETATM    6  N   UNL     1     -44.595  57.165 -54.828  1.00  0.00    -0.181 NA
HETATM    7  N   UNL     1     -42.263  56.562 -57.416  1.00  0.00    -0.343 N 
HETATM    8  C   UNL     1     -42.857  57.146 -58.546  1.00  0.00     0.021 C 
HETATM    9  C   UNL     1     -42.207  56.813 -59.868  1.00  0.00     0.069 C 
HETATM   10  C   UNL     1     -43.954  57.936 -58.423  1.00  0.00     0.061 C 
HETATM   11  H   UNL     1     -41.612  55.811 -57.648  1.00  0.00     0.167 HD
ENDROOT
BRANCH   4  12
HETATM   12  C   UNL     1     -41.497  55.193 -54.514  1.00  0.00     0.261 C 
HETATM   13  N   UNL     1     -41.863  54.197 -53.625  1.00  0.00    -0.323 N 
HETATM   14  H   UNL     1     -42.852  54.141 -53.417  1.00  0.00     0.169 HD
HETATM   15  O   UNL     1     -40.374  55.378 -54.963  1.00  0.00    -0.267 OA
BRANCH  13  16
HETATM   16  C   UNL     1     -41.051  53.171 -53.103  1.00  0.00     0.035 A 
HETATM   17  C   UNL     1     -40.515  52.131 -53.870  1.00  0.00     0.032 A 
HETATM   18  C   UNL     1     -39.750  51.127 -53.268  1.00  0.00     0.044 A 
HETATM   19  C   UNL     1     -39.514  51.169 -51.902  1.00  0.00     0.116 A 
HETATM   20  F   UNL     1     -38.786  50.204 -51.326  1.00  0.00    -0.206 F 
HETATM   21  C   UNL     1     -40.027  52.197 -51.123  1.00  0.00     0.044 A 
HETATM   22  C   UNL     1     -40.797  53.198 -51.725  1.00  0.00     0.032 A 
ENDBRANCH  13  16
ENDBRANCH   4  12
BRANCH   1  23
HETATM   23  C   UNL     1     -44.512  59.680 -56.607  1.00  0.00     0.005 A 
HETATM   24  C   UNL     1     -45.605  60.565 -56.710  1.00  0.00     0.077 A 
HETATM   25  C   UNL     1     -45.481  61.879 -56.241  1.00  0.00     0.037 A 
HETATM   26  C   UNL     1     -44.277  62.330 -55.699  1.00  0.00     0.003 A 
HETATM   27  C   UNL     1     -43.186  61.474 -55.617  1.00  0.00     0.001 A 
HETATM   28  C   UNL     1     -43.301  60.161 -56.068  1.00  0.00     0.012 A 
BRANCH  24  29
HETATM   29  O   UNL     1     -46.758  60.061 -57.246  1.00  0.00    -0.351 OA
BRANCH  29  30
HETATM   30  C   UNL     1     -47.593  60.957 -57.978  1.00  0.00     0.171 C 
HETATM   31  C   UNL     1     -49.024  60.459 -57.869  1.00  0.00     0.034 C 
ENDBRANCH  29  30
ENDBRANCH  24  29
ENDBRANCH   1  23
BRANCH  10  32
HETATM   32  C   UNL     1     -44.773  58.296 -59.621  1.00  0.00     0.256 C 
HETATM   33  N   UNL     1     -46.109  57.982 -59.512  1.00  0.00    -0.323 N 
HETATM   34  H   UNL     1     -46.453  57.694 -58.605  1.00  0.00     0.169 HD
HETATM   35  O   UNL     1     -44.217  58.772 -60.605  1.00  0.00    -0.267 OA
BRANCH  33  36
HETATM   36  C   UNL     1     -47.067  57.942 -60.549  1.00  0.00     0.035 A 
HETATM   37  C   UNL     1     -47.645  59.073 -61.128  1.00  0.00     0.029 A 
HETATM   38  C   UNL     1     -48.550  58.946 -62.186  1.00  0.00     0.002 A 
HETATM   39  C   UNL     1     -48.880  57.686 -62.681  1.00  0.00     0.000 A 
HETATM   40  C   UNL     1     -48.313  56.550 -62.110  1.00  0.00     0.002 A 
HETATM   41  C   UNL     1     -47.416  56.678 -61.045  1.00  0.00     0.029 A 
ENDBRANCH  33  36
ENDBRANCH  10  32
TORSDOF 7
ENDMDL
MODEL 6
REMARK VINA RESULT:      -8.4      3.806      9.412
REMARK  7 active torsions:
REMARK  status: ('A' for Active; 'I' for Inactive)
REMARK    1  A    between atoms: C_2  and  O_3 
REMARK    2  A    between atoms: O_3  and  C_4 
REMARK    3  A    between atoms: C_5  and  C_6 
REMARK    4  A    between atoms: C_9  and  C_10 
REMARK       I    between atoms: C_10  and  N_11 
REMARK    5  A    between atoms: N_11  and  C_12 
REMARK    6  A    between atoms: C_25  and  C_26 
REMARK       I    between atoms: C_26  and  N_27 
REMARK    7  A    between atoms: N_27  and  C_28 
ROOT
HETATM    1  C   UNL     1     -43.225  58.259 -57.139  1.00  0.00     0.188 C 
HETATM    2  N   UNL     1     -43.021  57.012 -56.386  1.00  0.00    -0.239 N 
HETATM    3  C   UNL     1     -42.808  56.956 -55.029  1.00  0.00     0.142 C 
HETATM    4  C   UNL     1     -42.741  55.613 -54.714  1.00  0.00     0.097 C 
HETATM    5  C   UNL     1     -42.774  54.967 -55.979  1.00  0.00     0.160 C 
HETATM    6  N   UNL     1     -42.927  55.813 -57.001  1.00  0.00    -0.181 NA
HETATM    7  N   UNL     1     -42.693  58.120 -54.332  1.00  0.00    -0.343 N 
HETATM    8  C   UNL     1     -42.629  59.367 -54.972  1.00  0.00     0.021 C 
HETATM    9  C   UNL     1     -42.255  60.533 -54.087  1.00  0.00     0.069 C 
HETATM   10  C   UNL     1     -42.871  59.478 -56.302  1.00  0.00     0.061 C 
HETATM   11  H   UNL     1     -42.262  58.120 -53.407  1.00  0.00     0.167 HD
ENDROOT
BRANCH   4  12
HETATM   12  C   UNL     1     -42.645  54.947 -53.429  1.00  0.00     0.261 C 
HETATM   13  N   UNL     1     -41.451  55.180 -52.772  1.00  0.00    -0.323 N 
HETATM   14  H   UNL     1     -40.804  55.796 -53.249  1.00  0.00     0.169 HD
HETATM   15  O   UNL     1     -43.593  54.306 -52.993  1.00  0.00    -0.267 OA
BRANCH  13  16
HETATM   16  C   UNL     1     -41.098  54.788 -51.465  1.00  0.00     0.035 A 
HETATM   17  C   UNL     1     -40.429  53.598 -51.160  1.00  0.00     0.032 A 
HETATM   18  C   UNL     1     -40.150  53.263 -49.830  1.00  0.00     0.044 A 
HETATM   19  C   UNL     1     -40.533  54.121 -48.810  1.00  0.00     0.116 A 
HETATM   20  F   UNL     1     -40.271  53.796 -47.538  1.00  0.00    -0.206 F 
HETATM   21  C   UNL     1     -41.189  55.312 -49.092  1.00  0.00     0.044 A 
HETATM   22  C   UNL     1     -41.472  55.644 -50.420  1.00  0.00     0.032 A 
ENDBRANCH  13  16
ENDBRANCH   4  12
BRANCH   1  23
HETATM   23  C   UNL     1     -44.635  58.268 -57.744  1.00  0.00     0.005 A 
HETATM   24  C   UNL     1     -44.883  58.406 -59.126  1.00  0.00     0.077 A 
HETATM   25  C   UNL     1     -46.199  58.371 -59.602  1.00  0.00     0.037 A 
HETATM   26  C   UNL     1     -47.271  58.229 -58.720  1.00  0.00     0.003 A 
HETATM   27  C   UNL     1     -47.040  58.119 -57.355  1.00  0.00     0.001 A 
HETATM   28  C   UNL     1     -45.734  58.139 -56.870  1.00  0.00     0.012 A 
BRANCH  24  29
HETATM   29  O   UNL     1     -43.790  58.536 -59.937  1.00  0.00    -0.351 OA
BRANCH  29  30
HETATM   30  C   UNL     1     -43.182  57.339 -60.424  1.00  0.00     0.171 C 
HETATM   31  C   UNL     1     -41.680  57.472 -60.251  1.00  0.00     0.034 C 
ENDBRANCH  29  30
ENDBRANCH  24  29
ENDBRANCH   1  23
BRANCH  10  32
HETATM   32  C   UNL     1     -42.499  60.721 -57.045  1.00  0.00     0.256 C 
HETATM   33  N   UNL     1     -41.882  60.497 -58.255  1.00  0.00    -0.323 N 
HETATM   34  H   UNL     1     -41.875  59.550 -58.613  1.00  0.00     0.169 HD
HETATM   35  O   UNL     1     -42.704  61.813 -56.526  1.00  0.00    -0.267 OA
BRANCH  33  36
HETATM   36  C   UNL     1     -41.179  61.435 -59.044  1.00  0.00     0.035 A 
HETATM   37  C   UNL     1     -40.164  62.263 -58.562  1.00  0.00     0.029 A 
HETATM   38  C   UNL     1     -39.485  63.130 -59.424  1.00  0.00     0.002 A 
HETATM   39  C   UNL     1     -39.810  63.172 -60.778  1.00  0.00     0.000 A 
HETATM   40  C   UNL     1     -40.823  62.353 -61.270  1.00  0.00     0.002 A 
HETATM   41  C   UNL     1     -41.509  61.495 -60.406  1.00  0.00     0.029 A 
ENDBRANCH  33  36
ENDBRANCH  10  32
TORSDOF 7
ENDMDL
MODEL 7
REMARK VINA RESULT:      -8.2      5.314      9.234
REMARK  7 active torsions:
REMARK  status: ('A' for Active; 'I' for Inactive)
REMARK    1  A    between atoms: C_2  and  O_3 
REMARK    2  A    between atoms: O_3  and  C_4 
REMARK    3  A    between atoms: C_5  and  C_6 
REMARK    4  A    between atoms: C_9  and  C_10 
REMARK       I    between atoms: C_10  and  N_11 
REMARK    5  A    between atoms: N_11  and  C_12 
REMARK    6  A    between atoms: C_25  and  C_26 
REMARK       I    between atoms: C_26  and  N_27 
REMARK    7  A    between atoms: N_27  and  C_28 
ROOT
HETATM    1  C   UNL     1     -43.742  58.048 -52.662  1.00  0.00     0.188 C 
HETATM    2  N   UNL     1     -44.397  58.872 -51.635  1.00  0.00    -0.239 N 
HETATM    3  C   UNL     1     -43.722  59.640 -50.715  1.00  0.00     0.142 C 
HETATM    4  C   UNL     1     -44.696  60.304 -49.995  1.00  0.00     0.097 C 
HETATM    5  C   UNL     1     -45.911  59.741 -50.468  1.00  0.00     0.160 C 
HETATM    6  N   UNL     1     -45.736  58.858 -51.454  1.00  0.00    -0.181 NA
HETATM    7  N   UNL     1     -42.363  59.585 -50.682  1.00  0.00    -0.343 N 
HETATM    8  C   UNL     1     -41.637  58.658 -51.445  1.00  0.00     0.021 C 
HETATM    9  C   UNL     1     -40.167  58.554 -51.116  1.00  0.00     0.069 C 
HETATM   10  C   UNL     1     -42.252  57.906 -52.393  1.00  0.00     0.061 C 
HETATM   11  H   UNL     1     -41.859  59.906 -49.854  1.00  0.00     0.167 HD
ENDROOT
BRANCH   4  12
HETATM   12  C   UNL     1     -44.583  61.331 -48.976  1.00  0.00     0.261 C 
HETATM   13  N   UNL     1     -45.046  60.932 -47.735  1.00  0.00    -0.323 N 
HETATM   14  H   UNL     1     -45.383  59.979 -47.681  1.00  0.00     0.169 HD
HETATM   15  O   UNL     1     -44.057  62.405 -49.236  1.00  0.00    -0.267 OA
BRANCH  13  16
HETATM   16  C   UNL     1     -44.961  61.639 -46.518  1.00  0.00     0.035 A 
HETATM   17  C   UNL     1     -45.406  62.954 -46.346  1.00  0.00     0.032 A 
HETATM   18  C   UNL     1     -45.250  63.599 -45.115  1.00  0.00     0.044 A 
HETATM   19  C   UNL     1     -44.657  62.927 -44.056  1.00  0.00     0.116 A 
HETATM   20  F   UNL     1     -44.503  63.547 -42.880  1.00  0.00    -0.206 F 
HETATM   21  C   UNL     1     -44.218  61.618 -44.203  1.00  0.00     0.044 A 
HETATM   22  C   UNL     1     -44.370  60.974 -45.435  1.00  0.00     0.032 A 
ENDBRANCH  13  16
ENDBRANCH   4  12
BRANCH   1  23
HETATM   23  C   UNL     1     -44.107  58.577 -54.055  1.00  0.00     0.005 A 
HETATM   24  C   UNL     1     -43.692  59.835 -54.538  1.00  0.00     0.077 A 
HETATM   25  C   UNL     1     -44.041  60.230 -55.836  1.00  0.00     0.037 A 
HETATM   26  C   UNL     1     -44.820  59.403 -56.645  1.00  0.00     0.003 A 
HETATM   27  C   UNL     1     -45.257  58.173 -56.170  1.00  0.00     0.001 A 
HETATM   28  C   UNL     1     -44.906  57.764 -54.886  1.00  0.00     0.012 A 
BRANCH  24  29
HETATM   29  O   UNL     1     -42.926  60.595 -53.698  1.00  0.00    -0.351 OA
BRANCH  29  30
HETATM   30  C   UNL     1     -43.039  62.014 -53.804  1.00  0.00     0.171 C 
HETATM   31  C   UNL     1     -44.143  62.468 -52.866  1.00  0.00     0.034 C 
ENDBRANCH  29  30
ENDBRANCH  24  29
ENDBRANCH   1  23
BRANCH  10  32
HETATM   32  C   UNL     1     -41.571  56.711 -52.980  1.00  0.00     0.256 C 
HETATM   33  N   UNL     1     -41.903  55.517 -52.379  1.00  0.00    -0.323 N 
HETATM   34  H   UNL     1     -42.674  55.517 -51.724  1.00  0.00     0.169 HD
HETATM   35  O   UNL     1     -40.752  56.869 -53.878  1.00  0.00    -0.267 OA
BRANCH  33  36
HETATM   36  C   UNL     1     -41.239  54.277 -52.515  1.00  0.00     0.035 A 
HETATM   37  C   UNL     1     -41.232  53.514 -53.684  1.00  0.00     0.029 A 
HETATM   38  C   UNL     1     -40.508  52.320 -53.749  1.00  0.00     0.002 A 
HETATM   39  C   UNL     1     -39.777  51.881 -52.647  1.00  0.00     0.000 A 
HETATM   40  C   UNL     1     -39.779  52.631 -51.474  1.00  0.00     0.002 A 
HETATM   41  C   UNL     1     -40.512  53.819 -51.407  1.00  0.00     0.029 A 
ENDBRANCH  33  36
ENDBRANCH  10  32
TORSDOF 7
ENDMDL
MODEL 8
REMARK VINA RESULT:      -8.2      4.040      9.425
REMARK  7 active torsions:
REMARK  status: ('A' for Active; 'I' for Inactive)
REMARK    1  A    between atoms: C_2  and  O_3 
REMARK    2  A    between atoms: O_3  and  C_4 
REMARK    3  A    between atoms: C_5  and  C_6 
REMARK    4  A    between atoms: C_9  and  C_10 
REMARK       I    between atoms: C_10  and  N_11 
REMARK    5  A    between atoms: N_11  and  C_12 
REMARK    6  A    between atoms: C_25  and  C_26 
REMARK       I    between atoms: C_26  and  N_27 
REMARK    7  A    between atoms: N_27  and  C_28 
ROOT
HETATM    1  C   UNL     1     -43.392  58.560 -58.632  1.00  0.00     0.188 C 
HETATM    2  N   UNL     1     -43.207  57.202 -58.098  1.00  0.00    -0.239 N 
HETATM    3  C   UNL     1     -42.891  56.924 -56.789  1.00  0.00     0.142 C 
HETATM    4  C   UNL     1     -42.883  55.547 -56.689  1.00  0.00     0.097 C 
HETATM    5  C   UNL     1     -43.057  55.109 -58.029  1.00  0.00     0.160 C 
HETATM    6  N   UNL     1     -43.237  56.111 -58.893  1.00  0.00    -0.181 NA
HETATM    7  N   UNL     1     -42.649  57.957 -55.937  1.00  0.00    -0.343 N 
HETATM    8  C   UNL     1     -42.558  59.284 -56.382  1.00  0.00     0.021 C 
HETATM    9  C   UNL     1     -42.043  60.278 -55.368  1.00  0.00     0.069 C 
HETATM   10  C   UNL     1     -42.898  59.614 -57.654  1.00  0.00     0.061 C 
HETATM   11  H   UNL     1     -42.147  57.791 -55.064  1.00  0.00     0.167 HD
ENDROOT
BRANCH   4  12
HETATM   12  C   UNL     1     -42.728  54.683 -55.533  1.00  0.00     0.261 C 
HETATM   13  N   UNL     1     -41.420  54.295 -55.304  1.00  0.00    -0.323 N 
HETATM   14  H   UNL     1     -40.735  54.672 -55.947  1.00  0.00     0.169 HD
HETATM   15  O   UNL     1     -43.692  54.414 -54.829  1.00  0.00    -0.267 OA
BRANCH  13  16
HETATM   16  C   UNL     1     -40.919  53.571 -54.204  1.00  0.00     0.035 A 
HETATM   17  C   UNL     1     -40.855  54.074 -52.901  1.00  0.00     0.032 A 
HETATM   18  C   UNL     1     -40.306  53.305 -51.870  1.00  0.00     0.044 A 
HETATM   19  C   UNL     1     -39.831  52.030 -52.141  1.00  0.00     0.116 A 
HETATM   20  F   UNL     1     -39.300  51.296 -51.155  1.00  0.00    -0.206 F 
HETATM   21  C   UNL     1     -39.895  51.507 -53.426  1.00  0.00     0.044 A 
HETATM   22  C   UNL     1     -40.439  52.278 -54.457  1.00  0.00     0.032 A 
ENDBRANCH  13  16
ENDBRANCH   4  12
BRANCH   1  23
HETATM   23  C   UNL     1     -44.842  58.733 -59.102  1.00  0.00     0.005 A 
HETATM   24  C   UNL     1     -45.192  59.361 -60.316  1.00  0.00     0.077 A 
HETATM   25  C   UNL     1     -46.539  59.450 -60.689  1.00  0.00     0.037 A 
HETATM   26  C   UNL     1     -47.541  58.948 -59.858  1.00  0.00     0.003 A 
HETATM   27  C   UNL     1     -47.210  58.352 -58.648  1.00  0.00     0.001 A 
HETATM   28  C   UNL     1     -45.873  58.246 -58.272  1.00  0.00     0.012 A 
BRANCH  24  29
HETATM   29  O   UNL     1     -44.163  59.826 -61.088  1.00  0.00    -0.351 OA
BRANCH  29  30
HETATM   30  C   UNL     1     -44.313  61.114 -61.683  1.00  0.00     0.171 C 
HETATM   31  C   UNL     1     -43.992  60.988 -63.161  1.00  0.00     0.034 C 
ENDBRANCH  29  30
ENDBRANCH  24  29
ENDBRANCH   1  23
BRANCH  10  32
HETATM   32  C   UNL     1     -42.509  60.939 -58.229  1.00  0.00     0.256 C 
HETATM   33  N   UNL     1     -41.585  60.866 -59.248  1.00  0.00    -0.323 N 
HETATM   34  H   UNL     1     -41.372  59.953 -59.627  1.00  0.00     0.169 HD
HETATM   35  O   UNL     1     -42.970  61.963 -57.739  1.00  0.00    -0.267 OA
BRANCH  33  36
HETATM   36  C   UNL     1     -40.829  61.927 -59.795  1.00  0.00     0.035 A 
HETATM   37  C   UNL     1     -40.988  62.417 -61.092  1.00  0.00     0.029 A 
HETATM   38  C   UNL     1     -40.230  63.505 -61.538  1.00  0.00     0.002 A 
HETATM   39  C   UNL     1     -39.312  64.118 -60.688  1.00  0.00     0.000 A 
HETATM   40  C   UNL     1     -39.143  63.636 -59.393  1.00  0.00     0.002 A 
HETATM   41  C   UNL     1     -39.892  62.542 -58.951  1.00  0.00     0.029 A 
ENDBRANCH  33  36
ENDBRANCH  10  32
TORSDOF 7
ENDMDL
MODEL 9
REMARK VINA RESULT:      -8.2      1.649      2.753
REMARK  7 active torsions:
REMARK  status: ('A' for Active; 'I' for Inactive)
REMARK    1  A    between atoms: C_2  and  O_3 
REMARK    2  A    between atoms: O_3  and  C_4 
REMARK    3  A    between atoms: C_5  and  C_6 
REMARK    4  A    between atoms: C_9  and  C_10 
REMARK       I    between atoms: C_10  and  N_11 
REMARK    5  A    between atoms: N_11  and  C_12 
REMARK    6  A    between atoms: C_25  and  C_26 
REMARK       I    between atoms: C_26  and  N_27 
REMARK    7  A    between atoms: N_27  and  C_28 
ROOT
HETATM    1  C   UNL     1     -41.534  57.285 -55.053  1.00  0.00     0.188 C 
HETATM    2  N   UNL     1     -42.315  58.105 -55.991  1.00  0.00    -0.239 N 
HETATM    3  C   UNL     1     -43.458  57.677 -56.624  1.00  0.00     0.142 C 
HETATM    4  C   UNL     1     -43.914  58.762 -57.347  1.00  0.00     0.097 C 
HETATM    5  C   UNL     1     -42.886  59.729 -57.193  1.00  0.00     0.160 C 
HETATM    6  N   UNL     1     -41.902  59.331 -56.383  1.00  0.00    -0.181 NA
HETATM    7  N   UNL     1     -43.864  56.390 -56.450  1.00  0.00    -0.343 N 
HETATM    8  C   UNL     1     -43.076  55.446 -55.776  1.00  0.00     0.021 C 
HETATM    9  C   UNL     1     -43.545  54.014 -55.880  1.00  0.00     0.069 C 
HETATM   10  C   UNL     1     -41.960  55.826 -55.103  1.00  0.00     0.061 C 
HETATM   11  H   UNL     1     -44.520  55.969 -57.108  1.00  0.00     0.167 HD
ENDROOT
BRANCH   4  12
HETATM   12  C   UNL     1     -45.132  58.941 -58.116  1.00  0.00     0.261 C 
HETATM   13  N   UNL     1     -45.127  58.269 -59.325  1.00  0.00    -0.323 N 
HETATM   14  H   UNL     1     -44.296  57.723 -59.517  1.00  0.00     0.169 HD
HETATM   15  O   UNL     1     -46.066  59.583 -57.654  1.00  0.00    -0.267 OA
BRANCH  13  16
HETATM   16  C   UNL     1     -46.192  58.135 -60.238  1.00  0.00     0.035 A 
HETATM   17  C   UNL     1     -46.816  59.212 -60.875  1.00  0.00     0.032 A 
HETATM   18  C   UNL     1     -47.895  58.997 -61.739  1.00  0.00     0.044 A 
HETATM   19  C   UNL     1     -48.342  57.705 -61.972  1.00  0.00     0.116 A 
HETATM   20  F   UNL     1     -49.379  57.501 -62.794  1.00  0.00    -0.206 F 
HETATM   21  C   UNL     1     -47.730  56.620 -61.358  1.00  0.00     0.044 A 
HETATM   22  C   UNL     1     -46.655  56.836 -60.491  1.00  0.00     0.032 A 
ENDBRANCH  13  16
ENDBRANCH   4  12
BRANCH   1  23
HETATM   23  C   UNL     1     -41.564  57.927 -53.660  1.00  0.00     0.005 A 
HETATM   24  C   UNL     1     -42.738  58.043 -52.887  1.00  0.00     0.077 A 
HETATM   25  C   UNL     1     -42.675  58.614 -51.610  1.00  0.00     0.037 A 
HETATM   26  C   UNL     1     -41.467  59.096 -51.105  1.00  0.00     0.003 A 
HETATM   27  C   UNL     1     -40.310  59.012 -51.869  1.00  0.00     0.001 A 
HETATM   28  C   UNL     1     -40.357  58.434 -53.136  1.00  0.00     0.012 A 
BRANCH  24  29
HETATM   29  O   UNL     1     -43.888  57.546 -53.436  1.00  0.00    -0.351 OA
BRANCH  29  30
HETATM   30  C   UNL     1     -45.113  58.204 -53.112  1.00  0.00     0.171 C 
HETATM   31  C   UNL     1     -45.232  59.434 -53.995  1.00  0.00     0.034 C 
ENDBRANCH  29  30
ENDBRANCH  24  29
ENDBRANCH   1  23
BRANCH  10  32
HETATM   32  C   UNL     1     -40.954  54.813 -54.659  1.00  0.00     0.256 C 
HETATM   33  N   UNL     1     -41.470  53.800 -53.882  1.00  0.00    -0.323 N 
HETATM   34  H   UNL     1     -42.477  53.729 -53.810  1.00  0.00     0.169 HD
HETATM   35  O   UNL     1     -39.774  54.974 -54.951  1.00  0.00    -0.267 OA
BRANCH  33  36
HETATM   36  C   UNL     1     -40.751  52.870 -53.099  1.00  0.00     0.035 A 
HETATM   37  C   UNL     1     -40.553  52.990 -51.723  1.00  0.00     0.029 A 
HETATM   38  C   UNL     1     -39.869  51.997 -51.015  1.00  0.00     0.002 A 
HETATM   39  C   UNL     1     -39.384  50.870 -51.675  1.00  0.00     0.000 A 
HETATM   40  C   UNL     1     -39.572  50.742 -53.049  1.00  0.00     0.002 A 
HETATM   41  C   UNL     1     -40.246  51.740 -53.758  1.00  0.00     0.029 A 
ENDBRANCH  33  36
ENDBRANCH  10  32
TORSDOF 7
ENDMDL
MODEL 10
REMARK VINA RESULT:      -8.1      3.252      5.556
REMARK  7 active torsions:
REMARK  status: ('A' for Active; 'I' for Inactive)
REMARK    1  A    between atoms: C_2  and  O_3 
REMARK    2  A    between atoms: O_3  and  C_4 
REMARK    3  A    between atoms: C_5  and  C_6 
REMARK    4  A    between atoms: C_9  and  C_10 
REMARK       I    between atoms: C_10  and  N_11 
REMARK    5  A    between atoms: N_11  and  C_12 
REMARK    6  A    between atoms: C_25  and  C_26 
REMARK       I    between atoms: C_26  and  N_27 
REMARK    7  A    between atoms: N_27  and  C_28 
ROOT
HETATM    1  C   UNL     1     -44.402  58.196 -52.022  1.00  0.00     0.188 C 
HETATM    2  N   UNL     1     -44.425  57.713 -53.411  1.00  0.00    -0.239 N 
HETATM    3  C   UNL     1     -44.902  58.442 -54.474  1.00  0.00     0.142 C 
HETATM    4  C   UNL     1     -44.675  57.666 -55.593  1.00  0.00     0.097 C 
HETATM    5  C   UNL     1     -44.201  56.437 -55.063  1.00  0.00     0.160 C 
HETATM    6  N   UNL     1     -44.062  56.453 -53.735  1.00  0.00    -0.181 NA
HETATM    7  N   UNL     1     -45.469  59.657 -54.238  1.00  0.00    -0.343 N 
HETATM    8  C   UNL     1     -45.723  60.119 -52.938  1.00  0.00     0.021 C 
HETATM    9  C   UNL     1     -46.574  61.364 -52.845  1.00  0.00     0.069 C 
HETATM   10  C   UNL     1     -45.239  59.455 -51.858  1.00  0.00     0.061 C 
HETATM   11  H   UNL     1     -46.073  60.084 -54.941  1.00  0.00     0.167 HD
ENDROOT
BRANCH   4  12
HETATM   12  C   UNL     1     -44.864  57.960 -57.002  1.00  0.00     0.261 C 
HETATM   13  N   UNL     1     -46.125  57.638 -57.470  1.00  0.00    -0.323 N 
HETATM   14  H   UNL     1     -46.764  57.262 -56.779  1.00  0.00     0.169 HD
HETATM   15  O   UNL     1     -43.975  58.502 -57.645  1.00  0.00    -0.267 OA
BRANCH  13  16
HETATM   16  C   UNL     1     -46.665  57.912 -58.742  1.00  0.00     0.035 A 
HETATM   17  C   UNL     1     -47.141  59.167 -59.136  1.00  0.00     0.032 A 
HETATM   18  C   UNL     1     -47.700  59.347 -60.406  1.00  0.00     0.044 A 
HETATM   19  C   UNL     1     -47.773  58.275 -61.283  1.00  0.00     0.116 A 
HETATM   20  F   UNL     1     -48.313  58.447 -62.496  1.00  0.00    -0.206 F 
HETATM   21  C   UNL     1     -47.297  57.023 -60.916  1.00  0.00     0.044 A 
HETATM   22  C   UNL     1     -46.744  56.842 -59.645  1.00  0.00     0.032 A 
ENDBRANCH  13  16
ENDBRANCH   4  12
BRANCH   1  23
HETATM   23  C   UNL     1     -42.950  58.309 -51.541  1.00  0.00     0.005 A 
HETATM   24  C   UNL     1     -42.287  57.284 -50.835  1.00  0.00     0.077 A 
HETATM   25  C   UNL     1     -40.948  57.452 -50.460  1.00  0.00     0.037 A 
HETATM   26  C   UNL     1     -40.271  58.637 -50.753  1.00  0.00     0.003 A 
HETATM   27  C   UNL     1     -40.923  59.664 -51.424  1.00  0.00     0.001 A 
HETATM   28  C   UNL     1     -42.250  59.503 -51.814  1.00  0.00     0.012 A 
BRANCH  24  29
HETATM   29  O   UNL     1     -43.003  56.146 -50.585  1.00  0.00    -0.351 OA
BRANCH  29  30
HETATM   30  C   UNL     1     -42.274  54.970 -50.233  1.00  0.00     0.171 C 
HETATM   31  C   UNL     1     -42.296  54.031 -51.426  1.00  0.00     0.034 C 
ENDBRANCH  29  30
ENDBRANCH  24  29
ENDBRANCH   1  23
BRANCH  10  32
HETATM   32  C   UNL     1     -45.759  59.746 -50.486  1.00  0.00     0.256 C 
HETATM   33  N   UNL     1     -45.477  61.013 -50.028  1.00  0.00    -0.323 N 
HETATM   34  H   UNL     1     -45.100  61.680 -50.688  1.00  0.00     0.169 HD
HETATM   35  O   UNL     1     -46.326  58.857 -49.860  1.00  0.00    -0.267 OA
BRANCH  33  36
HETATM   36  C   UNL     1     -45.587  61.488 -48.702  1.00  0.00     0.035 A 
HETATM   37  C   UNL     1     -44.775  61.067 -47.648  1.00  0.00     0.029 A 
HETATM   38  C   UNL     1     -44.919  61.626 -46.373  1.00  0.00     0.002 A 
HETATM   39  C   UNL     1     -45.872  62.616 -46.144  1.00  0.00     0.000 A 
HETATM   40  C   UNL     1     -46.690  63.041 -47.186  1.00  0.00     0.002 A 
HETATM   41  C   UNL     1     -46.553  62.475 -48.457  1.00  0.00     0.029 A 
ENDBRANCH  33  36
ENDBRANCH  10  32
TORSDOF 7
ENDMDL
