MODEL 1
REMARK VINA RESULT:      -8.6      0.000      0.000
REMARK  6 active torsions:
REMARK  status: ('A' for Active; 'I' for Inactive)
REMARK    1  A    between atoms: C_2  and  O_3 
REMARK    2  A    between atoms: C_2  and  C_4 
REMARK    3  A    between atoms: C_6  and  N_7 
REMARK       I    between atoms: N_7  and  C_8 
REMARK    4  A    between atoms: C_8  and  C_9 
REMARK    5  A    between atoms: C_14  and  C_15 
REMARK    6  A    between atoms: C_21  and  C_22 
ROOT
HETATM    1  C   UNL     1     -43.002  56.053 -55.389  1.00  0.00     0.148 A 
HETATM    2  N   UNL     1     -42.733  55.904 -56.706  1.00  0.00    -0.165 NA
HETATM    3  N   UNL     1     -43.157  57.059 -57.250  1.00  0.00    -0.240 N 
HETATM    4  C   UNL     1     -43.613  57.965 -56.328  1.00  0.00     0.123 A 
HETATM    5  N   UNL     1     -44.058  59.186 -56.695  1.00  0.00    -0.364 N 
HETATM    6  C   UNL     1     -43.913  59.673 -58.067  1.00  0.00     0.143 C 
HETATM    7  C   UNL     1     -44.004  58.492 -59.047  1.00  0.00     0.068 C 
HETATM    8  C   UNL     1     -43.034  57.355 -58.668  1.00  0.00     0.221 C 
HETATM    9  C   UNL     1     -43.522  57.345 -55.111  1.00  0.00     0.089 A 
HETATM   10  H   UNL     1     -44.227  59.909 -55.997  1.00  0.00     0.162 HD
ENDROOT
BRANCH   1  11
HETATM   11  C   UNL     1     -42.783  54.966 -54.415  1.00  0.00     0.276 C 
HETATM   12  N   UNL     1     -41.440  54.747 -54.179  1.00  0.00    -0.322 N 
HETATM   13  H   UNL     1     -40.830  55.393 -54.677  1.00  0.00     0.169 HD
HETATM   14  O   UNL     1     -43.724  54.355 -53.923  1.00  0.00    -0.266 OA
BRANCH  12  15
HETATM   15  C   UNL     1     -40.842  53.749 -53.391  1.00  0.00     0.035 A 
HETATM   16  C   UNL     1     -40.416  52.515 -53.891  1.00  0.00     0.039 A 
HETATM   17  C   UNL     1     -39.802  51.565 -53.055  1.00  0.00    -0.028 A 
HETATM   18  C   UNL     1     -39.634  51.866 -51.697  1.00  0.00     0.010 A 
HETATM   19  C   UNL     1     -40.055  53.093 -51.189  1.00  0.00     0.003 A 
HETATM   20  C   UNL     1     -40.653  54.030 -52.033  1.00  0.00     0.029 A 
BRANCH  17  21
HETATM   21  C   UNL     1     -39.351  50.237 -53.626  1.00  0.00     0.147 C 
HETATM   22  C   UNL     1     -40.109  49.867 -54.893  1.00  0.00     0.044 C 
BRANCH  21  23
HETATM   23  O   UNL     1     -39.532  49.200 -52.662  1.00  0.00    -0.391 OA
HETATM   24  H   UNL     1     -40.287  49.462 -52.108  1.00  0.00     0.210 HD
ENDBRANCH  21  23
ENDBRANCH  17  21
ENDBRANCH  12  15
ENDBRANCH   1  11
BRANCH   8  25
HETATM   25  C   UNL     1     -43.303  56.145 -59.534  1.00  0.00     0.409 C 
HETATM   26  F   UNL     1     -42.187  55.444 -59.832  1.00  0.00    -0.169 F 
HETATM   27  F   UNL     1     -44.200  55.298 -58.979  1.00  0.00    -0.169 F 
HETATM   28  F   UNL     1     -43.828  56.539 -60.725  1.00  0.00    -0.169 F 
ENDBRANCH   8  25
BRANCH   6  29
HETATM   29  C   UNL     1     -42.691  60.499 -58.317  1.00  0.00     0.075 A 
HETATM   30  O   UNL     1     -42.465  60.856 -59.616  1.00  0.00    -0.325 OA
HETATM   31  C   UNL     1     -41.333  61.605 -59.633  1.00  0.00     0.142 A 
HETATM   32  C   UNL     1     -40.819  61.727 -58.363  1.00  0.00     0.027 A 
HETATM   33  C   UNL     1     -41.695  61.013 -57.511  1.00  0.00     0.037 A 
ENDBRANCH   6  29
TORSDOF 6
ENDMDL
MODEL 2
REMARK VINA RESULT:      -8.3      2.696      3.680
REMARK  6 active torsions:
REMARK  status: ('A' for Active; 'I' for Inactive)
REMARK    1  A    between atoms: C_2  and  O_3 
REMARK    2  A    between atoms: C_2  and  C_4 
REMARK    3  A    between atoms: C_6  and  N_7 
REMARK       I    between atoms: N_7  and  C_8 
REMARK    4  A    between atoms: C_8  and  C_9 
REMARK    5  A    between atoms: C_14  and  C_15 
REMARK    6  A    between atoms: C_21  and  C_22 
ROOT
HETATM    1  C   UNL     1     -43.146  55.773 -55.338  1.00  0.00     0.148 A 
HETATM    2  N   UNL     1     -43.964  56.844 -55.222  1.00  0.00    -0.165 NA
HETATM    3  N   UNL     1     -43.981  57.367 -56.461  1.00  0.00    -0.240 N 
HETATM    4  C   UNL     1     -43.273  56.633 -57.376  1.00  0.00     0.123 A 
HETATM    5  N   UNL     1     -43.199  57.000 -58.673  1.00  0.00    -0.364 N 
HETATM    6  C   UNL     1     -44.011  58.094 -59.207  1.00  0.00     0.143 C 
HETATM    7  C   UNL     1     -44.230  59.155 -58.117  1.00  0.00     0.068 C 
HETATM    8  C   UNL     1     -44.772  58.536 -56.813  1.00  0.00     0.221 C 
HETATM    9  C   UNL     1     -42.722  55.591 -56.681  1.00  0.00     0.089 A 
HETATM   10  H   UNL     1     -42.822  56.362 -59.373  1.00  0.00     0.162 HD
ENDROOT
BRANCH   1  11
HETATM   11  C   UNL     1     -42.761  54.949 -54.175  1.00  0.00     0.276 C 
HETATM   12  N   UNL     1     -41.503  54.399 -54.326  1.00  0.00    -0.322 N 
HETATM   13  H   UNL     1     -41.036  54.684 -55.185  1.00  0.00     0.169 HD
HETATM   14  O   UNL     1     -43.521  54.795 -53.227  1.00  0.00    -0.266 OA
BRANCH  12  15
HETATM   15  C   UNL     1     -40.836  53.496 -53.480  1.00  0.00     0.035 A 
HETATM   16  C   UNL     1     -40.381  52.239 -53.889  1.00  0.00     0.039 A 
HETATM   17  C   UNL     1     -39.699  51.389 -53.001  1.00  0.00    -0.028 A 
HETATM   18  C   UNL     1     -39.492  51.814 -51.682  1.00  0.00     0.010 A 
HETATM   19  C   UNL     1     -39.942  53.065 -51.265  1.00  0.00     0.003 A 
HETATM   20  C   UNL     1     -40.608  53.902 -52.161  1.00  0.00     0.029 A 
BRANCH  17  21
HETATM   21  C   UNL     1     -39.218  50.034 -53.474  1.00  0.00     0.147 C 
HETATM   22  C   UNL     1     -39.813  49.648 -54.820  1.00  0.00     0.044 C 
BRANCH  21  23
HETATM   23  O   UNL     1     -39.555  49.030 -52.516  1.00  0.00    -0.391 OA
HETATM   24  H   UNL     1     -39.194  49.327 -51.663  1.00  0.00     0.210 HD
ENDBRANCH  21  23
ENDBRANCH  17  21
ENDBRANCH  12  15
ENDBRANCH   1  11
BRANCH   8  25
HETATM   25  C   UNL     1     -44.778  59.577 -55.716  1.00  0.00     0.409 C 
HETATM   26  F   UNL     1     -45.596  59.265 -54.688  1.00  0.00    -0.169 F 
HETATM   27  F   UNL     1     -43.543  59.816 -55.220  1.00  0.00    -0.169 F 
HETATM   28  F   UNL     1     -45.232  60.761 -56.210  1.00  0.00    -0.169 F 
ENDBRANCH   8  25
BRANCH   6  29
HETATM   29  C   UNL     1     -45.305  57.672 -59.828  1.00  0.00     0.075 A 
HETATM   30  O   UNL     1     -45.503  56.326 -59.946  1.00  0.00    -0.325 OA
HETATM   31  C   UNL     1     -46.725  56.150 -60.511  1.00  0.00     0.142 A 
HETATM   32  C   UNL     1     -47.315  57.364 -60.769  1.00  0.00     0.027 A 
HETATM   33  C   UNL     1     -46.399  58.350 -60.328  1.00  0.00     0.037 A 
ENDBRANCH   6  29
TORSDOF 6
ENDMDL
MODEL 3
REMARK VINA RESULT:      -8.0      1.406      2.316
REMARK  6 active torsions:
REMARK  status: ('A' for Active; 'I' for Inactive)
REMARK    1  A    between atoms: C_2  and  O_3 
REMARK    2  A    between atoms: C_2  and  C_4 
REMARK    3  A    between atoms: C_6  and  N_7 
REMARK       I    between atoms: N_7  and  C_8 
REMARK    4  A    between atoms: C_8  and  C_9 
REMARK    5  A    between atoms: C_14  and  C_15 
REMARK    6  A    between atoms: C_21  and  C_22 
ROOT
HETATM    1  C   UNL     1     -43.240  56.325 -55.665  1.00  0.00     0.148 A 
HETATM    2  N   UNL     1     -43.059  56.116 -56.989  1.00  0.00    -0.165 NA
HETATM    3  N   UNL     1     -43.459  57.271 -57.552  1.00  0.00    -0.240 N 
HETATM    4  C   UNL     1     -43.813  58.231 -56.641  1.00  0.00     0.123 A 
HETATM    5  N   UNL     1     -44.221  59.459 -57.028  1.00  0.00    -0.364 N 
HETATM    6  C   UNL     1     -44.137  59.888 -58.423  1.00  0.00     0.143 C 
HETATM    7  C   UNL     1     -44.344  58.679 -59.350  1.00  0.00     0.068 C 
HETATM    8  C   UNL     1     -43.409  57.509 -58.985  1.00  0.00     0.221 C 
HETATM    9  C   UNL     1     -43.679  57.651 -55.408  1.00  0.00     0.089 A 
HETATM   10  H   UNL     1     -44.312  60.214 -56.349  1.00  0.00     0.162 HD
ENDROOT
BRANCH   1  11
HETATM   11  C   UNL     1     -43.015  55.264 -54.665  1.00  0.00     0.276 C 
HETATM   12  N   UNL     1     -41.684  55.165 -54.308  1.00  0.00    -0.322 N 
HETATM   13  H   UNL     1     -41.091  55.860 -54.757  1.00  0.00     0.169 HD
HETATM   14  O   UNL     1     -43.939  54.574 -54.253  1.00  0.00    -0.266 OA
BRANCH  12  15
HETATM   15  C   UNL     1     -41.074  54.225 -53.459  1.00  0.00     0.035 A 
HETATM   16  C   UNL     1     -40.947  54.393 -52.078  1.00  0.00     0.039 A 
HETATM   17  C   UNL     1     -40.348  53.404 -51.278  1.00  0.00    -0.028 A 
HETATM   18  C   UNL     1     -39.859  52.241 -51.890  1.00  0.00     0.010 A 
HETATM   19  C   UNL     1     -39.981  52.065 -53.267  1.00  0.00     0.003 A 
HETATM   20  C   UNL     1     -40.589  53.051 -54.046  1.00  0.00     0.029 A 
BRANCH  17  21
HETATM   21  C   UNL     1     -40.225  53.614 -49.784  1.00  0.00     0.147 C 
HETATM   22  C   UNL     1     -41.401  54.390 -49.212  1.00  0.00     0.044 C 
BRANCH  21  23
HETATM   23  O   UNL     1     -39.019  54.317 -49.483  1.00  0.00    -0.391 OA
HETATM   24  H   UNL     1     -39.124  55.216 -49.840  1.00  0.00     0.210 HD
ENDBRANCH  21  23
ENDBRANCH  17  21
ENDBRANCH  12  15
ENDBRANCH   1  11
BRANCH   8  25
HETATM   25  C   UNL     1     -43.788  56.283 -59.786  1.00  0.00     0.409 C 
HETATM   26  F   UNL     1     -42.774  55.401 -59.924  1.00  0.00    -0.169 F 
HETATM   27  F   UNL     1     -44.851  55.630 -59.263  1.00  0.00    -0.169 F 
HETATM   28  F   UNL     1     -44.141  56.650 -61.047  1.00  0.00    -0.169 F 
ENDBRANCH   8  25
BRANCH   6  29
HETATM   29  C   UNL     1     -42.893  60.642 -58.777  1.00  0.00     0.075 A 
HETATM   30  O   UNL     1     -42.144  61.090 -57.726  1.00  0.00    -0.325 OA
HETATM   31  C   UNL     1     -41.065  61.726 -58.248  1.00  0.00     0.142 A 
HETATM   32  C   UNL     1     -41.111  61.704 -59.621  1.00  0.00     0.027 A 
HETATM   33  C   UNL     1     -42.292  61.004 -59.966  1.00  0.00     0.037 A 
ENDBRANCH   6  29
TORSDOF 6
ENDMDL
MODEL 4
REMARK VINA RESULT:      -7.9      2.657      4.184
REMARK  6 active torsions:
REMARK  status: ('A' for Active; 'I' for Inactive)
REMARK    1  A    between atoms: C_2  and  O_3 
REMARK    2  A    between atoms: C_2  and  C_4 
REMARK    3  A    between atoms: C_6  and  N_7 
REMARK       I    between atoms: N_7  and  C_8 
REMARK    4  A    between atoms: C_8  and  C_9 
REMARK    5  A    between atoms: C_14  and  C_15 
REMARK    6  A    between atoms: C_21  and  C_22 
ROOT
HETATM    1  C   UNL     1     -42.873  55.698 -55.746  1.00  0.00     0.148 A 
HETATM    2  N   UNL     1     -43.236  56.987 -55.929  1.00  0.00    -0.165 NA
HETATM    3  N   UNL     1     -43.360  57.098 -57.264  1.00  0.00    -0.240 N 
HETATM    4  C   UNL     1     -43.167  55.917 -57.932  1.00  0.00     0.123 A 
HETATM    5  N   UNL     1     -43.273  55.837 -59.275  1.00  0.00    -0.364 N 
HETATM    6  C   UNL     1     -43.772  56.959 -60.071  1.00  0.00     0.143 C 
HETATM    7  C   UNL     1     -43.368  58.285 -59.407  1.00  0.00     0.068 C 
HETATM    8  C   UNL     1     -43.772  58.328 -57.919  1.00  0.00     0.221 C 
HETATM    9  C   UNL     1     -42.853  54.988 -56.976  1.00  0.00     0.089 A 
HETATM   10  H   UNL     1     -43.302  54.931 -59.741  1.00  0.00     0.162 HD
ENDROOT
BRANCH   1  11
HETATM   11  C   UNL     1     -42.531  55.159 -54.415  1.00  0.00     0.276 C 
HETATM   12  N   UNL     1     -41.405  54.359 -54.456  1.00  0.00    -0.322 N 
HETATM   13  H   UNL     1     -40.978  54.308 -55.378  1.00  0.00     0.169 HD
HETATM   14  O   UNL     1     -43.217  55.414 -53.432  1.00  0.00    -0.266 OA
BRANCH  12  15
HETATM   15  C   UNL     1     -40.830  53.607 -53.417  1.00  0.00     0.035 A 
HETATM   16  C   UNL     1     -40.847  53.995 -52.074  1.00  0.00     0.039 A 
HETATM   17  C   UNL     1     -40.275  53.186 -51.077  1.00  0.00    -0.028 A 
HETATM   18  C   UNL     1     -39.666  51.980 -51.449  1.00  0.00     0.010 A 
HETATM   19  C   UNL     1     -39.644  51.584 -52.786  1.00  0.00     0.003 A 
HETATM   20  C   UNL     1     -40.227  52.393 -53.763  1.00  0.00     0.029 A 
BRANCH  17  21
HETATM   21  C   UNL     1     -40.309  53.634 -49.631  1.00  0.00     0.147 C 
HETATM   22  C   UNL     1     -41.471  54.573 -49.345  1.00  0.00     0.044 C 
BRANCH  21  23
HETATM   23  O   UNL     1     -39.089  54.293 -49.291  1.00  0.00    -0.391 OA
HETATM   24  H   UNL     1     -39.185  55.220 -49.571  1.00  0.00     0.210 HD
ENDBRANCH  21  23
ENDBRANCH  17  21
ENDBRANCH  12  15
ENDBRANCH   1  11
BRANCH   8  25
HETATM   25  C   UNL     1     -43.179  59.555 -57.264  1.00  0.00     0.409 C 
HETATM   26  F   UNL     1     -41.867  59.423 -56.973  1.00  0.00    -0.169 F 
HETATM   27  F   UNL     1     -43.338  60.671 -58.011  1.00  0.00    -0.169 F 
HETATM   28  F   UNL     1     -43.804  59.791 -56.079  1.00  0.00    -0.169 F 
ENDBRANCH   8  25
BRANCH   6  29
HETATM   29  C   UNL     1     -45.238  56.920 -60.366  1.00  0.00     0.075 A 
HETATM   30  O   UNL     1     -45.874  58.128 -60.409  1.00  0.00    -0.325 OA
HETATM   31  C   UNL     1     -47.176  57.884 -60.702  1.00  0.00     0.142 A 
HETATM   32  C   UNL     1     -47.393  56.534 -60.839  1.00  0.00     0.027 A 
HETATM   33  C   UNL     1     -46.142  55.908 -60.622  1.00  0.00     0.037 A 
ENDBRANCH   6  29
TORSDOF 6
ENDMDL
MODEL 5
REMARK VINA RESULT:      -7.8      3.433      9.243
REMARK  6 active torsions:
REMARK  status: ('A' for Active; 'I' for Inactive)
REMARK    1  A    between atoms: C_2  and  O_3 
REMARK    2  A    between atoms: C_2  and  C_4 
REMARK    3  A    between atoms: C_6  and  N_7 
REMARK       I    between atoms: N_7  and  C_8 
REMARK    4  A    between atoms: C_8  and  C_9 
REMARK    5  A    between atoms: C_14  and  C_15 
REMARK    6  A    between atoms: C_21  and  C_22 
ROOT
HETATM    1  C   UNL     1     -42.783  57.809 -55.441  1.00  0.00     0.148 A 
HETATM    2  N   UNL     1     -41.941  57.891 -54.387  1.00  0.00    -0.165 NA
HETATM    3  N   UNL     1     -42.145  56.738 -53.725  1.00  0.00    -0.240 N 
HETATM    4  C   UNL     1     -43.024  55.894 -54.352  1.00  0.00     0.123 A 
HETATM    5  N   UNL     1     -43.333  54.684 -53.839  1.00  0.00    -0.364 N 
HETATM    6  C   UNL     1     -42.616  54.136 -52.687  1.00  0.00     0.143 C 
HETATM    7  C   UNL     1     -42.180  55.279 -51.757  1.00  0.00     0.068 C 
HETATM    8  C   UNL     1     -41.415  56.380 -52.520  1.00  0.00     0.221 C 
HETATM    9  C   UNL     1     -43.454  56.557 -55.470  1.00  0.00     0.089 A 
HETATM   10  H   UNL     1     -43.844  53.999 -54.394  1.00  0.00     0.162 HD
ENDROOT
BRANCH   1  11
HETATM   11  C   UNL     1     -42.959  58.921 -56.395  1.00  0.00     0.276 C 
HETATM   12  N   UNL     1     -42.034  58.873 -57.420  1.00  0.00    -0.322 N 
HETATM   13  H   UNL     1     -41.419  58.064 -57.373  1.00  0.00     0.169 HD
HETATM   14  O   UNL     1     -43.829  59.768 -56.230  1.00  0.00    -0.266 OA
BRANCH  12  15
HETATM   15  C   UNL     1     -41.830  59.800 -58.458  1.00  0.00     0.035 A 
HETATM   16  C   UNL     1     -41.291  61.075 -58.266  1.00  0.00     0.039 A 
HETATM   17  C   UNL     1     -41.088  61.948 -59.349  1.00  0.00    -0.028 A 
HETATM   18  C   UNL     1     -41.452  61.528 -60.635  1.00  0.00     0.010 A 
HETATM   19  C   UNL     1     -41.991  60.259 -60.836  1.00  0.00     0.003 A 
HETATM   20  C   UNL     1     -42.176  59.399 -59.753  1.00  0.00     0.029 A 
BRANCH  17  21
HETATM   21  C   UNL     1     -40.501  63.323 -59.109  1.00  0.00     0.147 C 
HETATM   22  C   UNL     1     -39.077  63.441 -59.633  1.00  0.00     0.044 C 
BRANCH  21  23
HETATM   23  O   UNL     1     -40.505  63.624 -57.714  1.00  0.00    -0.391 OA
HETATM   24  H   UNL     1     -41.428  63.553 -57.416  1.00  0.00     0.210 HD
ENDBRANCH  21  23
ENDBRANCH  17  21
ENDBRANCH  12  15
ENDBRANCH   1  11
BRANCH   8  25
HETATM   25  C   UNL     1     -41.187  57.567 -51.611  1.00  0.00     0.409 C 
HETATM   26  F   UNL     1     -40.205  58.388 -52.041  1.00  0.00    -0.169 F 
HETATM   27  F   UNL     1     -42.306  58.304 -51.428  1.00  0.00    -0.169 F 
HETATM   28  F   UNL     1     -40.803  57.135 -50.380  1.00  0.00    -0.169 F 
ENDBRANCH   8  25
BRANCH   6  29
HETATM   29  C   UNL     1     -41.467  53.240 -53.028  1.00  0.00     0.075 A 
HETATM   30  O   UNL     1     -40.698  52.826 -51.978  1.00  0.00    -0.325 OA
HETATM   31  C   UNL     1     -39.730  52.020 -52.485  1.00  0.00     0.142 A 
HETATM   32  C   UNL     1     -39.859  51.915 -53.849  1.00  0.00     0.027 A 
HETATM   33  C   UNL     1     -40.981  52.702 -54.203  1.00  0.00     0.037 A 
ENDBRANCH   6  29
TORSDOF 6
ENDMDL
MODEL 6
REMARK VINA RESULT:      -7.7      5.086      6.501
REMARK  6 active torsions:
REMARK  status: ('A' for Active; 'I' for Inactive)
REMARK    1  A    between atoms: C_2  and  O_3 
REMARK    2  A    between atoms: C_2  and  C_4 
REMARK    3  A    between atoms: C_6  and  N_7 
REMARK       I    between atoms: N_7  and  C_8 
REMARK    4  A    between atoms: C_8  and  C_9 
REMARK    5  A    between atoms: C_14  and  C_15 
REMARK    6  A    between atoms: C_21  and  C_22 
ROOT
HETATM    1  C   UNL     1     -42.631  57.550 -52.532  1.00  0.00     0.148 A 
HETATM    2  N   UNL     1     -42.589  58.870 -52.821  1.00  0.00    -0.165 NA
HETATM    3  N   UNL     1     -43.712  59.355 -52.261  1.00  0.00    -0.240 N 
HETATM    4  C   UNL     1     -44.427  58.416 -51.565  1.00  0.00     0.123 A 
HETATM    5  N   UNL     1     -45.571  58.731 -50.921  1.00  0.00    -0.364 N 
HETATM    6  C   UNL     1     -46.015  60.118 -50.784  1.00  0.00     0.143 C 
HETATM    7  C   UNL     1     -45.575  60.927 -52.015  1.00  0.00     0.068 C 
HETATM    8  C   UNL     1     -44.068  60.764 -52.300  1.00  0.00     0.221 C 
HETATM    9  C   UNL     1     -43.751  57.236 -51.717  1.00  0.00     0.089 A 
HETATM   10  H   UNL     1     -45.997  58.076 -50.268  1.00  0.00     0.162 HD
ENDROOT
BRANCH   1  11
HETATM   11  C   UNL     1     -41.624  56.601 -53.045  1.00  0.00     0.276 C 
HETATM   12  N   UNL     1     -41.975  55.289 -52.794  1.00  0.00    -0.322 N 
HETATM   13  H   UNL     1     -42.880  55.192 -52.339  1.00  0.00     0.169 HD
HETATM   14  O   UNL     1     -40.607  56.995 -53.604  1.00  0.00    -0.266 OA
BRANCH  12  15
HETATM   15  C   UNL     1     -41.235  54.122 -53.049  1.00  0.00     0.035 A 
HETATM   16  C   UNL     1     -40.765  53.265 -52.050  1.00  0.00     0.039 A 
HETATM   17  C   UNL     1     -40.050  52.098 -52.370  1.00  0.00    -0.028 A 
HETATM   18  C   UNL     1     -39.797  51.807 -53.718  1.00  0.00     0.010 A 
HETATM   19  C   UNL     1     -40.262  52.655 -54.722  1.00  0.00     0.003 A 
HETATM   20  C   UNL     1     -40.980  53.804 -54.388  1.00  0.00     0.029 A 
BRANCH  17  21
HETATM   21  C   UNL     1     -39.553  51.189 -51.266  1.00  0.00     0.147 C 
HETATM   22  C   UNL     1     -39.602  49.721 -51.661  1.00  0.00     0.044 C 
BRANCH  21  23
HETATM   23  O   UNL     1     -40.337  51.375 -50.086  1.00  0.00    -0.391 OA
HETATM   24  H   UNL     1     -39.827  51.963 -49.503  1.00  0.00     0.210 HD
ENDBRANCH  21  23
ENDBRANCH  17  21
ENDBRANCH  12  15
ENDBRANCH   1  11
BRANCH   8  25
HETATM   25  C   UNL     1     -43.726  61.408 -53.625  1.00  0.00     0.409 C 
HETATM   26  F   UNL     1     -44.406  62.553 -53.854  1.00  0.00    -0.169 F 
HETATM   27  F   UNL     1     -42.405  61.666 -53.752  1.00  0.00    -0.169 F 
HETATM   28  F   UNL     1     -44.056  60.567 -54.642  1.00  0.00    -0.169 F 
ENDBRANCH   8  25
BRANCH   6  29
HETATM   29  C   UNL     1     -45.601  60.789 -49.512  1.00  0.00     0.075 A 
HETATM   30  O   UNL     1     -45.960  60.156 -48.356  1.00  0.00    -0.325 OA
HETATM   31  C   UNL     1     -45.486  60.904 -47.328  1.00  0.00     0.142 A 
HETATM   32  C   UNL     1     -44.834  62.017 -47.803  1.00  0.00     0.027 A 
HETATM   33  C   UNL     1     -44.907  61.946 -49.215  1.00  0.00     0.037 A 
ENDBRANCH   6  29
TORSDOF 6
ENDMDL
MODEL 7
REMARK VINA RESULT:      -7.7     15.809     18.491
REMARK  6 active torsions:
REMARK  status: ('A' for Active; 'I' for Inactive)
REMARK    1  A    between atoms: C_2  and  O_3 
REMARK    2  A    between atoms: C_2  and  C_4 
REMARK    3  A    between atoms: C_6  and  N_7 
REMARK       I    between atoms: N_7  and  C_8 
REMARK    4  A    between atoms: C_8  and  C_9 
REMARK    5  A    between atoms: C_14  and  C_15 
REMARK    6  A    between atoms: C_21  and  C_22 
ROOT
HETATM    1  C   UNL     1     -36.929  41.083 -57.132  1.00  0.00     0.148 A 
HETATM    2  N   UNL     1     -35.845  40.441 -56.640  1.00  0.00    -0.165 NA
HETATM    3  N   UNL     1     -35.748  40.899 -55.379  1.00  0.00    -0.240 N 
HETATM    4  C   UNL     1     -36.766  41.744 -55.023  1.00  0.00     0.123 A 
HETATM    5  N   UNL     1     -36.840  42.283 -53.787  1.00  0.00    -0.364 N 
HETATM    6  C   UNL     1     -35.944  41.857 -52.712  1.00  0.00     0.143 C 
HETATM    7  C   UNL     1     -34.580  41.463 -53.301  1.00  0.00     0.068 C 
HETATM    8  C   UNL     1     -34.723  40.447 -54.452  1.00  0.00     0.221 C 
HETATM    9  C   UNL     1     -37.551  41.881 -56.136  1.00  0.00     0.089 A 
HETATM   10  H   UNL     1     -37.685  42.763 -53.479  1.00  0.00     0.162 HD
ENDROOT
BRANCH   1  11
HETATM   11  C   UNL     1     -37.350  40.948 -58.540  1.00  0.00     0.276 C 
HETATM   12  N   UNL     1     -37.726  39.655 -58.845  1.00  0.00    -0.322 N 
HETATM   13  H   UNL     1     -37.693  39.024 -58.047  1.00  0.00     0.169 HD
HETATM   14  O   UNL     1     -37.326  41.907 -59.304  1.00  0.00    -0.266 OA
BRANCH  12  15
HETATM   15  C   UNL     1     -38.098  39.124 -60.093  1.00  0.00     0.035 A 
HETATM   16  C   UNL     1     -39.366  38.605 -60.370  1.00  0.00     0.039 A 
HETATM   17  C   UNL     1     -39.684  38.110 -61.647  1.00  0.00    -0.028 A 
HETATM   18  C   UNL     1     -38.701  38.127 -62.645  1.00  0.00     0.010 A 
HETATM   19  C   UNL     1     -37.434  38.642 -62.378  1.00  0.00     0.003 A 
HETATM   20  C   UNL     1     -37.136  39.141 -61.109  1.00  0.00     0.029 A 
BRANCH  17  21
HETATM   21  C   UNL     1     -41.067  37.554 -61.917  1.00  0.00     0.147 C 
HETATM   22  C   UNL     1     -41.509  37.782 -63.355  1.00  0.00     0.044 C 
BRANCH  21  23
HETATM   23  O   UNL     1     -42.020  38.158 -61.041  1.00  0.00    -0.391 OA
HETATM   24  H   UNL     1     -41.819  37.834 -60.146  1.00  0.00     0.210 HD
ENDBRANCH  21  23
ENDBRANCH  17  21
ENDBRANCH  12  15
ENDBRANCH   1  11
BRANCH   8  25
HETATM   25  C   UNL     1     -33.385  40.247 -55.127  1.00  0.00     0.409 C 
HETATM   26  F   UNL     1     -33.232  39.014 -55.656  1.00  0.00    -0.169 F 
HETATM   27  F   UNL     1     -33.152  41.158 -56.099  1.00  0.00    -0.169 F 
HETATM   28  F   UNL     1     -32.385  40.391 -54.215  1.00  0.00    -0.169 F 
ENDBRANCH   8  25
BRANCH   6  29
HETATM   29  C   UNL     1     -36.489  40.781 -51.826  1.00  0.00     0.075 A 
HETATM   30  O   UNL     1     -37.668  40.218 -52.223  1.00  0.00    -0.325 OA
HETATM   31  C   UNL     1     -37.984  39.265 -51.309  1.00  0.00     0.142 A 
HETATM   32  C   UNL     1     -37.029  39.212 -50.322  1.00  0.00     0.027 A 
HETATM   33  C   UNL     1     -36.061  40.191 -50.654  1.00  0.00     0.037 A 
ENDBRANCH   6  29
TORSDOF 6
ENDMDL
MODEL 8
REMARK VINA RESULT:      -7.5      3.472      4.207
REMARK  6 active torsions:
REMARK  status: ('A' for Active; 'I' for Inactive)
REMARK    1  A    between atoms: C_2  and  O_3 
REMARK    2  A    between atoms: C_2  and  C_4 
REMARK    3  A    between atoms: C_6  and  N_7 
REMARK       I    between atoms: N_7  and  C_8 
REMARK    4  A    between atoms: C_8  and  C_9 
REMARK    5  A    between atoms: C_14  and  C_15 
REMARK    6  A    between atoms: C_21  and  C_22 
ROOT
HETATM    1  C   UNL     1     -42.082  56.299 -54.872  1.00  0.00     0.148 A 
HETATM    2  N   UNL     1     -43.102  56.683 -54.071  1.00  0.00    -0.165 NA
HETATM    3  N   UNL     1     -43.589  57.780 -54.679  1.00  0.00    -0.240 N 
HETATM    4  C   UNL     1     -42.973  58.066 -55.869  1.00  0.00     0.123 A 
HETATM    5  N   UNL     1     -43.347  59.121 -56.625  1.00  0.00    -0.364 N 
HETATM    6  C   UNL     1     -44.540  59.906 -56.306  1.00  0.00     0.143 C 
HETATM    7  C   UNL     1     -44.747  59.936 -54.783  1.00  0.00     0.068 C 
HETATM    8  C   UNL     1     -44.734  58.520 -54.173  1.00  0.00     0.221 C 
HETATM    9  C   UNL     1     -41.994  57.123 -56.025  1.00  0.00     0.089 A 
HETATM   10  H   UNL     1     -43.008  59.222 -57.580  1.00  0.00     0.162 HD
ENDROOT
BRANCH   1  11
HETATM   11  C   UNL     1     -41.193  55.173 -54.526  1.00  0.00     0.276 C 
HETATM   12  N   UNL     1     -41.643  54.482 -53.417  1.00  0.00    -0.322 N 
HETATM   13  H   UNL     1     -42.526  54.833 -53.052  1.00  0.00     0.169 HD
HETATM   14  O   UNL     1     -40.179  54.942 -55.174  1.00  0.00    -0.266 OA
BRANCH  12  15
HETATM   15  C   UNL     1     -41.024  53.417 -52.741  1.00  0.00     0.035 A 
HETATM   16  C   UNL     1     -40.471  52.305 -53.383  1.00  0.00     0.039 A 
HETATM   17  C   UNL     1     -39.843  51.282 -52.652  1.00  0.00    -0.028 A 
HETATM   18  C   UNL     1     -39.790  51.382 -51.255  1.00  0.00     0.010 A 
HETATM   19  C   UNL     1     -40.339  52.486 -50.606  1.00  0.00     0.003 A 
HETATM   20  C   UNL     1     -40.949  53.499 -51.346  1.00  0.00     0.029 A 
BRANCH  17  21
HETATM   21  C   UNL     1     -39.253  50.090 -53.376  1.00  0.00     0.147 C 
HETATM   22  C   UNL     1     -39.900  49.862 -54.733  1.00  0.00     0.044 C 
BRANCH  21  23
HETATM   23  O   UNL     1     -39.407  48.909 -52.588  1.00  0.00    -0.391 OA
HETATM   24  H   UNL     1     -40.362  48.793 -52.444  1.00  0.00     0.210 HD
ENDBRANCH  21  23
ENDBRANCH  17  21
ENDBRANCH  12  15
ENDBRANCH   1  11
BRANCH   8  25
HETATM   25  C   UNL     1     -44.737  58.613 -52.664  1.00  0.00     0.409 C 
HETATM   26  F   UNL     1     -45.582  59.555 -52.189  1.00  0.00    -0.169 F 
HETATM   27  F   UNL     1     -45.038  57.436 -52.071  1.00  0.00    -0.169 F 
HETATM   28  F   UNL     1     -43.499  58.963 -52.223  1.00  0.00    -0.169 F 
ENDBRANCH   8  25
BRANCH   6  29
HETATM   29  C   UNL     1     -45.784  59.480 -57.019  1.00  0.00     0.075 A 
HETATM   30  O   UNL     1     -46.740  60.443 -57.183  1.00  0.00    -0.325 OA
HETATM   31  C   UNL     1     -47.771  59.871 -57.856  1.00  0.00     0.142 A 
HETATM   32  C   UNL     1     -47.498  58.550 -58.121  1.00  0.00     0.027 A 
HETATM   33  C   UNL     1     -46.214  58.295 -57.581  1.00  0.00     0.037 A 
ENDBRANCH   6  29
TORSDOF 6
ENDMDL
MODEL 9
REMARK VINA RESULT:      -7.5      6.147      8.954
REMARK  6 active torsions:
REMARK  status: ('A' for Active; 'I' for Inactive)
REMARK    1  A    between atoms: C_2  and  O_3 
REMARK    2  A    between atoms: C_2  and  C_4 
REMARK    3  A    between atoms: C_6  and  N_7 
REMARK       I    between atoms: N_7  and  C_8 
REMARK    4  A    between atoms: C_8  and  C_9 
REMARK    5  A    between atoms: C_14  and  C_15 
REMARK    6  A    between atoms: C_21  and  C_22 
ROOT
HETATM    1  C   UNL     1     -44.284  58.550 -51.502  1.00  0.00     0.148 A 
HETATM    2  N   UNL     1     -44.668  58.046 -52.696  1.00  0.00    -0.165 NA
HETATM    3  N   UNL     1     -43.512  57.664 -53.268  1.00  0.00    -0.240 N 
HETATM    4  C   UNL     1     -42.418  57.833 -52.460  1.00  0.00     0.123 A 
HETATM    5  N   UNL     1     -41.178  57.483 -52.864  1.00  0.00    -0.364 N 
HETATM    6  C   UNL     1     -40.958  56.746 -54.108  1.00  0.00     0.143 C 
HETATM    7  C   UNL     1     -42.022  57.148 -55.143  1.00  0.00     0.068 C 
HETATM    8  C   UNL     1     -43.450  57.028 -54.575  1.00  0.00     0.221 C 
HETATM    9  C   UNL     1     -42.885  58.402 -51.306  1.00  0.00     0.089 A 
HETATM   10  H   UNL     1     -40.406  57.448 -52.200  1.00  0.00     0.162 HD
ENDROOT
BRANCH   1  11
HETATM   11  C   UNL     1     -45.239  59.183 -50.572  1.00  0.00     0.276 C 
HETATM   12  N   UNL     1     -44.686  60.270 -49.923  1.00  0.00    -0.322 N 
HETATM   13  H   UNL     1     -43.735  60.478 -50.221  1.00  0.00     0.169 HD
HETATM   14  O   UNL     1     -46.371  58.737 -50.424  1.00  0.00    -0.266 OA
BRANCH  12  15
HETATM   15  C   UNL     1     -45.251  61.063 -48.910  1.00  0.00     0.035 A 
HETATM   16  C   UNL     1     -44.921  60.947 -47.557  1.00  0.00     0.039 A 
HETATM   17  C   UNL     1     -45.504  61.787 -46.592  1.00  0.00    -0.028 A 
HETATM   18  C   UNL     1     -46.441  62.744 -47.004  1.00  0.00     0.010 A 
HETATM   19  C   UNL     1     -46.776  62.868 -48.352  1.00  0.00     0.003 A 
HETATM   20  C   UNL     1     -46.181  62.034 -49.299  1.00  0.00     0.029 A 
BRANCH  17  21
HETATM   21  C   UNL     1     -45.126  61.637 -45.133  1.00  0.00     0.147 C 
HETATM   22  C   UNL     1     -44.667  62.951 -44.518  1.00  0.00     0.044 C 
BRANCH  21  23
HETATM   23  O   UNL     1     -44.083  60.672 -44.991  1.00  0.00    -0.391 OA
HETATM   24  H   UNL     1     -43.277  61.078 -45.354  1.00  0.00     0.210 HD
ENDBRANCH  21  23
ENDBRANCH  17  21
ENDBRANCH  12  15
ENDBRANCH   1  11
BRANCH   8  25
HETATM   25  C   UNL     1     -44.440  57.623 -55.551  1.00  0.00     0.409 C 
HETATM   26  F   UNL     1     -44.229  57.235 -56.828  1.00  0.00    -0.169 F 
HETATM   27  F   UNL     1     -45.722  57.340 -55.228  1.00  0.00    -0.169 F 
HETATM   28  F   UNL     1     -44.330  58.979 -55.548  1.00  0.00    -0.169 F 
ENDBRANCH   8  25
BRANCH   6  29
HETATM   29  C   UNL     1     -40.879  55.260 -53.955  1.00  0.00     0.075 A 
HETATM   30  O   UNL     1     -41.057  54.778 -52.689  1.00  0.00    -0.325 OA
HETATM   31  C   UNL     1     -40.966  53.425 -52.760  1.00  0.00     0.142 A 
HETATM   32  C   UNL     1     -40.721  53.028 -54.053  1.00  0.00     0.027 A 
HETATM   33  C   UNL     1     -40.664  54.212 -54.827  1.00  0.00     0.037 A 
ENDBRANCH   6  29
TORSDOF 6
ENDMDL
MODEL 10
REMARK VINA RESULT:      -7.3      4.777      9.415
REMARK  6 active torsions:
REMARK  status: ('A' for Active; 'I' for Inactive)
REMARK    1  A    between atoms: C_2  and  O_3 
REMARK    2  A    between atoms: C_2  and  C_4 
REMARK    3  A    between atoms: C_6  and  N_7 
REMARK       I    between atoms: N_7  and  C_8 
REMARK    4  A    between atoms: C_8  and  C_9 
REMARK    5  A    between atoms: C_14  and  C_15 
REMARK    6  A    between atoms: C_21  and  C_22 
ROOT
HETATM    1  C   UNL     1     -43.101  55.821 -51.353  1.00  0.00     0.148 A 
HETATM    2  N   UNL     1     -43.038  55.104 -52.498  1.00  0.00    -0.165 NA
HETATM    3  N   UNL     1     -41.858  54.465 -52.410  1.00  0.00    -0.240 N 
HETATM    4  C   UNL     1     -41.203  54.684 -51.226  1.00  0.00     0.123 A 
HETATM    5  N   UNL     1     -40.013  54.105 -50.957  1.00  0.00    -0.364 N 
HETATM    6  C   UNL     1     -39.446  53.080 -51.833  1.00  0.00     0.143 C 
HETATM    7  C   UNL     1     -39.858  53.356 -53.288  1.00  0.00     0.068 C 
HETATM    8  C   UNL     1     -41.382  53.542 -53.428  1.00  0.00     0.221 C 
HETATM    9  C   UNL     1     -41.984  55.555 -50.517  1.00  0.00     0.089 A 
HETATM   10  H   UNL     1     -39.623  54.132 -50.016  1.00  0.00     0.162 HD
ENDROOT
BRANCH   1  11
HETATM   11  C   UNL     1     -44.204  56.760 -51.074  1.00  0.00     0.276 C 
HETATM   12  N   UNL     1     -44.000  57.989 -51.673  1.00  0.00    -0.322 N 
HETATM   13  H   UNL     1     -43.153  58.029 -52.236  1.00  0.00     0.169 HD
HETATM   14  O   UNL     1     -45.153  56.435 -50.371  1.00  0.00    -0.266 OA
BRANCH  12  15
HETATM   15  C   UNL     1     -44.778  59.154 -51.564  1.00  0.00     0.035 A 
HETATM   16  C   UNL     1     -44.950  59.865 -50.373  1.00  0.00     0.039 A 
HETATM   17  C   UNL     1     -45.722  61.040 -50.333  1.00  0.00    -0.028 A 
HETATM   18  C   UNL     1     -46.337  61.486 -51.510  1.00  0.00     0.010 A 
HETATM   19  C   UNL     1     -46.171  60.784 -52.703  1.00  0.00     0.003 A 
HETATM   20  C   UNL     1     -45.392  59.626 -52.729  1.00  0.00     0.029 A 
BRANCH  17  21
HETATM   21  C   UNL     1     -45.890  61.788 -49.028  1.00  0.00     0.147 C 
HETATM   22  C   UNL     1     -44.629  62.539 -48.627  1.00  0.00     0.044 C 
BRANCH  21  23
HETATM   23  O   UNL     1     -46.239  60.882 -47.981  1.00  0.00    -0.391 OA
HETATM   24  H   UNL     1     -45.423  60.411 -47.737  1.00  0.00     0.210 HD
ENDBRANCH  21  23
ENDBRANCH  17  21
ENDBRANCH  12  15
ENDBRANCH   1  11
BRANCH   8  25
HETATM   25  C   UNL     1     -41.714  54.009 -54.827  1.00  0.00     0.409 C 
HETATM   26  F   UNL     1     -42.845  53.459 -55.319  1.00  0.00    -0.169 F 
HETATM   27  F   UNL     1     -41.822  55.354 -54.914  1.00  0.00    -0.169 F 
HETATM   28  F   UNL     1     -40.718  53.645 -55.680  1.00  0.00    -0.169 F 
ENDBRANCH   8  25
BRANCH   6  29
HETATM   29  C   UNL     1     -39.754  51.670 -51.435  1.00  0.00     0.075 A 
HETATM   30  O   UNL     1     -39.443  50.707 -52.353  1.00  0.00    -0.325 OA
HETATM   31  C   UNL     1     -39.780  49.511 -51.806  1.00  0.00     0.142 A 
HETATM   32  C   UNL     1     -40.313  49.690 -50.552  1.00  0.00     0.027 A 
HETATM   33  C   UNL     1     -40.298  51.084 -50.310  1.00  0.00     0.037 A 
ENDBRANCH   6  29
TORSDOF 6
ENDMDL
