MODEL 1
REMARK VINA RESULT:      -8.4      0.000      0.000
REMARK  3 active torsions:
REMARK  status: ('A' for Active; 'I' for Inactive)
REMARK    1  A    between atoms: C_2  and  C_3 
REMARK    2  A    between atoms: C_5  and  N_6 
REMARK       I    between atoms: N_6  and  C_7 
REMARK    3  A    between atoms: C_7  and  C_8 
ROOT
HETATM    1  C   UNL     1     -42.254  56.357 -54.642  1.00  0.00     0.155 A 
HETATM    2  N   UNL     1     -42.023  57.601 -54.157  1.00  0.00    -0.168 NA
HETATM    3  N   UNL     1     -42.084  58.396 -55.250  1.00  0.00    -0.276 N 
HETATM    4  H   UNL     1     -41.937  59.392 -55.132  1.00  0.00     0.189 HD
HETATM    5  C   UNL     1     -42.339  57.712 -56.394  1.00  0.00     0.074 A 
HETATM    6  C   UNL     1     -42.466  56.398 -56.039  1.00  0.00     0.031 A 
HETATM    7  C   UNL     1     -42.746  55.344 -57.039  1.00  0.00     0.219 A 
HETATM    8  O   UNL     1     -42.959  55.815 -58.401  1.00  0.00    -0.346 OA
HETATM    9  C   UNL     1     -42.771  57.147 -58.703  1.00  0.00     0.081 A 
HETATM   10  C   UNL     1     -42.465  58.150 -57.761  1.00  0.00     0.026 A 
HETATM   11  C   UNL     1     -42.910  57.484 -60.050  1.00  0.00     0.038 A 
HETATM   12  C   UNL     1     -42.741  58.807 -60.462  1.00  0.00     0.003 A 
HETATM   13  C   UNL     1     -42.435  59.798 -59.527  1.00  0.00     0.001 A 
HETATM   14  C   UNL     1     -42.297  59.473 -58.175  1.00  0.00     0.016 A 
ENDROOT
BRANCH   1  15
HETATM   15  C   UNL     1     -42.252  55.165 -53.773  1.00  0.00     0.277 C 
HETATM   16  N   UNL     1     -40.977  54.673 -53.585  1.00  0.00    -0.322 N 
HETATM   17  H   UNL     1     -40.262  55.221 -54.059  1.00  0.00     0.169 HD
HETATM   18  O   UNL     1     -43.294  54.714 -53.312  1.00  0.00    -0.266 OA
BRANCH  16  19
HETATM   19  C   UNL     1     -40.570  53.542 -52.859  1.00  0.00     0.035 A 
HETATM   20  C   UNL     1     -40.235  52.319 -53.447  1.00  0.00     0.036 A 
HETATM   21  C   UNL     1     -39.823  51.230 -52.660  1.00  0.00    -0.056 A 
HETATM   22  C   UNL     1     -39.762  51.374 -51.269  1.00  0.00     0.007 A 
HETATM   23  C   UNL     1     -40.095  52.589 -50.676  1.00  0.00     0.003 A 
HETATM   24  C   UNL     1     -40.495  53.668 -51.467  1.00  0.00     0.029 A 
BRANCH  21  25
HETATM   25  C   UNL     1     -39.474  49.915 -53.310  1.00  0.00     0.034 C 
HETATM   26  C   UNL     1     -39.943  49.856 -54.756  1.00  0.00     0.010 C 
ENDBRANCH  21  25
ENDBRANCH  16  19
ENDBRANCH   1  15
TORSDOF 3
ENDMDL
MODEL 2
REMARK VINA RESULT:      -8.2      1.741      2.324
REMARK  3 active torsions:
REMARK  status: ('A' for Active; 'I' for Inactive)
REMARK    1  A    between atoms: C_2  and  C_3 
REMARK    2  A    between atoms: C_5  and  N_6 
REMARK       I    between atoms: N_6  and  C_7 
REMARK    3  A    between atoms: C_7  and  C_8 
ROOT
HETATM    1  C   UNL     1     -42.554  55.908 -56.252  1.00  0.00     0.155 A 
HETATM    2  N   UNL     1     -42.847  55.426 -57.485  1.00  0.00    -0.168 NA
HETATM    3  N   UNL     1     -42.801  56.516 -58.283  1.00  0.00    -0.276 N 
HETATM    4  H   UNL     1     -42.993  56.400 -59.272  1.00  0.00     0.189 HD
HETATM    5  C   UNL     1     -42.496  57.657 -57.614  1.00  0.00     0.074 A 
HETATM    6  C   UNL     1     -42.318  57.301 -56.305  1.00  0.00     0.031 A 
HETATM    7  C   UNL     1     -41.975  58.297 -55.267  1.00  0.00     0.219 A 
HETATM    8  O   UNL     1     -41.758  59.655 -55.749  1.00  0.00    -0.346 OA
HETATM    9  C   UNL     1     -41.997  59.958 -57.072  1.00  0.00     0.081 A 
HETATM   10  C   UNL     1     -42.363  59.020 -58.059  1.00  0.00     0.026 A 
HETATM   11  C   UNL     1     -41.848  61.301 -57.417  1.00  0.00     0.038 A 
HETATM   12  C   UNL     1     -42.066  61.715 -58.733  1.00  0.00     0.003 A 
HETATM   13  C   UNL     1     -42.432  60.784 -59.707  1.00  0.00     0.001 A 
HETATM   14  C   UNL     1     -42.580  59.435 -59.374  1.00  0.00     0.016 A 
ENDROOT
BRANCH   1  15
HETATM   15  C   UNL     1     -42.521  55.041 -55.059  1.00  0.00     0.277 C 
HETATM   16  N   UNL     1     -41.238  54.630 -54.763  1.00  0.00    -0.322 N 
HETATM   17  H   UNL     1     -40.539  55.006 -55.402  1.00  0.00     0.169 HD
HETATM   18  O   UNL     1     -43.548  54.753 -54.455  1.00  0.00    -0.266 OA
BRANCH  16  19
HETATM   19  C   UNL     1     -40.804  53.776 -53.737  1.00  0.00     0.035 A 
HETATM   20  C   UNL     1     -40.376  52.462 -53.946  1.00  0.00     0.036 A 
HETATM   21  C   UNL     1     -39.942  51.665 -52.872  1.00  0.00    -0.056 A 
HETATM   22  C   UNL     1     -39.953  52.197 -51.578  1.00  0.00     0.007 A 
HETATM   23  C   UNL     1     -40.379  53.504 -51.361  1.00  0.00     0.003 A 
HETATM   24  C   UNL     1     -40.801  54.290 -52.435  1.00  0.00     0.029 A 
BRANCH  21  25
HETATM   25  C   UNL     1     -39.492  50.247 -53.115  1.00  0.00     0.034 C 
HETATM   26  C   UNL     1     -39.809  49.786 -54.530  1.00  0.00     0.010 C 
ENDBRANCH  21  25
ENDBRANCH  16  19
ENDBRANCH   1  15
TORSDOF 3
ENDMDL
MODEL 3
REMARK VINA RESULT:      -8.1      4.589      8.439
REMARK  3 active torsions:
REMARK  status: ('A' for Active; 'I' for Inactive)
REMARK    1  A    between atoms: C_2  and  C_3 
REMARK    2  A    between atoms: C_5  and  N_6 
REMARK       I    between atoms: N_6  and  C_7 
REMARK    3  A    between atoms: C_7  and  C_8 
ROOT
HETATM    1  C   UNL     1     -41.382  55.456 -52.493  1.00  0.00     0.155 A 
HETATM    2  N   UNL     1     -41.489  55.487 -53.845  1.00  0.00    -0.168 NA
HETATM    3  N   UNL     1     -41.094  54.253 -54.234  1.00  0.00    -0.276 N 
HETATM    4  H   UNL     1     -41.089  54.037 -55.224  1.00  0.00     0.189 HD
HETATM    5  C   UNL     1     -40.743  53.452 -53.195  1.00  0.00     0.074 A 
HETATM    6  C   UNL     1     -40.927  54.190 -52.058  1.00  0.00     0.031 A 
HETATM    7  C   UNL     1     -40.640  53.638 -50.717  1.00  0.00     0.219 A 
HETATM    8  O   UNL     1     -40.232  52.239 -50.689  1.00  0.00    -0.346 OA
HETATM    9  C   UNL     1     -40.020  51.564 -51.872  1.00  0.00     0.081 A 
HETATM   10  C   UNL     1     -40.255  52.097 -53.156  1.00  0.00     0.026 A 
HETATM   11  C   UNL     1     -39.546  50.259 -51.743  1.00  0.00     0.038 A 
HETATM   12  C   UNL     1     -39.299  49.488 -52.880  1.00  0.00     0.003 A 
HETATM   13  C   UNL     1     -39.529  50.019 -54.150  1.00  0.00     0.001 A 
HETATM   14  C   UNL     1     -40.008  51.324 -54.292  1.00  0.00     0.016 A 
ENDROOT
BRANCH   1  15
HETATM   15  C   UNL     1     -41.697  56.629 -51.656  1.00  0.00     0.277 C 
HETATM   16  N   UNL     1     -42.929  57.163 -51.971  1.00  0.00    -0.322 N 
HETATM   17  H   UNL     1     -43.412  56.652 -52.708  1.00  0.00     0.169 HD
HETATM   18  O   UNL     1     -40.912  57.031 -50.806  1.00  0.00    -0.266 OA
BRANCH  16  19
HETATM   19  C   UNL     1     -43.562  58.293 -51.428  1.00  0.00     0.035 A 
HETATM   20  C   UNL     1     -42.927  59.523 -51.237  1.00  0.00     0.036 A 
HETATM   21  C   UNL     1     -43.625  60.618 -50.698  1.00  0.00    -0.056 A 
HETATM   22  C   UNL     1     -44.969  60.464 -50.339  1.00  0.00     0.007 A 
HETATM   23  C   UNL     1     -45.607  59.241 -50.525  1.00  0.00     0.003 A 
HETATM   24  C   UNL     1     -44.908  58.162 -51.068  1.00  0.00     0.029 A 
BRANCH  21  25
HETATM   25  C   UNL     1     -42.922  61.936 -50.491  1.00  0.00     0.034 C 
HETATM   26  C   UNL     1     -43.793  62.931 -49.738  1.00  0.00     0.010 C 
ENDBRANCH  21  25
ENDBRANCH  16  19
ENDBRANCH   1  15
TORSDOF 3
ENDMDL
MODEL 4
REMARK VINA RESULT:      -8.1      1.900      3.265
REMARK  3 active torsions:
REMARK  status: ('A' for Active; 'I' for Inactive)
REMARK    1  A    between atoms: C_2  and  C_3 
REMARK    2  A    between atoms: C_5  and  N_6 
REMARK       I    between atoms: N_6  and  C_7 
REMARK    3  A    between atoms: C_7  and  C_8 
ROOT
HETATM    1  C   UNL     1     -42.569  56.007 -55.917  1.00  0.00     0.155 A 
HETATM    2  N   UNL     1     -42.796  55.369 -57.091  1.00  0.00    -0.168 NA
HETATM    3  N   UNL     1     -42.673  56.342 -58.023  1.00  0.00    -0.276 N 
HETATM    4  H   UNL     1     -42.806  56.097 -58.998  1.00  0.00     0.189 HD
HETATM    5  C   UNL     1     -42.383  57.557 -57.492  1.00  0.00     0.074 A 
HETATM    6  C   UNL     1     -42.296  57.377 -56.139  1.00  0.00     0.031 A 
HETATM    7  C   UNL     1     -41.994  58.498 -55.222  1.00  0.00     0.219 A 
HETATM    8  O   UNL     1     -41.714  59.774 -55.865  1.00  0.00    -0.346 OA
HETATM    9  C   UNL     1     -41.863  59.902 -57.229  1.00  0.00     0.081 A 
HETATM   10  C   UNL     1     -42.190  58.846 -58.104  1.00  0.00     0.026 A 
HETATM   11  C   UNL     1     -41.660  61.184 -57.739  1.00  0.00     0.038 A 
HETATM   12  C   UNL     1     -41.786  61.421 -59.109  1.00  0.00     0.003 A 
HETATM   13  C   UNL     1     -42.113  60.374 -59.973  1.00  0.00     0.001 A 
HETATM   14  C   UNL     1     -42.314  59.085 -59.474  1.00  0.00     0.016 A 
ENDROOT
BRANCH   1  15
HETATM   15  C   UNL     1     -42.631  55.307 -54.620  1.00  0.00     0.277 C 
HETATM   16  N   UNL     1     -41.373  55.090 -54.097  1.00  0.00    -0.322 N 
HETATM   17  H   UNL     1     -40.627  55.461 -54.682  1.00  0.00     0.169 HD
HETATM   18  O   UNL     1     -43.704  54.980 -54.126  1.00  0.00    -0.266 OA
BRANCH  16  19
HETATM   19  C   UNL     1     -41.017  54.428 -52.911  1.00  0.00     0.035 A 
HETATM   20  C   UNL     1     -41.213  54.961 -51.634  1.00  0.00     0.036 A 
HETATM   21  C   UNL     1     -40.843  54.239 -50.486  1.00  0.00    -0.056 A 
HETATM   22  C   UNL     1     -40.261  52.974 -50.632  1.00  0.00     0.007 A 
HETATM   23  C   UNL     1     -40.062  52.437 -51.901  1.00  0.00     0.003 A 
HETATM   24  C   UNL     1     -40.440  53.159 -53.034  1.00  0.00     0.029 A 
BRANCH  21  25
HETATM   25  C   UNL     1     -41.053  54.833 -49.116  1.00  0.00     0.034 C 
HETATM   26  C   UNL     1     -40.335  54.037 -48.037  1.00  0.00     0.010 C 
ENDBRANCH  21  25
ENDBRANCH  16  19
ENDBRANCH   1  15
TORSDOF 3
ENDMDL
MODEL 5
REMARK VINA RESULT:      -8.0      1.946      7.845
REMARK  3 active torsions:
REMARK  status: ('A' for Active; 'I' for Inactive)
REMARK    1  A    between atoms: C_2  and  C_3 
REMARK    2  A    between atoms: C_5  and  N_6 
REMARK       I    between atoms: N_6  and  C_7 
REMARK    3  A    between atoms: C_7  and  C_8 
ROOT
HETATM    1  C   UNL     1     -41.233  55.415 -52.995  1.00  0.00     0.155 A 
HETATM    2  N   UNL     1     -41.181  55.582 -51.650  1.00  0.00    -0.168 NA
HETATM    3  N   UNL     1     -40.769  54.380 -51.186  1.00  0.00    -0.276 N 
HETATM    4  H   UNL     1     -40.658  54.261 -50.185  1.00  0.00     0.189 HD
HETATM    5  C   UNL     1     -40.561  53.469 -52.171  1.00  0.00     0.074 A 
HETATM    6  C   UNL     1     -40.838  54.105 -53.350  1.00  0.00     0.031 A 
HETATM    7  C   UNL     1     -40.724  53.414 -54.653  1.00  0.00     0.219 A 
HETATM    8  O   UNL     1     -40.218  52.049 -54.595  1.00  0.00    -0.346 OA
HETATM    9  C   UNL     1     -40.002  51.449 -53.372  1.00  0.00     0.081 A 
HETATM   10  C   UNL     1     -40.147  52.091 -52.126  1.00  0.00     0.026 A 
HETATM   11  C   UNL     1     -39.604  50.113 -53.420  1.00  0.00     0.038 A 
HETATM   12  C   UNL     1     -39.358  49.414 -52.238  1.00  0.00     0.003 A 
HETATM   13  C   UNL     1     -39.505  50.050 -51.004  1.00  0.00     0.001 A 
HETATM   14  C   UNL     1     -39.899  51.389 -50.944  1.00  0.00     0.016 A 
ENDROOT
BRANCH   1  15
HETATM   15  C   UNL     1     -41.666  56.495 -53.901  1.00  0.00     0.277 C 
HETATM   16  N   UNL     1     -42.756  56.118 -54.658  1.00  0.00    -0.322 N 
HETATM   17  H   UNL     1     -43.081  55.175 -54.452  1.00  0.00     0.169 HD
HETATM   18  O   UNL     1     -41.081  57.571 -53.932  1.00  0.00    -0.266 OA
BRANCH  16  19
HETATM   19  C   UNL     1     -43.430  56.847 -55.651  1.00  0.00     0.035 A 
HETATM   20  C   UNL     1     -43.183  56.710 -57.020  1.00  0.00     0.036 A 
HETATM   21  C   UNL     1     -43.905  57.463 -57.962  1.00  0.00    -0.056 A 
HETATM   22  C   UNL     1     -44.873  58.370 -57.516  1.00  0.00     0.007 A 
HETATM   23  C   UNL     1     -45.124  58.513 -56.154  1.00  0.00     0.003 A 
HETATM   24  C   UNL     1     -44.407  57.754 -55.227  1.00  0.00     0.029 A 
BRANCH  21  25
HETATM   25  C   UNL     1     -43.619  57.309 -59.435  1.00  0.00     0.034 C 
HETATM   26  C   UNL     1     -42.732  56.106 -59.717  1.00  0.00     0.010 C 
ENDBRANCH  21  25
ENDBRANCH  16  19
ENDBRANCH   1  15
TORSDOF 3
ENDMDL
MODEL 6
REMARK VINA RESULT:      -7.8      3.753      8.274
REMARK  3 active torsions:
REMARK  status: ('A' for Active; 'I' for Inactive)
REMARK    1  A    between atoms: C_2  and  C_3 
REMARK    2  A    between atoms: C_5  and  N_6 
REMARK       I    between atoms: N_6  and  C_7 
REMARK    3  A    between atoms: C_7  and  C_8 
ROOT
HETATM    1  C   UNL     1     -41.130  55.392 -51.199  1.00  0.00     0.155 A 
HETATM    2  N   UNL     1     -40.793  54.942 -49.966  1.00  0.00    -0.168 NA
HETATM    3  N   UNL     1     -40.380  53.672 -50.181  1.00  0.00    -0.276 N 
HETATM    4  H   UNL     1     -40.074  53.122 -49.386  1.00  0.00     0.189 HD
HETATM    5  C   UNL     1     -40.442  53.303 -51.486  1.00  0.00     0.074 A 
HETATM    6  C   UNL     1     -40.909  54.390 -52.173  1.00  0.00     0.031 A 
HETATM    7  C   UNL     1     -41.112  54.357 -53.637  1.00  0.00     0.219 A 
HETATM    8  O   UNL     1     -40.702  53.126 -54.299  1.00  0.00    -0.346 OA
HETATM    9  C   UNL     1     -40.282  52.050 -53.545  1.00  0.00     0.081 A 
HETATM   10  C   UNL     1     -40.124  52.063 -52.145  1.00  0.00     0.026 A 
HETATM   11  C   UNL     1     -39.997  50.889 -54.263  1.00  0.00     0.038 A 
HETATM   12  C   UNL     1     -39.563  49.742 -53.595  1.00  0.00     0.003 A 
HETATM   13  C   UNL     1     -39.410  49.756 -52.207  1.00  0.00     0.001 A 
HETATM   14  C   UNL     1     -39.689  50.915 -51.479  1.00  0.00     0.016 A 
ENDROOT
BRANCH   1  15
HETATM   15  C   UNL     1     -41.664  56.749 -51.419  1.00  0.00     0.277 C 
HETATM   16  N   UNL     1     -42.996  56.721 -51.776  1.00  0.00    -0.322 N 
HETATM   17  H   UNL     1     -43.382  55.780 -51.811  1.00  0.00     0.169 HD
HETATM   18  O   UNL     1     -40.954  57.739 -51.289  1.00  0.00    -0.266 OA
BRANCH  16  19
HETATM   19  C   UNL     1     -43.841  57.795 -52.101  1.00  0.00     0.035 A 
HETATM   20  C   UNL     1     -44.358  58.690 -51.161  1.00  0.00     0.036 A 
HETATM   21  C   UNL     1     -45.190  59.752 -51.558  1.00  0.00    -0.056 A 
HETATM   22  C   UNL     1     -45.511  59.900 -52.913  1.00  0.00     0.007 A 
HETATM   23  C   UNL     1     -45.000  59.011 -53.855  1.00  0.00     0.003 A 
HETATM   24  C   UNL     1     -44.168  57.965 -53.451  1.00  0.00     0.029 A 
BRANCH  21  25
HETATM   25  C   UNL     1     -45.747  60.703 -50.529  1.00  0.00     0.034 C 
HETATM   26  C   UNL     1     -44.718  61.051 -49.464  1.00  0.00     0.010 C 
ENDBRANCH  21  25
ENDBRANCH  16  19
ENDBRANCH   1  15
TORSDOF 3
ENDMDL
MODEL 7
REMARK VINA RESULT:      -7.8      5.786      8.791
REMARK  3 active torsions:
REMARK  status: ('A' for Active; 'I' for Inactive)
REMARK    1  A    between atoms: C_2  and  C_3 
REMARK    2  A    between atoms: C_5  and  N_6 
REMARK       I    between atoms: N_6  and  C_7 
REMARK    3  A    between atoms: C_7  and  C_8 
ROOT
HETATM    1  C   UNL     1     -41.458  58.827 -51.928  1.00  0.00     0.155 A 
HETATM    2  N   UNL     1     -41.293  59.287 -53.193  1.00  0.00    -0.168 NA
HETATM    3  N   UNL     1     -41.073  58.170 -53.923  1.00  0.00    -0.276 N 
HETATM    4  H   UNL     1     -40.917  58.267 -54.920  1.00  0.00     0.189 HD
HETATM    5  C   UNL     1     -41.091  57.034 -53.180  1.00  0.00     0.074 A 
HETATM    6  C   UNL     1     -41.348  57.418 -51.892  1.00  0.00     0.031 A 
HETATM    7  C   UNL     1     -41.437  56.436 -50.790  1.00  0.00     0.219 A 
HETATM    8  O   UNL     1     -41.318  55.039 -51.185  1.00  0.00    -0.346 OA
HETATM    9  C   UNL     1     -41.013  54.720 -52.491  1.00  0.00     0.081 A 
HETATM   10  C   UNL     1     -40.888  55.654 -53.539  1.00  0.00     0.026 A 
HETATM   11  C   UNL     1     -40.832  53.361 -52.751  1.00  0.00     0.038 A 
HETATM   12  C   UNL     1     -40.521  52.931 -54.042  1.00  0.00     0.003 A 
HETATM   13  C   UNL     1     -40.394  53.859 -55.078  1.00  0.00     0.001 A 
HETATM   14  C   UNL     1     -40.578  55.222 -54.830  1.00  0.00     0.016 A 
ENDROOT
BRANCH   1  15
HETATM   15  C   UNL     1     -41.700  59.734 -50.791  1.00  0.00     0.277 C 
HETATM   16  N   UNL     1     -42.790  60.549 -51.012  1.00  0.00    -0.322 N 
HETATM   17  H   UNL     1     -43.246  60.376 -51.905  1.00  0.00     0.169 HD
HETATM   18  O   UNL     1     -40.977  59.719 -49.801  1.00  0.00    -0.266 OA
BRANCH  16  19
HETATM   19  C   UNL     1     -43.312  61.561 -50.189  1.00  0.00     0.035 A 
HETATM   20  C   UNL     1     -44.247  61.334 -49.175  1.00  0.00     0.036 A 
HETATM   21  C   UNL     1     -44.719  62.393 -48.380  1.00  0.00    -0.056 A 
HETATM   22  C   UNL     1     -44.252  63.691 -48.620  1.00  0.00     0.007 A 
HETATM   23  C   UNL     1     -43.322  63.924 -49.630  1.00  0.00     0.003 A 
HETATM   24  C   UNL     1     -42.853  62.865 -50.408  1.00  0.00     0.029 A 
BRANCH  21  25
HETATM   25  C   UNL     1     -45.734  62.132 -47.296  1.00  0.00     0.034 C 
HETATM   26  C   UNL     1     -45.277  62.671 -45.949  1.00  0.00     0.010 C 
ENDBRANCH  21  25
ENDBRANCH  16  19
ENDBRANCH   1  15
TORSDOF 3
ENDMDL
MODEL 8
REMARK VINA RESULT:      -7.8      2.210      2.258
REMARK  3 active torsions:
REMARK  status: ('A' for Active; 'I' for Inactive)
REMARK    1  A    between atoms: C_2  and  C_3 
REMARK    2  A    between atoms: C_5  and  N_6 
REMARK       I    between atoms: N_6  and  C_7 
REMARK    3  A    between atoms: C_7  and  C_8 
ROOT
HETATM    1  C   UNL     1     -43.286  56.867 -54.731  1.00  0.00     0.155 A 
HETATM    2  N   UNL     1     -44.252  57.434 -53.967  1.00  0.00    -0.168 NA
HETATM    3  N   UNL     1     -45.136  57.925 -54.866  1.00  0.00    -0.276 N 
HETATM    4  H   UNL     1     -45.959  58.406 -54.521  1.00  0.00     0.189 HD
HETATM    5  C   UNL     1     -44.772  57.695 -56.153  1.00  0.00     0.074 A 
HETATM    6  C   UNL     1     -43.592  57.005 -56.105  1.00  0.00     0.031 A 
HETATM    7  C   UNL     1     -42.886  56.581 -57.333  1.00  0.00     0.219 A 
HETATM    8  O   UNL     1     -43.575  56.873 -58.583  1.00  0.00    -0.346 OA
HETATM    9  C   UNL     1     -44.739  57.612 -58.568  1.00  0.00     0.081 A 
HETATM   10  C   UNL     1     -45.396  58.053 -57.401  1.00  0.00     0.026 A 
HETATM   11  C   UNL     1     -45.274  57.916 -59.819  1.00  0.00     0.038 A 
HETATM   12  C   UNL     1     -46.452  58.660 -59.915  1.00  0.00     0.003 A 
HETATM   13  C   UNL     1     -47.099  59.099 -58.758  1.00  0.00     0.001 A 
HETATM   14  C   UNL     1     -46.574  58.796 -57.499  1.00  0.00     0.016 A 
ENDROOT
BRANCH   1  15
HETATM   15  C   UNL     1     -42.098  56.224 -54.140  1.00  0.00     0.277 C 
HETATM   16  N   UNL     1     -42.358  54.924 -53.758  1.00  0.00    -0.322 N 
HETATM   17  H   UNL     1     -43.311  54.630 -53.962  1.00  0.00     0.169 HD
HETATM   18  O   UNL     1     -41.039  56.830 -54.026  1.00  0.00    -0.266 OA
BRANCH  16  19
HETATM   19  C   UNL     1     -41.502  54.005 -53.130  1.00  0.00     0.035 A 
HETATM   20  C   UNL     1     -40.863  52.956 -53.796  1.00  0.00     0.036 A 
HETATM   21  C   UNL     1     -40.008  52.078 -53.107  1.00  0.00    -0.056 A 
HETATM   22  C   UNL     1     -39.808  52.256 -51.733  1.00  0.00     0.007 A 
HETATM   23  C   UNL     1     -40.442  53.298 -51.062  1.00  0.00     0.003 A 
HETATM   24  C   UNL     1     -41.282  54.169 -51.757  1.00  0.00     0.029 A 
BRANCH  21  25
HETATM   25  C   UNL     1     -39.335  50.945 -53.840  1.00  0.00     0.034 C 
HETATM   26  C   UNL     1     -40.345  49.979 -54.440  1.00  0.00     0.010 C 
ENDBRANCH  21  25
ENDBRANCH  16  19
ENDBRANCH   1  15
TORSDOF 3
ENDMDL
MODEL 9
REMARK VINA RESULT:      -7.7      3.614      8.163
REMARK  3 active torsions:
REMARK  status: ('A' for Active; 'I' for Inactive)
REMARK    1  A    between atoms: C_2  and  C_3 
REMARK    2  A    between atoms: C_5  and  N_6 
REMARK       I    between atoms: N_6  and  C_7 
REMARK    3  A    between atoms: C_7  and  C_8 
ROOT
HETATM    1  C   UNL     1     -41.159  55.293 -51.018  1.00  0.00     0.155 A 
HETATM    2  N   UNL     1     -40.858  54.788 -49.796  1.00  0.00    -0.168 NA
HETATM    3  N   UNL     1     -40.435  53.530 -50.055  1.00  0.00    -0.276 N 
HETATM    4  H   UNL     1     -40.153  52.945 -49.276  1.00  0.00     0.189 HD
HETATM    5  C   UNL     1     -40.458  53.220 -51.376  1.00  0.00     0.074 A 
HETATM    6  C   UNL     1     -40.907  54.336 -52.028  1.00  0.00     0.031 A 
HETATM    7  C   UNL     1     -41.067  54.368 -53.498  1.00  0.00     0.219 A 
HETATM    8  O   UNL     1     -40.635  53.167 -54.201  1.00  0.00    -0.346 OA
HETATM    9  C   UNL     1     -40.236  52.060 -53.484  1.00  0.00     0.081 A 
HETATM   10  C   UNL     1     -40.119  52.010 -52.080  1.00  0.00     0.026 A 
HETATM   11  C   UNL     1     -39.928  50.931 -54.243  1.00  0.00     0.038 A 
HETATM   12  C   UNL     1     -39.512  49.757 -53.615  1.00  0.00     0.003 A 
HETATM   13  C   UNL     1     -39.400  49.708 -52.224  1.00  0.00     0.001 A 
HETATM   14  C   UNL     1     -39.702  50.834 -51.453  1.00  0.00     0.016 A 
ENDROOT
BRANCH   1  15
HETATM   15  C   UNL     1     -41.688  56.658 -51.192  1.00  0.00     0.277 C 
HETATM   16  N   UNL     1     -43.014  56.646 -51.572  1.00  0.00    -0.322 N 
HETATM   17  H   UNL     1     -43.400  55.707 -51.650  1.00  0.00     0.169 HD
HETATM   18  O   UNL     1     -40.979  57.642 -51.011  1.00  0.00    -0.266 OA
BRANCH  16  19
HETATM   19  C   UNL     1     -43.853  57.733 -51.869  1.00  0.00     0.035 A 
HETATM   20  C   UNL     1     -43.799  58.454 -53.065  1.00  0.00     0.036 A 
HETATM   21  C   UNL     1     -44.679  59.525 -53.301  1.00  0.00    -0.056 A 
HETATM   22  C   UNL     1     -45.609  59.876 -52.316  1.00  0.00     0.007 A 
HETATM   23  C   UNL     1     -45.668  59.163 -51.122  1.00  0.00     0.003 A 
HETATM   24  C   UNL     1     -44.796  58.096 -50.900  1.00  0.00     0.029 A 
BRANCH  21  25
HETATM   25  C   UNL     1     -44.600  60.298 -54.593  1.00  0.00     0.034 C 
HETATM   26  C   UNL     1     -45.768  61.261 -54.749  1.00  0.00     0.010 C 
ENDBRANCH  21  25
ENDBRANCH  16  19
ENDBRANCH   1  15
TORSDOF 3
ENDMDL
MODEL 10
REMARK VINA RESULT:      -7.7      4.307      8.465
REMARK  3 active torsions:
REMARK  status: ('A' for Active; 'I' for Inactive)
REMARK    1  A    between atoms: C_2  and  C_3 
REMARK    2  A    between atoms: C_5  and  N_6 
REMARK       I    between atoms: N_6  and  C_7 
REMARK    3  A    between atoms: C_7  and  C_8 
ROOT
HETATM    1  C   UNL     1     -42.131  56.321 -51.217  1.00  0.00     0.155 A 
HETATM    2  N   UNL     1     -41.487  56.061 -50.052  1.00  0.00    -0.168 NA
HETATM    3  N   UNL     1     -40.836  54.899 -50.290  1.00  0.00    -0.276 N 
HETATM    4  H   UNL     1     -40.277  54.498 -49.546  1.00  0.00     0.189 HD
HETATM    5  C   UNL     1     -41.041  54.418 -51.543  1.00  0.00     0.074 A 
HETATM    6  C   UNL     1     -41.860  55.315 -52.172  1.00  0.00     0.031 A 
HETATM    7  C   UNL     1     -42.306  55.116 -53.568  1.00  0.00     0.219 A 
HETATM    8  O   UNL     1     -41.747  53.953 -54.244  1.00  0.00    -0.346 OA
HETATM    9  C   UNL     1     -40.964  53.062 -53.541  1.00  0.00     0.081 A 
HETATM   10  C   UNL     1     -40.567  53.226 -52.198  1.00  0.00     0.026 A 
HETATM   11  C   UNL     1     -40.550  51.935 -54.251  1.00  0.00     0.038 A 
HETATM   12  C   UNL     1     -39.752  50.972 -53.631  1.00  0.00     0.003 A 
HETATM   13  C   UNL     1     -39.364  51.135 -52.300  1.00  0.00     0.001 A 
HETATM   14  C   UNL     1     -39.769  52.262 -51.581  1.00  0.00     0.016 A 
ENDROOT
BRANCH   1  15
HETATM   15  C   UNL     1     -42.994  57.506 -51.386  1.00  0.00     0.277 C 
HETATM   16  N   UNL     1     -42.268  58.677 -51.327  1.00  0.00    -0.322 N 
HETATM   17  H   UNL     1     -41.270  58.525 -51.195  1.00  0.00     0.169 HD
HETATM   18  O   UNL     1     -44.203  57.392 -51.549  1.00  0.00    -0.266 OA
BRANCH  16  19
HETATM   19  C   UNL     1     -42.730  60.001 -51.407  1.00  0.00     0.035 A 
HETATM   20  C   UNL     1     -43.245  60.713 -50.321  1.00  0.00     0.036 A 
HETATM   21  C   UNL     1     -43.678  62.042 -50.469  1.00  0.00    -0.056 A 
HETATM   22  C   UNL     1     -43.602  62.650 -51.728  1.00  0.00     0.007 A 
HETATM   23  C   UNL     1     -43.091  61.947 -52.815  1.00  0.00     0.003 A 
HETATM   24  C   UNL     1     -42.656  60.630 -52.656  1.00  0.00     0.029 A 
BRANCH  21  25
HETATM   25  C   UNL     1     -44.240  62.793 -49.288  1.00  0.00     0.034 C 
HETATM   26  C   UNL     1     -44.671  61.852 -48.173  1.00  0.00     0.010 C 
ENDBRANCH  21  25
ENDBRANCH  16  19
ENDBRANCH   1  15
TORSDOF 3
ENDMDL
