MODEL 1
REMARK VINA RESULT:      -9.5      0.000      0.000
REMARK  6 active torsions:
REMARK  status: ('A' for Active; 'I' for Inactive)
REMARK    1  A    between atoms: C_7  and  C_8 
REMARK    2  A    between atoms: C_8  and  O_9 
REMARK    3  A    between atoms: N_12  and  C_13 
REMARK    4  A    between atoms: C_13  and  C_14 
REMARK    5  A    between atoms: C_14  and  C_15 
REMARK    6  A    between atoms: C_15  and  C_16 
ROOT
HETATM    1  C   UNL     1     -43.211  56.494 -52.936  1.00  0.00     0.199 A 
HETATM    2  C   UNL     1     -42.709  55.176 -52.273  1.00  0.00     0.269 A 
HETATM    3  O   UNL     1     -43.161  54.054 -52.465  1.00  0.00    -0.269 OA
HETATM    4  N   UNL     1     -41.731  55.529 -51.325  1.00  0.00    -0.314 N 
HETATM    5  C   UNL     1     -41.516  56.917 -51.324  1.00  0.00     0.047 A 
HETATM    6  C   UNL     1     -42.350  57.533 -52.266  1.00  0.00     0.017 A 
HETATM    7  C   UNL     1     -40.652  57.657 -50.536  1.00  0.00     0.030 A 
HETATM    8  C   UNL     1     -40.634  59.045 -50.699  1.00  0.00     0.002 A 
HETATM    9  C   UNL     1     -41.476  59.669 -51.634  1.00  0.00     0.001 A 
HETATM   10  C   UNL     1     -42.346  58.914 -52.421  1.00  0.00     0.013 A 
ENDROOT
BRANCH   1  11
HETATM   11  C   UNL     1     -42.988  56.598 -54.427  1.00  0.00     0.025 A 
HETATM   12  C   UNL     1     -41.889  56.107 -55.136  1.00  0.00     0.016 A 
HETATM   13  C   UNL     1     -40.675  55.371 -54.686  1.00  0.00     0.069 C 
HETATM   14  N   UNL     1     -42.068  56.402 -56.462  1.00  0.00    -0.359 N 
HETATM   15  H   UNL     1     -41.423  56.164 -57.203  1.00  0.00     0.166 HD
HETATM   16  C   UNL     1     -43.261  57.045 -56.661  1.00  0.00     0.043 A 
HETATM   17  C   UNL     1     -43.865  57.190 -55.412  1.00  0.00     0.003 A 
HETATM   18  C   UNL     1     -43.841  57.500 -57.852  1.00  0.00     0.030 A 
HETATM   19  C   UNL     1     -45.125  57.827 -55.367  1.00  0.00     0.014 A 
HETATM   20  C   UNL     1     -45.722  58.287 -56.548  1.00  0.00     0.001 A 
HETATM   21  C   UNL     1     -45.086  58.124 -57.773  1.00  0.00     0.002 A 
ENDBRANCH   1  11
BRANCH   1  22
HETATM   22  O   UNL     1     -44.575  56.687 -52.559  1.00  0.00    -0.371 OA
HETATM   23  H   UNL     1     -45.015  56.947 -53.389  1.00  0.00     0.212 HD
ENDBRANCH   1  22
BRANCH   4  24
HETATM   24  C   UNL     1     -41.231  54.607 -50.332  1.00  0.00     0.133 C 
BRANCH  24  25
HETATM   25  C   UNL     1     -39.993  53.824 -50.763  1.00  0.00     0.025 C 
BRANCH  25  26
HETATM   26  C   UNL     1     -40.140  52.313 -50.565  1.00  0.00     0.040 C 
BRANCH  26  27
HETATM   27  C   UNL     1     -39.982  51.558 -51.865  1.00  0.00    -0.058 A 
HETATM   28  C   UNL     1     -40.206  52.188 -53.097  1.00  0.00     0.007 A 
HETATM   29  C   UNL     1     -40.090  51.475 -54.291  1.00  0.00     0.001 A 
HETATM   30  C   UNL     1     -39.741  50.125 -54.268  1.00  0.00     0.000 A 
HETATM   31  C   UNL     1     -39.502  49.490 -53.050  1.00  0.00     0.001 A 
HETATM   32  C   UNL     1     -39.621  50.202 -51.856  1.00  0.00     0.007 A 
ENDBRANCH  26  27
ENDBRANCH  25  26
ENDBRANCH  24  25
ENDBRANCH   4  24
TORSDOF 6
ENDMDL
MODEL 2
REMARK VINA RESULT:      -8.9      1.290      2.385
REMARK  6 active torsions:
REMARK  status: ('A' for Active; 'I' for Inactive)
REMARK    1  A    between atoms: C_7  and  C_8 
REMARK    2  A    between atoms: C_8  and  O_9 
REMARK    3  A    between atoms: N_12  and  C_13 
REMARK    4  A    between atoms: C_13  and  C_14 
REMARK    5  A    between atoms: C_14  and  C_15 
REMARK    6  A    between atoms: C_15  and  C_16 
ROOT
HETATM    1  C   UNL     1     -43.803  57.096 -51.761  1.00  0.00     0.199 A 
HETATM    2  C   UNL     1     -43.319  55.675 -51.343  1.00  0.00     0.269 A 
HETATM    3  O   UNL     1     -43.958  54.636 -51.448  1.00  0.00    -0.269 OA
HETATM    4  N   UNL     1     -42.071  55.826 -50.713  1.00  0.00    -0.314 N 
HETATM    5  C   UNL     1     -41.675  57.173 -50.706  1.00  0.00     0.047 A 
HETATM    6  C   UNL     1     -42.651  57.964 -51.327  1.00  0.00     0.017 A 
HETATM    7  C   UNL     1     -40.527  57.734 -50.174  1.00  0.00     0.030 A 
HETATM    8  C   UNL     1     -40.365  59.119 -50.267  1.00  0.00     0.002 A 
HETATM    9  C   UNL     1     -41.345  59.918 -50.877  1.00  0.00     0.001 A 
HETATM   10  C   UNL     1     -42.500  59.343 -51.407  1.00  0.00     0.013 A 
ENDROOT
BRANCH   1  11
HETATM   11  C   UNL     1     -44.007  57.304 -53.244  1.00  0.00     0.025 A 
HETATM   12  C   UNL     1     -44.739  58.333 -53.843  1.00  0.00     0.016 A 
HETATM   13  C   UNL     1     -45.492  59.476 -53.256  1.00  0.00     0.069 C 
HETATM   14  N   UNL     1     -44.679  58.168 -55.201  1.00  0.00    -0.359 N 
HETATM   15  H   UNL     1     -45.122  58.771 -55.881  1.00  0.00     0.166 HD
HETATM   16  C   UNL     1     -43.909  57.082 -55.526  1.00  0.00     0.043 A 
HETATM   17  C   UNL     1     -43.474  56.513 -54.329  1.00  0.00     0.003 A 
HETATM   18  C   UNL     1     -43.570  56.575 -56.786  1.00  0.00     0.030 A 
HETATM   19  C   UNL     1     -42.648  55.369 -54.414  1.00  0.00     0.014 A 
HETATM   20  C   UNL     1     -42.296  54.848 -55.666  1.00  0.00     0.001 A 
HETATM   21  C   UNL     1     -42.752  55.445 -56.835  1.00  0.00     0.002 A 
ENDBRANCH   1  11
BRANCH   1  22
HETATM   22  O   UNL     1     -44.960  57.415 -50.987  1.00  0.00    -0.371 OA
HETATM   23  H   UNL     1     -44.617  57.515 -50.080  1.00  0.00     0.212 HD
ENDBRANCH   1  22
BRANCH   4  24
HETATM   24  C   UNL     1     -41.439  54.767 -49.959  1.00  0.00     0.133 C 
BRANCH  24  25
HETATM   25  C   UNL     1     -40.247  54.119 -50.660  1.00  0.00     0.025 C 
BRANCH  25  26
HETATM   26  C   UNL     1     -40.470  53.917 -52.160  1.00  0.00     0.040 C 
BRANCH  26  27
HETATM   27  C   UNL     1     -40.213  52.488 -52.580  1.00  0.00    -0.058 A 
HETATM   28  C   UNL     1     -39.777  51.532 -51.652  1.00  0.00     0.007 A 
HETATM   29  C   UNL     1     -39.510  50.222 -52.055  1.00  0.00     0.001 A 
HETATM   30  C   UNL     1     -39.684  49.851 -53.387  1.00  0.00     0.000 A 
HETATM   31  C   UNL     1     -40.130  50.789 -54.317  1.00  0.00     0.001 A 
HETATM   32  C   UNL     1     -40.393  52.099 -53.916  1.00  0.00     0.007 A 
ENDBRANCH  26  27
ENDBRANCH  25  26
ENDBRANCH  24  25
ENDBRANCH   4  24
TORSDOF 6
ENDMDL
MODEL 3
REMARK VINA RESULT:      -8.5      2.178      4.606
REMARK  6 active torsions:
REMARK  status: ('A' for Active; 'I' for Inactive)
REMARK    1  A    between atoms: C_7  and  C_8 
REMARK    2  A    between atoms: C_8  and  O_9 
REMARK    3  A    between atoms: N_12  and  C_13 
REMARK    4  A    between atoms: C_13  and  C_14 
REMARK    5  A    between atoms: C_14  and  C_15 
REMARK    6  A    between atoms: C_15  and  C_16 
ROOT
HETATM    1  C   UNL     1     -43.424  57.859 -52.767  1.00  0.00     0.199 A 
HETATM    2  C   UNL     1     -42.451  57.494 -53.927  1.00  0.00     0.269 A 
HETATM    3  O   UNL     1     -42.093  58.240 -54.831  1.00  0.00    -0.269 OA
HETATM    4  N   UNL     1     -42.161  56.122 -53.815  1.00  0.00    -0.314 N 
HETATM    5  C   UNL     1     -42.804  55.566 -52.697  1.00  0.00     0.047 A 
HETATM    6  C   UNL     1     -43.549  56.550 -52.033  1.00  0.00     0.017 A 
HETATM    7  C   UNL     1     -42.784  54.256 -52.252  1.00  0.00     0.030 A 
HETATM    8  C   UNL     1     -43.533  53.933 -51.117  1.00  0.00     0.002 A 
HETATM    9  C   UNL     1     -44.291  54.912 -50.454  1.00  0.00     0.001 A 
HETATM   10  C   UNL     1     -44.307  56.229 -50.914  1.00  0.00     0.013 A 
ENDROOT
BRANCH   1  11
HETATM   11  C   UNL     1     -42.912  58.892 -51.789  1.00  0.00     0.025 A 
HETATM   12  C   UNL     1     -41.751  58.798 -51.018  1.00  0.00     0.016 A 
HETATM   13  C   UNL     1     -40.715  57.732 -50.924  1.00  0.00     0.069 C 
HETATM   14  N   UNL     1     -41.642  59.938 -50.267  1.00  0.00    -0.359 N 
HETATM   15  H   UNL     1     -40.894  60.137 -49.616  1.00  0.00     0.166 HD
HETATM   16  C   UNL     1     -42.675  60.797 -50.532  1.00  0.00     0.043 A 
HETATM   17  C   UNL     1     -43.494  60.177 -51.476  1.00  0.00     0.003 A 
HETATM   18  C   UNL     1     -42.934  62.069 -50.007  1.00  0.00     0.030 A 
HETATM   19  C   UNL     1     -44.635  60.887 -51.916  1.00  0.00     0.014 A 
HETATM   20  C   UNL     1     -44.909  62.161 -51.404  1.00  0.00     0.001 A 
HETATM   21  C   UNL     1     -44.068  62.743 -50.462  1.00  0.00     0.002 A 
ENDBRANCH   1  11
BRANCH   1  22
HETATM   22  O   UNL     1     -44.685  58.208 -53.340  1.00  0.00    -0.371 OA
HETATM   23  H   UNL     1     -44.831  59.127 -53.049  1.00  0.00     0.212 HD
ENDBRANCH   1  22
BRANCH   4  24
HETATM   24  C   UNL     1     -41.508  55.369 -54.862  1.00  0.00     0.133 C 
BRANCH  24  25
HETATM   25  C   UNL     1     -40.321  54.532 -54.391  1.00  0.00     0.025 C 
BRANCH  25  26
HETATM   26  C   UNL     1     -40.325  53.111 -54.961  1.00  0.00     0.040 C 
BRANCH  26  27
HETATM   27  C   UNL     1     -40.076  52.074 -53.890  1.00  0.00    -0.058 A 
HETATM   28  C   UNL     1     -39.916  52.448 -52.549  1.00  0.00     0.007 A 
HETATM   29  C   UNL     1     -39.653  51.487 -51.571  1.00  0.00     0.001 A 
HETATM   30  C   UNL     1     -39.556  50.141 -51.921  1.00  0.00     0.000 A 
HETATM   31  C   UNL     1     -39.728  49.755 -53.250  1.00  0.00     0.001 A 
HETATM   32  C   UNL     1     -39.986  50.716 -54.228  1.00  0.00     0.007 A 
ENDBRANCH  26  27
ENDBRANCH  25  26
ENDBRANCH  24  25
ENDBRANCH   4  24
TORSDOF 6
ENDMDL
MODEL 4
REMARK VINA RESULT:      -8.5      2.724      4.991
REMARK  6 active torsions:
REMARK  status: ('A' for Active; 'I' for Inactive)
REMARK    1  A    between atoms: C_7  and  C_8 
REMARK    2  A    between atoms: C_8  and  O_9 
REMARK    3  A    between atoms: N_12  and  C_13 
REMARK    4  A    between atoms: C_13  and  C_14 
REMARK    5  A    between atoms: C_14  and  C_15 
REMARK    6  A    between atoms: C_15  and  C_16 
ROOT
HETATM    1  C   UNL     1     -42.549  57.602 -56.265  1.00  0.00     0.199 A 
HETATM    2  C   UNL     1     -41.886  58.589 -55.258  1.00  0.00     0.269 A 
HETATM    3  O   UNL     1     -41.774  59.800 -55.403  1.00  0.00    -0.269 OA
HETATM    4  N   UNL     1     -41.334  57.820 -54.218  1.00  0.00    -0.314 N 
HETATM    5  C   UNL     1     -41.593  56.454 -54.416  1.00  0.00     0.047 A 
HETATM    6  C   UNL     1     -42.321  56.270 -55.599  1.00  0.00     0.017 A 
HETATM    7  C   UNL     1     -41.211  55.379 -53.632  1.00  0.00     0.030 A 
HETATM    8  C   UNL     1     -41.568  54.096 -54.053  1.00  0.00     0.002 A 
HETATM    9  C   UNL     1     -42.288  53.904 -55.243  1.00  0.00     0.001 A 
HETATM   10  C   UNL     1     -42.664  54.994 -56.028  1.00  0.00     0.013 A 
ENDROOT
BRANCH   1  11
HETATM   11  C   UNL     1     -44.038  57.774 -56.460  1.00  0.00     0.025 A 
HETATM   12  C   UNL     1     -44.990  57.955 -55.454  1.00  0.00     0.016 A 
HETATM   13  C   UNL     1     -44.854  58.037 -53.973  1.00  0.00     0.069 C 
HETATM   14  N   UNL     1     -46.220  58.072 -56.044  1.00  0.00    -0.359 N 
HETATM   15  H   UNL     1     -47.092  58.211 -55.550  1.00  0.00     0.166 HD
HETATM   16  C   UNL     1     -46.115  58.005 -57.408  1.00  0.00     0.043 A 
HETATM   17  C   UNL     1     -44.766  57.814 -57.708  1.00  0.00     0.003 A 
HETATM   18  C   UNL     1     -47.113  58.102 -58.385  1.00  0.00     0.030 A 
HETATM   19  C   UNL     1     -44.409  57.721 -59.072  1.00  0.00     0.014 A 
HETATM   20  C   UNL     1     -45.393  57.818 -60.064  1.00  0.00     0.001 A 
HETATM   21  C   UNL     1     -46.727  58.007 -59.722  1.00  0.00     0.002 A 
ENDBRANCH   1  11
BRANCH   1  22
HETATM   22  O   UNL     1     -41.814  57.656 -57.488  1.00  0.00    -0.371 OA
HETATM   23  H   UNL     1     -41.107  58.304 -57.310  1.00  0.00     0.212 HD
ENDBRANCH   1  22
BRANCH   4  24
HETATM   24  C   UNL     1     -40.414  58.361 -53.244  1.00  0.00     0.133 C 
BRANCH  24  25
HETATM   25  C   UNL     1     -41.084  58.989 -52.024  1.00  0.00     0.025 C 
BRANCH  25  26
HETATM   26  C   UNL     1     -40.786  58.239 -50.723  1.00  0.00     0.040 C 
BRANCH  26  27
HETATM   27  C   UNL     1     -41.639  57.000 -50.580  1.00  0.00    -0.058 A 
HETATM   28  C   UNL     1     -41.114  55.823 -50.027  1.00  0.00     0.007 A 
HETATM   29  C   UNL     1     -41.898  54.673 -49.930  1.00  0.00     0.001 A 
HETATM   30  C   UNL     1     -43.219  54.688 -50.375  1.00  0.00     0.000 A 
HETATM   31  C   UNL     1     -43.757  55.855 -50.914  1.00  0.00     0.001 A 
HETATM   32  C   UNL     1     -42.972  57.004 -51.016  1.00  0.00     0.007 A 
ENDBRANCH  26  27
ENDBRANCH  25  26
ENDBRANCH  24  25
ENDBRANCH   4  24
TORSDOF 6
ENDMDL
MODEL 5
REMARK VINA RESULT:      -8.5      1.804      2.661
REMARK  6 active torsions:
REMARK  status: ('A' for Active; 'I' for Inactive)
REMARK    1  A    between atoms: C_7  and  C_8 
REMARK    2  A    between atoms: C_8  and  O_9 
REMARK    3  A    between atoms: N_12  and  C_13 
REMARK    4  A    between atoms: C_13  and  C_14 
REMARK    5  A    between atoms: C_14  and  C_15 
REMARK    6  A    between atoms: C_15  and  C_16 
ROOT
HETATM    1  C   UNL     1     -42.979  56.197 -54.805  1.00  0.00     0.199 A 
HETATM    2  C   UNL     1     -41.736  55.592 -54.085  1.00  0.00     0.269 A 
HETATM    3  O   UNL     1     -40.914  54.832 -54.581  1.00  0.00    -0.269 OA
HETATM    4  N   UNL     1     -41.805  55.979 -52.734  1.00  0.00    -0.314 N 
HETATM    5  C   UNL     1     -42.926  56.792 -52.504  1.00  0.00     0.047 A 
HETATM    6  C   UNL     1     -43.645  56.968 -53.695  1.00  0.00     0.017 A 
HETATM    7  C   UNL     1     -43.352  57.362 -51.317  1.00  0.00     0.030 A 
HETATM    8  C   UNL     1     -44.527  58.119 -51.332  1.00  0.00     0.002 A 
HETATM    9  C   UNL     1     -45.257  58.289 -52.520  1.00  0.00     0.001 A 
HETATM   10  C   UNL     1     -44.821  57.707 -53.710  1.00  0.00     0.013 A 
ENDROOT
BRANCH   1  11
HETATM   11  C   UNL     1     -42.674  57.166 -55.924  1.00  0.00     0.025 A 
HETATM   12  C   UNL     1     -42.182  58.466 -55.783  1.00  0.00     0.016 A 
HETATM   13  C   UNL     1     -41.818  59.255 -54.573  1.00  0.00     0.069 C 
HETATM   14  N   UNL     1     -42.041  59.009 -57.033  1.00  0.00    -0.359 N 
HETATM   15  H   UNL     1     -41.703  59.942 -57.227  1.00  0.00     0.166 HD
HETATM   16  C   UNL     1     -42.395  58.105 -58.000  1.00  0.00     0.043 A 
HETATM   17  C   UNL     1     -42.801  56.941 -57.346  1.00  0.00     0.003 A 
HETATM   18  C   UNL     1     -42.379  58.238 -59.393  1.00  0.00     0.030 A 
HETATM   19  C   UNL     1     -43.209  55.852 -58.149  1.00  0.00     0.014 A 
HETATM   20  C   UNL     1     -43.199  55.966 -59.545  1.00  0.00     0.001 A 
HETATM   21  C   UNL     1     -42.788  57.144 -60.157  1.00  0.00     0.002 A 
ENDBRANCH   1  11
BRANCH   1  22
HETATM   22  O   UNL     1     -43.823  55.120 -55.212  1.00  0.00    -0.371 OA
HETATM   23  H   UNL     1     -43.582  54.391 -54.611  1.00  0.00     0.212 HD
ENDBRANCH   1  22
BRANCH   4  24
HETATM   24  C   UNL     1     -40.976  55.392 -51.706  1.00  0.00     0.133 C 
BRANCH  24  25
HETATM   25  C   UNL     1     -41.226  53.905 -51.466  1.00  0.00     0.025 C 
BRANCH  25  26
HETATM   26  C   UNL     1     -39.951  53.129 -51.128  1.00  0.00     0.040 C 
BRANCH  26  27
HETATM   27  C   UNL     1     -39.841  51.851 -51.927  1.00  0.00    -0.058 A 
HETATM   28  C   UNL     1     -39.663  50.615 -51.289  1.00  0.00     0.007 A 
HETATM   29  C   UNL     1     -39.530  49.444 -52.036  1.00  0.00     0.001 A 
HETATM   30  C   UNL     1     -39.581  49.492 -53.428  1.00  0.00     0.000 A 
HETATM   31  C   UNL     1     -39.771  50.713 -54.074  1.00  0.00     0.001 A 
HETATM   32  C   UNL     1     -39.901  51.885 -53.328  1.00  0.00     0.007 A 
ENDBRANCH  26  27
ENDBRANCH  25  26
ENDBRANCH  24  25
ENDBRANCH   4  24
TORSDOF 6
ENDMDL
MODEL 6
REMARK VINA RESULT:      -8.5      2.267      3.910
REMARK  6 active torsions:
REMARK  status: ('A' for Active; 'I' for Inactive)
REMARK    1  A    between atoms: C_7  and  C_8 
REMARK    2  A    between atoms: C_8  and  O_9 
REMARK    3  A    between atoms: N_12  and  C_13 
REMARK    4  A    between atoms: C_13  and  C_14 
REMARK    5  A    between atoms: C_14  and  C_15 
REMARK    6  A    between atoms: C_15  and  C_16 
ROOT
HETATM    1  C   UNL     1     -41.676  57.606 -53.144  1.00  0.00     0.199 A 
HETATM    2  C   UNL     1     -41.515  56.995 -51.719  1.00  0.00     0.269 A 
HETATM    3  O   UNL     1     -41.107  57.582 -50.725  1.00  0.00    -0.269 OA
HETATM    4  N   UNL     1     -41.807  55.623 -51.816  1.00  0.00    -0.314 N 
HETATM    5  C   UNL     1     -42.171  55.281 -53.128  1.00  0.00     0.047 A 
HETATM    6  C   UNL     1     -42.128  56.416 -53.949  1.00  0.00     0.017 A 
HETATM    7  C   UNL     1     -42.516  54.040 -53.634  1.00  0.00     0.030 A 
HETATM    8  C   UNL     1     -42.818  53.943 -54.995  1.00  0.00     0.002 A 
HETATM    9  C   UNL     1     -42.764  55.074 -55.825  1.00  0.00     0.001 A 
HETATM   10  C   UNL     1     -42.412  56.319 -55.306  1.00  0.00     0.013 A 
ENDROOT
BRANCH   1  11
HETATM   11  C   UNL     1     -42.729  58.682 -53.276  1.00  0.00     0.025 A 
HETATM   12  C   UNL     1     -42.776  59.679 -54.254  1.00  0.00     0.016 A 
HETATM   13  C   UNL     1     -41.873  59.975 -55.402  1.00  0.00     0.069 C 
HETATM   14  N   UNL     1     -43.884  60.451 -54.027  1.00  0.00    -0.359 N 
HETATM   15  H   UNL     1     -44.163  61.247 -54.584  1.00  0.00     0.166 HD
HETATM   16  C   UNL     1     -44.590  59.984 -52.949  1.00  0.00     0.043 A 
HETATM   17  C   UNL     1     -43.898  58.881 -52.449  1.00  0.00     0.003 A 
HETATM   18  C   UNL     1     -45.784  60.459 -52.393  1.00  0.00     0.030 A 
HETATM   19  C   UNL     1     -44.447  58.221 -51.327  1.00  0.00     0.014 A 
HETATM   20  C   UNL     1     -45.642  58.679 -50.758  1.00  0.00     0.001 A 
HETATM   21  C   UNL     1     -46.300  59.784 -51.286  1.00  0.00     0.002 A 
ENDBRANCH   1  11
BRANCH   1  22
HETATM   22  O   UNL     1     -40.387  58.025 -53.593  1.00  0.00    -0.371 OA
HETATM   23  H   UNL     1     -40.560  58.424 -54.465  1.00  0.00     0.212 HD
ENDBRANCH   1  22
BRANCH   4  24
HETATM   24  C   UNL     1     -41.509  54.681 -50.761  1.00  0.00     0.133 C 
BRANCH  24  25
HETATM   25  C   UNL     1     -40.145  54.006 -50.884  1.00  0.00     0.025 C 
BRANCH  25  26
HETATM   26  C   UNL     1     -40.165  52.533 -50.465  1.00  0.00     0.040 C 
BRANCH  26  27
HETATM   27  C   UNL     1     -39.967  51.610 -51.646  1.00  0.00    -0.058 A 
HETATM   28  C   UNL     1     -39.737  50.240 -51.458  1.00  0.00     0.007 A 
HETATM   29  C   UNL     1     -39.522  49.400 -52.552  1.00  0.00     0.001 A 
HETATM   30  C   UNL     1     -39.544  49.918 -53.846  1.00  0.00     0.000 A 
HETATM   31  C   UNL     1     -39.785  51.276 -54.047  1.00  0.00     0.001 A 
HETATM   32  C   UNL     1     -39.996  52.117 -52.953  1.00  0.00     0.007 A 
ENDBRANCH  26  27
ENDBRANCH  25  26
ENDBRANCH  24  25
ENDBRANCH   4  24
TORSDOF 6
ENDMDL
MODEL 7
REMARK VINA RESULT:      -8.4      2.381      6.187
REMARK  6 active torsions:
REMARK  status: ('A' for Active; 'I' for Inactive)
REMARK    1  A    between atoms: C_7  and  C_8 
REMARK    2  A    between atoms: C_8  and  O_9 
REMARK    3  A    between atoms: N_12  and  C_13 
REMARK    4  A    between atoms: C_13  and  C_14 
REMARK    5  A    between atoms: C_14  and  C_15 
REMARK    6  A    between atoms: C_15  and  C_16 
ROOT
HETATM    1  C   UNL     1     -41.373  57.554 -51.751  1.00  0.00     0.199 A 
HETATM    2  C   UNL     1     -40.892  58.386 -52.977  1.00  0.00     0.269 A 
HETATM    3  O   UNL     1     -39.729  58.562 -53.318  1.00  0.00    -0.269 OA
HETATM    4  N   UNL     1     -42.027  58.995 -53.542  1.00  0.00    -0.314 N 
HETATM    5  C   UNL     1     -43.190  58.627 -52.846  1.00  0.00     0.047 A 
HETATM    6  C   UNL     1     -42.865  57.764 -51.791  1.00  0.00     0.017 A 
HETATM    7  C   UNL     1     -44.497  59.018 -53.078  1.00  0.00     0.030 A 
HETATM    8  C   UNL     1     -45.492  58.534 -52.225  1.00  0.00     0.002 A 
HETATM    9  C   UNL     1     -45.171  57.679 -51.158  1.00  0.00     0.001 A 
HETATM   10  C   UNL     1     -43.850  57.293 -50.932  1.00  0.00     0.013 A 
ENDROOT
BRANCH   1  11
HETATM   11  C   UNL     1     -41.111  56.068 -51.829  1.00  0.00     0.025 A 
HETATM   12  C   UNL     1     -41.051  55.180 -50.752  1.00  0.00     0.016 A 
HETATM   13  C   UNL     1     -41.220  55.395 -49.288  1.00  0.00     0.069 C 
HETATM   14  N   UNL     1     -40.796  53.927 -51.243  1.00  0.00    -0.359 N 
HETATM   15  H   UNL     1     -40.700  53.091 -50.683  1.00  0.00     0.166 HD
HETATM   16  C   UNL     1     -40.714  53.947 -52.611  1.00  0.00     0.043 A 
HETATM   17  C   UNL     1     -40.901  55.269 -53.015  1.00  0.00     0.003 A 
HETATM   18  C   UNL     1     -40.492  52.894 -53.506  1.00  0.00     0.030 A 
HETATM   19  C   UNL     1     -40.866  55.538 -54.402  1.00  0.00     0.014 A 
HETATM   20  C   UNL     1     -40.647  54.497 -55.314  1.00  0.00     0.001 A 
HETATM   21  C   UNL     1     -40.463  53.193 -54.869  1.00  0.00     0.002 A 
ENDBRANCH   1  11
BRANCH   1  22
HETATM   22  O   UNL     1     -40.838  58.155 -50.571  1.00  0.00    -0.371 OA
HETATM   23  H   UNL     1     -39.885  58.237 -50.759  1.00  0.00     0.212 HD
ENDBRANCH   1  22
BRANCH   4  24
HETATM   24  C   UNL     1     -41.945  60.049 -54.528  1.00  0.00     0.133 C 
BRANCH  24  25
HETATM   25  C   UNL     1     -42.061  59.571 -55.974  1.00  0.00     0.025 C 
BRANCH  25  26
HETATM   26  C   UNL     1     -42.727  58.199 -56.100  1.00  0.00     0.040 C 
BRANCH  26  27
HETATM   27  C   UNL     1     -42.568  57.622 -57.487  1.00  0.00    -0.058 A 
HETATM   28  C   UNL     1     -41.956  58.360 -58.509  1.00  0.00     0.007 A 
HETATM   29  C   UNL     1     -41.843  57.833 -59.797  1.00  0.00     0.001 A 
HETATM   30  C   UNL     1     -42.332  56.558 -60.076  1.00  0.00     0.000 A 
HETATM   31  C   UNL     1     -42.932  55.808 -59.065  1.00  0.00     0.001 A 
HETATM   32  C   UNL     1     -43.048  56.336 -57.778  1.00  0.00     0.007 A 
ENDBRANCH  26  27
ENDBRANCH  25  26
ENDBRANCH  24  25
ENDBRANCH   4  24
TORSDOF 6
ENDMDL
MODEL 8
REMARK VINA RESULT:      -8.3     15.386     17.331
REMARK  6 active torsions:
REMARK  status: ('A' for Active; 'I' for Inactive)
REMARK    1  A    between atoms: C_7  and  C_8 
REMARK    2  A    between atoms: C_8  and  O_9 
REMARK    3  A    between atoms: N_12  and  C_13 
REMARK    4  A    between atoms: C_13  and  C_14 
REMARK    5  A    between atoms: C_14  and  C_15 
REMARK    6  A    between atoms: C_15  and  C_16 
ROOT
HETATM    1  C   UNL     1     -35.028  41.530 -55.116  1.00  0.00     0.199 A 
HETATM    2  C   UNL     1     -35.471  41.756 -53.639  1.00  0.00     0.269 A 
HETATM    3  O   UNL     1     -36.456  42.384 -53.269  1.00  0.00    -0.269 OA
HETATM    4  N   UNL     1     -34.470  41.214 -52.813  1.00  0.00    -0.314 N 
HETATM    5  C   UNL     1     -33.449  40.633 -53.583  1.00  0.00     0.047 A 
HETATM    6  C   UNL     1     -33.735  40.776 -54.947  1.00  0.00     0.017 A 
HETATM    7  C   UNL     1     -32.289  40.011 -53.153  1.00  0.00     0.030 A 
HETATM    8  C   UNL     1     -31.402  39.530 -54.119  1.00  0.00     0.002 A 
HETATM    9  C   UNL     1     -31.678  39.680 -55.487  1.00  0.00     0.001 A 
HETATM   10  C   UNL     1     -32.847  40.312 -55.909  1.00  0.00     0.013 A 
ENDROOT
BRANCH   1  11
HETATM   11  C   UNL     1     -35.957  40.679 -55.951  1.00  0.00     0.025 A 
HETATM   12  C   UNL     1     -36.447  39.415 -55.615  1.00  0.00     0.016 A 
HETATM   13  C   UNL     1     -36.235  38.564 -54.411  1.00  0.00     0.069 C 
HETATM   14  N   UNL     1     -37.255  38.984 -56.634  1.00  0.00    -0.359 N 
HETATM   15  H   UNL     1     -37.743  38.099 -56.655  1.00  0.00     0.166 HD
HETATM   16  C   UNL     1     -37.342  39.930 -57.621  1.00  0.00     0.043 A 
HETATM   17  C   UNL     1     -36.540  41.004 -57.233  1.00  0.00     0.003 A 
HETATM   18  C   UNL     1     -38.071  39.908 -58.816  1.00  0.00     0.030 A 
HETATM   19  C   UNL     1     -36.477  42.117 -58.101  1.00  0.00     0.014 A 
HETATM   20  C   UNL     1     -37.200  42.114 -59.300  1.00  0.00     0.001 A 
HETATM   21  C   UNL     1     -37.987  41.023 -59.651  1.00  0.00     0.002 A 
ENDBRANCH   1  11
BRANCH   1  22
HETATM   22  O   UNL     1     -34.764  42.807 -55.698  1.00  0.00    -0.371 OA
HETATM   23  H   UNL     1     -35.246  43.432 -55.126  1.00  0.00     0.212 HD
ENDBRANCH   1  22
BRANCH   4  24
HETATM   24  C   UNL     1     -34.401  41.468 -51.392  1.00  0.00     0.133 C 
BRANCH  24  25
HETATM   25  C   UNL     1     -35.161  40.459 -50.533  1.00  0.00     0.025 C 
BRANCH  25  26
HETATM   26  C   UNL     1     -34.477  39.091 -50.469  1.00  0.00     0.040 C 
BRANCH  26  27
HETATM   27  C   UNL     1     -33.540  38.985 -49.288  1.00  0.00    -0.058 A 
HETATM   28  C   UNL     1     -32.357  39.736 -49.237  1.00  0.00     0.007 A 
HETATM   29  C   UNL     1     -31.481  39.607 -48.158  1.00  0.00     0.001 A 
HETATM   30  C   UNL     1     -31.781  38.735 -47.113  1.00  0.00     0.000 A 
HETATM   31  C   UNL     1     -32.961  37.993 -47.146  1.00  0.00     0.001 A 
HETATM   32  C   UNL     1     -33.836  38.118 -48.226  1.00  0.00     0.007 A 
ENDBRANCH  26  27
ENDBRANCH  25  26
ENDBRANCH  24  25
ENDBRANCH   4  24
TORSDOF 6
ENDMDL
MODEL 9
REMARK VINA RESULT:      -8.2      1.444      2.219
REMARK  6 active torsions:
REMARK  status: ('A' for Active; 'I' for Inactive)
REMARK    1  A    between atoms: C_7  and  C_8 
REMARK    2  A    between atoms: C_8  and  O_9 
REMARK    3  A    between atoms: N_12  and  C_13 
REMARK    4  A    between atoms: C_13  and  C_14 
REMARK    5  A    between atoms: C_14  and  C_15 
REMARK    6  A    between atoms: C_15  and  C_16 
ROOT
HETATM    1  C   UNL     1     -44.008  56.981 -54.967  1.00  0.00     0.199 A 
HETATM    2  C   UNL     1     -43.820  55.777 -53.996  1.00  0.00     0.269 A 
HETATM    3  O   UNL     1     -44.395  54.698 -54.065  1.00  0.00    -0.269 OA
HETATM    4  N   UNL     1     -42.967  56.202 -52.961  1.00  0.00    -0.314 N 
HETATM    5  C   UNL     1     -42.554  57.528 -53.169  1.00  0.00     0.047 A 
HETATM    6  C   UNL     1     -43.123  58.030 -54.346  1.00  0.00     0.017 A 
HETATM    7  C   UNL     1     -41.729  58.310 -52.378  1.00  0.00     0.030 A 
HETATM    8  C   UNL     1     -41.481  59.624 -52.782  1.00  0.00     0.002 A 
HETATM    9  C   UNL     1     -42.058  60.137 -53.955  1.00  0.00     0.001 A 
HETATM   10  C   UNL     1     -42.890  59.341 -54.742  1.00  0.00     0.013 A 
ENDROOT
BRANCH   1  11
HETATM   11  C   UNL     1     -43.533  56.754 -56.385  1.00  0.00     0.025 A 
HETATM   12  C   UNL     1     -42.519  55.882 -56.788  1.00  0.00     0.016 A 
HETATM   13  C   UNL     1     -41.647  54.958 -56.010  1.00  0.00     0.069 C 
HETATM   14  N   UNL     1     -42.397  55.967 -58.150  1.00  0.00    -0.359 N 
HETATM   15  H   UNL     1     -41.737  55.445 -58.709  1.00  0.00     0.166 HD
HETATM   16  C   UNL     1     -43.315  56.844 -58.667  1.00  0.00     0.043 A 
HETATM   17  C   UNL     1     -44.041  57.360 -57.594  1.00  0.00     0.003 A 
HETATM   18  C   UNL     1     -43.548  57.206 -59.999  1.00  0.00     0.030 A 
HETATM   19  C   UNL     1     -45.063  58.291 -57.887  1.00  0.00     0.014 A 
HETATM   20  C   UNL     1     -45.313  58.665 -59.213  1.00  0.00     0.001 A 
HETATM   21  C   UNL     1     -44.564  58.128 -60.254  1.00  0.00     0.002 A 
ENDBRANCH   1  11
BRANCH   1  22
HETATM   22  O   UNL     1     -45.371  57.400 -54.894  1.00  0.00    -0.371 OA
HETATM   23  H   UNL     1     -45.859  56.702 -55.367  1.00  0.00     0.212 HD
ENDBRANCH   1  22
BRANCH   4  24
HETATM   24  C   UNL     1     -42.777  55.450 -51.742  1.00  0.00     0.133 C 
BRANCH  24  25
HETATM   25  C   UNL     1     -42.272  54.024 -51.952  1.00  0.00     0.025 C 
BRANCH  25  26
HETATM   26  C   UNL     1     -40.837  53.969 -52.483  1.00  0.00     0.040 C 
BRANCH  26  27
HETATM   27  C   UNL     1     -40.407  52.554 -52.794  1.00  0.00    -0.058 A 
HETATM   28  C   UNL     1     -39.848  51.736 -51.801  1.00  0.00     0.007 A 
HETATM   29  C   UNL     1     -39.423  50.442 -52.105  1.00  0.00     0.001 A 
HETATM   30  C   UNL     1     -39.559  49.946 -53.400  1.00  0.00     0.000 A 
HETATM   31  C   UNL     1     -40.125  50.745 -54.393  1.00  0.00     0.001 A 
HETATM   32  C   UNL     1     -40.547  52.040 -54.092  1.00  0.00     0.007 A 
ENDBRANCH  26  27
ENDBRANCH  25  26
ENDBRANCH  24  25
ENDBRANCH   4  24
TORSDOF 6
ENDMDL
MODEL 10
REMARK VINA RESULT:      -8.2      1.883      6.738
REMARK  6 active torsions:
REMARK  status: ('A' for Active; 'I' for Inactive)
REMARK    1  A    between atoms: C_7  and  C_8 
REMARK    2  A    between atoms: C_8  and  O_9 
REMARK    3  A    between atoms: N_12  and  C_13 
REMARK    4  A    between atoms: C_13  and  C_14 
REMARK    5  A    between atoms: C_14  and  C_15 
REMARK    6  A    between atoms: C_15  and  C_16 
ROOT
HETATM    1  C   UNL     1     -41.813  55.656 -54.206  1.00  0.00     0.199 A 
HETATM    2  C   UNL     1     -43.309  55.638 -54.642  1.00  0.00     0.269 A 
HETATM    3  O   UNL     1     -43.915  54.679 -55.104  1.00  0.00    -0.269 OA
HETATM    4  N   UNL     1     -43.795  56.953 -54.524  1.00  0.00    -0.314 N 
HETATM    5  C   UNL     1     -42.800  57.811 -54.029  1.00  0.00     0.047 A 
HETATM    6  C   UNL     1     -41.615  57.095 -53.808  1.00  0.00     0.017 A 
HETATM    7  C   UNL     1     -42.874  59.171 -53.784  1.00  0.00     0.030 A 
HETATM    8  C   UNL     1     -41.730  59.820 -53.313  1.00  0.00     0.002 A 
HETATM    9  C   UNL     1     -40.537  59.111 -53.101  1.00  0.00     0.001 A 
HETATM   10  C   UNL     1     -40.472  57.741 -53.354  1.00  0.00     0.013 A 
ENDROOT
BRANCH   1  11
HETATM   11  C   UNL     1     -41.472  54.793 -53.013  1.00  0.00     0.025 A 
HETATM   12  C   UNL     1     -41.847  55.028 -51.688  1.00  0.00     0.016 A 
HETATM   13  C   UNL     1     -42.650  56.121 -51.070  1.00  0.00     0.069 C 
HETATM   14  N   UNL     1     -41.344  54.017 -50.914  1.00  0.00    -0.359 N 
HETATM   15  H   UNL     1     -41.462  53.935 -49.913  1.00  0.00     0.166 HD
HETATM   16  C   UNL     1     -40.672  53.103 -51.683  1.00  0.00     0.043 A 
HETATM   17  C   UNL     1     -40.727  53.555 -53.001  1.00  0.00     0.003 A 
HETATM   18  C   UNL     1     -40.031  51.918 -51.303  1.00  0.00     0.030 A 
HETATM   19  C   UNL     1     -40.101  52.761 -53.989  1.00  0.00     0.014 A 
HETATM   20  C   UNL     1     -39.456  51.571 -53.628  1.00  0.00     0.001 A 
HETATM   21  C   UNL     1     -39.423  51.157 -52.302  1.00  0.00     0.002 A 
ENDBRANCH   1  11
BRANCH   1  22
HETATM   22  O   UNL     1     -41.014  55.364 -55.354  1.00  0.00    -0.371 OA
HETATM   23  H   UNL     1     -41.539  55.706 -56.100  1.00  0.00     0.212 HD
ENDBRANCH   1  22
BRANCH   4  24
HETATM   24  C   UNL     1     -45.057  57.377 -55.086  1.00  0.00     0.133 C 
BRANCH  24  25
HETATM   25  C   UNL     1     -44.932  58.221 -56.353  1.00  0.00     0.025 C 
BRANCH  25  26
HETATM   26  C   UNL     1     -43.804  57.753 -57.276  1.00  0.00     0.040 C 
BRANCH  26  27
HETATM   27  C   UNL     1     -44.319  56.866 -58.387  1.00  0.00    -0.058 A 
HETATM   28  C   UNL     1     -45.484  57.197 -59.092  1.00  0.00     0.007 A 
HETATM   29  C   UNL     1     -45.971  56.356 -60.094  1.00  0.00     0.001 A 
HETATM   30  C   UNL     1     -45.293  55.179 -60.410  1.00  0.00     0.000 A 
HETATM   31  C   UNL     1     -44.125  54.846 -59.725  1.00  0.00     0.001 A 
HETATM   32  C   UNL     1     -43.641  55.684 -58.720  1.00  0.00     0.007 A 
ENDBRANCH  26  27
ENDBRANCH  25  26
ENDBRANCH  24  25
ENDBRANCH   4  24
TORSDOF 6
ENDMDL
