MODEL 1
REMARK VINA RESULT:      -8.4      0.000      0.000
REMARK  7 active torsions:
REMARK  status: ('A' for Active; 'I' for Inactive)
REMARK       I    between atoms: C_2  and  N_3 
REMARK    1  A    between atoms: N_3  and  C_4 
REMARK    2  A    between atoms: C_7  and  C_8 
REMARK    3  A    between atoms: C_8  and  C_9 
REMARK       I    between atoms: C_9  and  N_10 
REMARK    4  A    between atoms: N_10  and  C_11 
REMARK    5  A    between atoms: C_11  and  C_12 
REMARK    6  A    between atoms: C_14  and  O_15 
REMARK    7  A    between atoms: O_15  and  C_16 
ROOT
HETATM    1  C   UNL     1     -41.034  59.035 -53.221  1.00  0.00     0.222 C 
HETATM    2  N   UNL     1     -41.880  58.628 -52.211  1.00  0.00    -0.357 N 
HETATM    3  O   UNL     1     -39.817  58.883 -53.181  1.00  0.00    -0.273 OA
HETATM    4  H   UNL     1     -42.859  58.495 -52.434  1.00  0.00     0.162 HD
ENDROOT
BRANCH   2   5
HETATM    5  C   UNL     1     -41.355  57.918 -51.066  1.00  0.00     0.161 C 
BRANCH   5   6
HETATM    6  C   UNL     1     -41.667  56.444 -51.108  1.00  0.00    -0.038 A 
HETATM    7  C   UNL     1     -40.617  55.511 -51.141  1.00  0.00     0.046 A 
HETATM    8  C   UNL     1     -40.886  54.138 -51.148  1.00  0.00     0.078 A 
HETATM    9  C   UNL     1     -42.203  53.687 -51.078  1.00  0.00     0.037 A 
HETATM   10  C   UNL     1     -43.254  54.601 -51.025  1.00  0.00     0.003 A 
HETATM   11  C   UNL     1     -42.986  55.972 -51.032  1.00  0.00     0.009 A 
BRANCH   8  12
HETATM   12  O   UNL     1     -39.907  53.171 -51.094  1.00  0.00    -0.292 OA
BRANCH  12  13
HETATM   13  C   UNL     1     -39.924  52.156 -52.042  1.00  0.00     0.169 A 
HETATM   14  N   UNL     1     -39.645  50.884 -51.678  1.00  0.00    -0.237 NA
HETATM   15  C   UNL     1     -39.635  49.963 -52.665  1.00  0.00     0.119 A 
HETATM   16  C   UNL     1     -39.882  50.255 -53.997  1.00  0.00     0.019 A 
HETATM   17  C   UNL     1     -40.149  51.575 -54.345  1.00  0.00     0.006 A 
HETATM   18  C   UNL     1     -40.163  52.549 -53.351  1.00  0.00     0.058 A 
ENDBRANCH  12  13
ENDBRANCH   8  12
ENDBRANCH   5   6
ENDBRANCH   2   5
BRANCH   1  19
HETATM   19  C   UNL     1     -41.731  59.711 -54.386  1.00  0.00     0.141 C 
BRANCH  19  20
HETATM   20  C   UNL     1     -42.330  58.798 -55.432  1.00  0.00    -0.049 A 
HETATM   21  C   UNL     1     -42.985  59.262 -56.578  1.00  0.00     0.010 A 
HETATM   22  C   UNL     1     -43.541  58.366 -57.502  1.00  0.00     0.030 A 
HETATM   23  C   UNL     1     -43.469  56.990 -57.291  1.00  0.00     0.034 A 
HETATM   24  C   UNL     1     -42.831  56.522 -56.139  1.00  0.00     0.030 A 
HETATM   25  C   UNL     1     -42.268  57.414 -55.221  1.00  0.00     0.010 A 
BRANCH  23  26
HETATM   26  N   UNL     1     -44.013  56.023 -58.164  1.00  0.00    -0.328 N 
HETATM   27  C   UNL     1     -43.523  55.628 -59.394  1.00  0.00     0.218 C 
HETATM   28  C   UNL     1     -44.379  54.580 -60.061  1.00  0.00     0.117 C 
HETATM   29  O   UNL     1     -42.507  56.036 -59.947  1.00  0.00    -0.274 OA
HETATM   30  H   UNL     1     -44.856  55.568 -57.839  1.00  0.00     0.169 HD
ENDBRANCH  23  26
ENDBRANCH  19  20
ENDBRANCH   1  19
TORSDOF 7
ENDMDL
MODEL 2
REMARK VINA RESULT:      -8.3      1.973      7.506
REMARK  7 active torsions:
REMARK  status: ('A' for Active; 'I' for Inactive)
REMARK       I    between atoms: C_2  and  N_3 
REMARK    1  A    between atoms: N_3  and  C_4 
REMARK    2  A    between atoms: C_7  and  C_8 
REMARK    3  A    between atoms: C_8  and  C_9 
REMARK       I    between atoms: C_9  and  N_10 
REMARK    4  A    between atoms: N_10  and  C_11 
REMARK    5  A    between atoms: C_11  and  C_12 
REMARK    6  A    between atoms: C_14  and  O_15 
REMARK    7  A    between atoms: O_15  and  C_16 
ROOT
HETATM    1  C   UNL     1     -41.349  58.620 -53.607  1.00  0.00     0.222 C 
HETATM    2  N   UNL     1     -42.319  58.901 -54.546  1.00  0.00    -0.357 N 
HETATM    3  O   UNL     1     -40.288  59.233 -53.533  1.00  0.00    -0.273 OA
HETATM    4  H   UNL     1     -43.265  58.590 -54.362  1.00  0.00     0.162 HD
ENDROOT
BRANCH   2   5
HETATM    5  C   UNL     1     -42.148  60.008 -55.460  1.00  0.00     0.161 C 
BRANCH   5   6
HETATM    6  C   UNL     1     -42.112  59.568 -56.900  1.00  0.00    -0.038 A 
HETATM    7  C   UNL     1     -42.365  58.224 -57.225  1.00  0.00     0.046 A 
HETATM    8  C   UNL     1     -42.369  57.803 -58.558  1.00  0.00     0.078 A 
HETATM    9  C   UNL     1     -42.162  58.729 -59.581  1.00  0.00     0.037 A 
HETATM   10  C   UNL     1     -41.930  60.068 -59.275  1.00  0.00     0.003 A 
HETATM   11  C   UNL     1     -41.913  60.486 -57.943  1.00  0.00     0.009 A 
BRANCH   8  12
HETATM   12  O   UNL     1     -42.691  56.524 -58.951  1.00  0.00    -0.292 OA
BRANCH  12  13
HETATM   13  C   UNL     1     -43.928  56.302 -59.541  1.00  0.00     0.169 A 
HETATM   14  N   UNL     1     -44.026  55.518 -60.640  1.00  0.00    -0.237 NA
HETATM   15  C   UNL     1     -45.255  55.390 -61.181  1.00  0.00     0.119 A 
HETATM   16  C   UNL     1     -46.389  56.013 -60.683  1.00  0.00     0.019 A 
HETATM   17  C   UNL     1     -46.256  56.826 -59.563  1.00  0.00     0.006 A 
HETATM   18  C   UNL     1     -45.001  56.982 -58.982  1.00  0.00     0.058 A 
ENDBRANCH  12  13
ENDBRANCH   8  12
ENDBRANCH   5   6
ENDBRANCH   2   5
BRANCH   1  19
HETATM   19  C   UNL     1     -41.692  57.472 -52.678  1.00  0.00     0.141 C 
BRANCH  19  20
HETATM   20  C   UNL     1     -41.353  56.084 -53.171  1.00  0.00    -0.049 A 
HETATM   21  C   UNL     1     -40.586  55.837 -54.315  1.00  0.00     0.010 A 
HETATM   22  C   UNL     1     -40.323  54.526 -54.737  1.00  0.00     0.030 A 
HETATM   23  C   UNL     1     -40.837  53.436 -54.035  1.00  0.00     0.034 A 
HETATM   24  C   UNL     1     -41.618  53.678 -52.901  1.00  0.00     0.030 A 
HETATM   25  C   UNL     1     -41.873  54.985 -52.474  1.00  0.00     0.010 A 
BRANCH  23  26
HETATM   26  N   UNL     1     -40.630  52.088 -54.400  1.00  0.00    -0.328 N 
HETATM   27  C   UNL     1     -39.820  51.161 -53.773  1.00  0.00     0.218 C 
HETATM   28  C   UNL     1     -39.828  49.814 -54.455  1.00  0.00     0.117 C 
HETATM   29  O   UNL     1     -39.141  51.337 -52.766  1.00  0.00    -0.274 OA
HETATM   30  H   UNL     1     -41.145  51.773 -55.211  1.00  0.00     0.169 HD
ENDBRANCH  23  26
ENDBRANCH  19  20
ENDBRANCH   1  19
TORSDOF 7
ENDMDL
MODEL 3
REMARK VINA RESULT:      -8.0      2.325      2.939
REMARK  7 active torsions:
REMARK  status: ('A' for Active; 'I' for Inactive)
REMARK       I    between atoms: C_2  and  N_3 
REMARK    1  A    between atoms: N_3  and  C_4 
REMARK    2  A    between atoms: C_7  and  C_8 
REMARK    3  A    between atoms: C_8  and  C_9 
REMARK       I    between atoms: C_9  and  N_10 
REMARK    4  A    between atoms: N_10  and  C_11 
REMARK    5  A    between atoms: C_11  and  C_12 
REMARK    6  A    between atoms: C_14  and  O_15 
REMARK    7  A    between atoms: O_15  and  C_16 
ROOT
HETATM    1  C   UNL     1     -42.901  55.428 -54.659  1.00  0.00     0.222 C 
HETATM    2  N   UNL     1     -42.708  56.056 -53.447  1.00  0.00    -0.357 N 
HETATM    3  O   UNL     1     -43.497  54.362 -54.777  1.00  0.00    -0.273 OA
HETATM    4  H   UNL     1     -42.500  57.047 -53.451  1.00  0.00     0.162 HD
ENDROOT
BRANCH   2   5
HETATM    5  C   UNL     1     -43.283  55.501 -52.242  1.00  0.00     0.161 C 
BRANCH   5   6
HETATM    6  C   UNL     1     -42.236  54.986 -51.288  1.00  0.00    -0.038 A 
HETATM    7  C   UNL     1     -41.274  54.067 -51.739  1.00  0.00     0.046 A 
HETATM    8  C   UNL     1     -40.275  53.603 -50.877  1.00  0.00     0.078 A 
HETATM    9  C   UNL     1     -40.202  54.086 -49.571  1.00  0.00     0.037 A 
HETATM   10  C   UNL     1     -41.138  55.014 -49.117  1.00  0.00     0.003 A 
HETATM   11  C   UNL     1     -42.144  55.467 -49.973  1.00  0.00     0.009 A 
BRANCH   8  12
HETATM   12  O   UNL     1     -39.254  52.769 -51.275  1.00  0.00    -0.292 OA
BRANCH  12  13
HETATM   13  C   UNL     1     -39.544  51.742 -52.164  1.00  0.00     0.169 A 
HETATM   14  N   UNL     1     -39.464  50.453 -51.761  1.00  0.00    -0.237 NA
HETATM   15  C   UNL     1     -39.714  49.513 -52.696  1.00  0.00     0.119 A 
HETATM   16  C   UNL     1     -40.032  49.799 -54.015  1.00  0.00     0.019 A 
HETATM   17  C   UNL     1     -40.091  51.133 -54.405  1.00  0.00     0.006 A 
HETATM   18  C   UNL     1     -39.835  52.127 -53.466  1.00  0.00     0.058 A 
ENDBRANCH  12  13
ENDBRANCH   8  12
ENDBRANCH   5   6
ENDBRANCH   2   5
BRANCH   1  19
HETATM   19  C   UNL     1     -42.295  56.155 -55.844  1.00  0.00     0.141 C 
BRANCH  19  20
HETATM   20  C   UNL     1     -43.235  56.488 -56.980  1.00  0.00    -0.049 A 
HETATM   21  C   UNL     1     -43.231  55.815 -58.207  1.00  0.00     0.010 A 
HETATM   22  C   UNL     1     -44.113  56.183 -59.234  1.00  0.00     0.030 A 
HETATM   23  C   UNL     1     -45.004  57.242 -59.061  1.00  0.00     0.034 A 
HETATM   24  C   UNL     1     -45.000  57.928 -57.843  1.00  0.00     0.030 A 
HETATM   25  C   UNL     1     -44.127  57.556 -56.816  1.00  0.00     0.010 A 
BRANCH  23  26
HETATM   26  N   UNL     1     -45.913  57.683 -60.046  1.00  0.00    -0.328 N 
HETATM   27  C   UNL     1     -47.047  57.035 -60.496  1.00  0.00     0.218 C 
HETATM   28  C   UNL     1     -47.772  57.798 -61.578  1.00  0.00     0.117 C 
HETATM   29  O   UNL     1     -47.484  55.957 -60.105  1.00  0.00    -0.274 OA
HETATM   30  H   UNL     1     -45.705  58.583 -60.459  1.00  0.00     0.169 HD
ENDBRANCH  23  26
ENDBRANCH  19  20
ENDBRANCH   1  19
TORSDOF 7
ENDMDL
MODEL 4
REMARK VINA RESULT:      -7.8      1.696      7.701
REMARK  7 active torsions:
REMARK  status: ('A' for Active; 'I' for Inactive)
REMARK       I    between atoms: C_2  and  N_3 
REMARK    1  A    between atoms: N_3  and  C_4 
REMARK    2  A    between atoms: C_7  and  C_8 
REMARK    3  A    between atoms: C_8  and  C_9 
REMARK       I    between atoms: C_9  and  N_10 
REMARK    4  A    between atoms: N_10  and  C_11 
REMARK    5  A    between atoms: C_11  and  C_12 
REMARK    6  A    between atoms: C_14  and  O_15 
REMARK    7  A    between atoms: O_15  and  C_16 
ROOT
HETATM    1  C   UNL     1     -42.099  57.969 -51.786  1.00  0.00     0.222 C 
HETATM    2  N   UNL     1     -41.323  57.972 -52.925  1.00  0.00    -0.357 N 
HETATM    3  O   UNL     1     -43.235  58.433 -51.744  1.00  0.00    -0.273 OA
HETATM    4  H   UNL     1     -40.554  57.315 -52.980  1.00  0.00     0.162 HD
ENDROOT
BRANCH   2   5
HETATM    5  C   UNL     1     -41.862  58.473 -54.170  1.00  0.00     0.161 C 
BRANCH   5   6
HETATM    6  C   UNL     1     -42.252  57.366 -55.116  1.00  0.00    -0.038 A 
HETATM    7  C   UNL     1     -42.489  57.659 -56.470  1.00  0.00     0.046 A 
HETATM    8  C   UNL     1     -42.820  56.640 -57.370  1.00  0.00     0.078 A 
HETATM    9  C   UNL     1     -42.874  55.317 -56.934  1.00  0.00     0.037 A 
HETATM   10  C   UNL     1     -42.621  55.010 -55.598  1.00  0.00     0.003 A 
HETATM   11  C   UNL     1     -42.304  56.028 -54.697  1.00  0.00     0.009 A 
BRANCH   8  12
HETATM   12  O   UNL     1     -42.982  56.843 -58.722  1.00  0.00    -0.292 OA
BRANCH  12  13
HETATM   13  C   UNL     1     -44.246  56.676 -59.272  1.00  0.00     0.169 A 
HETATM   14  N   UNL     1     -45.302  57.351 -58.764  1.00  0.00    -0.237 NA
HETATM   15  C   UNL     1     -46.505  57.098 -59.323  1.00  0.00     0.119 A 
HETATM   16  C   UNL     1     -46.702  56.198 -60.358  1.00  0.00     0.019 A 
HETATM   17  C   UNL     1     -45.601  55.504 -60.849  1.00  0.00     0.006 A 
HETATM   18  C   UNL     1     -44.347  55.740 -60.292  1.00  0.00     0.058 A 
ENDBRANCH  12  13
ENDBRANCH   8  12
ENDBRANCH   5   6
ENDBRANCH   2   5
BRANCH   1  19
HETATM   19  C   UNL     1     -41.426  57.358 -50.572  1.00  0.00     0.141 C 
BRANCH  19  20
HETATM   20  C   UNL     1     -41.166  55.869 -50.626  1.00  0.00    -0.049 A 
HETATM   21  C   UNL     1     -41.973  54.970 -51.331  1.00  0.00     0.010 A 
HETATM   22  C   UNL     1     -41.694  53.595 -51.325  1.00  0.00     0.030 A 
HETATM   23  C   UNL     1     -40.615  53.091 -50.601  1.00  0.00     0.034 A 
HETATM   24  C   UNL     1     -39.816  53.984 -49.881  1.00  0.00     0.030 A 
HETATM   25  C   UNL     1     -40.087  55.355 -49.893  1.00  0.00     0.010 A 
BRANCH  23  26
HETATM   26  N   UNL     1     -40.275  51.723 -50.533  1.00  0.00    -0.328 N 
HETATM   27  C   UNL     1     -39.657  50.959 -51.505  1.00  0.00     0.218 C 
HETATM   28  C   UNL     1     -39.467  49.520 -51.092  1.00  0.00     0.117 C 
HETATM   29  O   UNL     1     -39.271  51.339 -52.606  1.00  0.00    -0.274 OA
HETATM   30  H   UNL     1     -40.509  51.259 -49.666  1.00  0.00     0.169 HD
ENDBRANCH  23  26
ENDBRANCH  19  20
ENDBRANCH   1  19
TORSDOF 7
ENDMDL
MODEL 5
REMARK VINA RESULT:      -7.6     15.121     17.266
REMARK  7 active torsions:
REMARK  status: ('A' for Active; 'I' for Inactive)
REMARK       I    between atoms: C_2  and  N_3 
REMARK    1  A    between atoms: N_3  and  C_4 
REMARK    2  A    between atoms: C_7  and  C_8 
REMARK    3  A    between atoms: C_8  and  C_9 
REMARK       I    between atoms: C_9  and  N_10 
REMARK    4  A    between atoms: N_10  and  C_11 
REMARK    5  A    between atoms: C_11  and  C_12 
REMARK    6  A    between atoms: C_14  and  O_15 
REMARK    7  A    between atoms: O_15  and  C_16 
ROOT
HETATM    1  C   UNL     1     -35.995  42.000 -54.971  1.00  0.00     0.222 C 
HETATM    2  N   UNL     1     -35.085  42.326 -53.988  1.00  0.00    -0.357 N 
HETATM    3  O   UNL     1     -37.015  41.352 -54.755  1.00  0.00    -0.273 OA
HETATM    4  H   UNL     1     -34.457  43.102 -54.159  1.00  0.00     0.162 HD
ENDROOT
BRANCH   2   5
HETATM    5  C   UNL     1     -35.343  41.970 -52.611  1.00  0.00     0.161 C 
BRANCH   5   6
HETATM    6  C   UNL     1     -34.279  41.069 -52.039  1.00  0.00    -0.038 A 
HETATM    7  C   UNL     1     -33.530  40.244 -52.896  1.00  0.00     0.046 A 
HETATM    8  C   UNL     1     -32.516  39.425 -52.388  1.00  0.00     0.078 A 
HETATM    9  C   UNL     1     -32.213  39.457 -51.027  1.00  0.00     0.037 A 
HETATM   10  C   UNL     1     -32.934  40.286 -50.169  1.00  0.00     0.003 A 
HETATM   11  C   UNL     1     -33.955  41.092 -50.674  1.00  0.00     0.009 A 
BRANCH   8  12
HETATM   12  O   UNL     1     -31.691  38.658 -53.178  1.00  0.00    -0.292 OA
BRANCH  12  13
HETATM   13  C   UNL     1     -31.932  38.614 -54.545  1.00  0.00     0.169 A 
HETATM   14  N   UNL     1     -32.732  37.653 -55.062  1.00  0.00    -0.237 NA
HETATM   15  C   UNL     1     -32.880  37.650 -56.404  1.00  0.00     0.119 A 
HETATM   16  C   UNL     1     -32.260  38.554 -57.252  1.00  0.00     0.019 A 
HETATM   17  C   UNL     1     -31.429  39.520 -56.694  1.00  0.00     0.006 A 
HETATM   18  C   UNL     1     -31.254  39.549 -55.314  1.00  0.00     0.058 A 
ENDBRANCH  12  13
ENDBRANCH   8  12
ENDBRANCH   5   6
ENDBRANCH   2   5
BRANCH   1  19
HETATM   19  C   UNL     1     -35.623  42.492 -56.356  1.00  0.00     0.141 C 
BRANCH  19  20
HETATM   20  C   UNL     1     -36.065  41.629 -57.516  1.00  0.00    -0.049 A 
HETATM   21  C   UNL     1     -35.622  40.316 -57.714  1.00  0.00     0.010 A 
HETATM   22  C   UNL     1     -36.050  39.571 -58.823  1.00  0.00     0.030 A 
HETATM   23  C   UNL     1     -36.913  40.129 -59.765  1.00  0.00     0.034 A 
HETATM   24  C   UNL     1     -37.345  41.446 -59.580  1.00  0.00     0.030 A 
HETATM   25  C   UNL     1     -36.927  42.186 -58.471  1.00  0.00     0.010 A 
BRANCH  23  26
HETATM   26  N   UNL     1     -37.380  39.453 -60.913  1.00  0.00    -0.328 N 
HETATM   27  C   UNL     1     -38.481  38.624 -61.013  1.00  0.00     0.218 C 
HETATM   28  C   UNL     1     -38.668  38.055 -62.398  1.00  0.00     0.117 C 
HETATM   29  O   UNL     1     -39.271  38.337 -60.118  1.00  0.00    -0.274 OA
HETATM   30  H   UNL     1     -36.843  39.605 -61.756  1.00  0.00     0.169 HD
ENDBRANCH  23  26
ENDBRANCH  19  20
ENDBRANCH   1  19
TORSDOF 7
ENDMDL
MODEL 6
REMARK VINA RESULT:      -7.4      2.274      6.304
REMARK  7 active torsions:
REMARK  status: ('A' for Active; 'I' for Inactive)
REMARK       I    between atoms: C_2  and  N_3 
REMARK    1  A    between atoms: N_3  and  C_4 
REMARK    2  A    between atoms: C_7  and  C_8 
REMARK    3  A    between atoms: C_8  and  C_9 
REMARK       I    between atoms: C_9  and  N_10 
REMARK    4  A    between atoms: N_10  and  C_11 
REMARK    5  A    between atoms: C_11  and  C_12 
REMARK    6  A    between atoms: C_14  and  O_15 
REMARK    7  A    between atoms: O_15  and  C_16 
ROOT
HETATM    1  C   UNL     1     -41.167  57.795 -50.497  1.00  0.00     0.222 C 
HETATM    2  N   UNL     1     -42.336  58.525 -50.497  1.00  0.00    -0.357 N 
HETATM    3  O   UNL     1     -40.150  58.154 -51.083  1.00  0.00    -0.273 OA
HETATM    4  H   UNL     1     -43.010  58.346 -49.763  1.00  0.00     0.162 HD
ENDROOT
BRANCH   2   5
HETATM    5  C   UNL     1     -42.388  59.815 -51.148  1.00  0.00     0.161 C 
BRANCH   5   6
HETATM    6  C   UNL     1     -43.350  59.839 -52.307  1.00  0.00    -0.038 A 
HETATM    7  C   UNL     1     -43.062  59.100 -53.467  1.00  0.00     0.046 A 
HETATM    8  C   UNL     1     -43.958  59.084 -54.541  1.00  0.00     0.078 A 
HETATM    9  C   UNL     1     -45.170  59.768 -54.446  1.00  0.00     0.037 A 
HETATM   10  C   UNL     1     -45.478  60.488 -53.293  1.00  0.00     0.003 A 
HETATM   11  C   UNL     1     -44.577  60.516 -52.227  1.00  0.00     0.009 A 
BRANCH   8  12
HETATM   12  O   UNL     1     -43.779  58.317 -55.670  1.00  0.00    -0.292 OA
BRANCH  12  13
HETATM   13  C   UNL     1     -43.596  56.949 -55.521  1.00  0.00     0.169 A 
HETATM   14  N   UNL     1     -44.274  56.273 -54.565  1.00  0.00    -0.237 NA
HETATM   15  C   UNL     1     -44.007  54.955 -54.454  1.00  0.00     0.119 A 
HETATM   16  C   UNL     1     -43.089  54.282 -55.246  1.00  0.00     0.019 A 
HETATM   17  C   UNL     1     -42.394  55.006 -56.210  1.00  0.00     0.006 A 
HETATM   18  C   UNL     1     -42.645  56.367 -56.348  1.00  0.00     0.058 A 
ENDBRANCH  12  13
ENDBRANCH   8  12
ENDBRANCH   5   6
ENDBRANCH   2   5
BRANCH   1  19
HETATM   19  C   UNL     1     -41.242  56.493 -49.724  1.00  0.00     0.141 C 
BRANCH  19  20
HETATM   20  C   UNL     1     -40.939  55.232 -50.501  1.00  0.00    -0.049 A 
HETATM   21  C   UNL     1     -41.677  54.815 -51.614  1.00  0.00     0.010 A 
HETATM   22  C   UNL     1     -41.361  53.622 -52.282  1.00  0.00     0.030 A 
HETATM   23  C   UNL     1     -40.314  52.815 -51.839  1.00  0.00     0.034 A 
HETATM   24  C   UNL     1     -39.585  53.219 -50.717  1.00  0.00     0.030 A 
HETATM   25  C   UNL     1     -39.892  54.412 -50.056  1.00  0.00     0.010 A 
BRANCH  23  26
HETATM   26  N   UNL     1     -39.941  51.596 -52.446  1.00  0.00    -0.328 N 
HETATM   27  C   UNL     1     -39.892  51.308 -53.796  1.00  0.00     0.218 C 
HETATM   28  C   UNL     1     -39.466  49.888 -54.081  1.00  0.00     0.117 C 
HETATM   29  O   UNL     1     -40.149  52.070 -54.723  1.00  0.00    -0.274 OA
HETATM   30  H   UNL     1     -39.674  50.857 -51.809  1.00  0.00     0.169 HD
ENDBRANCH  23  26
ENDBRANCH  19  20
ENDBRANCH   1  19
TORSDOF 7
ENDMDL
MODEL 7
REMARK VINA RESULT:      -7.4      3.597      9.720
REMARK  7 active torsions:
REMARK  status: ('A' for Active; 'I' for Inactive)
REMARK       I    between atoms: C_2  and  N_3 
REMARK    1  A    between atoms: N_3  and  C_4 
REMARK    2  A    between atoms: C_7  and  C_8 
REMARK    3  A    between atoms: C_8  and  C_9 
REMARK       I    between atoms: C_9  and  N_10 
REMARK    4  A    between atoms: N_10  and  C_11 
REMARK    5  A    between atoms: C_11  and  C_12 
REMARK    6  A    between atoms: C_14  and  O_15 
REMARK    7  A    between atoms: O_15  and  C_16 
ROOT
HETATM    1  C   UNL     1     -42.846  56.057 -56.002  1.00  0.00     0.222 C 
HETATM    2  N   UNL     1     -43.828  56.270 -56.945  1.00  0.00    -0.357 N 
HETATM    3  O   UNL     1     -42.186  56.962 -55.500  1.00  0.00    -0.273 OA
HETATM    4  H   UNL     1     -44.526  55.550 -57.078  1.00  0.00     0.162 HD
ENDROOT
BRANCH   2   5
HETATM    5  C   UNL     1     -44.178  57.617 -57.338  1.00  0.00     0.161 C 
BRANCH   5   6
HETATM    6  C   UNL     1     -43.422  58.078 -58.557  1.00  0.00    -0.038 A 
HETATM    7  C   UNL     1     -43.530  59.413 -58.981  1.00  0.00     0.046 A 
HETATM    8  C   UNL     1     -42.810  59.868 -60.091  1.00  0.00     0.078 A 
HETATM    9  C   UNL     1     -41.944  59.003 -60.760  1.00  0.00     0.037 A 
HETATM   10  C   UNL     1     -41.812  57.681 -60.338  1.00  0.00     0.003 A 
HETATM   11  C   UNL     1     -42.540  57.224 -59.238  1.00  0.00     0.009 A 
BRANCH   8  12
HETATM   12  O   UNL     1     -42.804  61.179 -60.508  1.00  0.00    -0.292 OA
BRANCH  12  13
HETATM   13  C   UNL     1     -41.625  61.905 -60.403  1.00  0.00     0.169 A 
HETATM   14  N   UNL     1     -41.013  62.370 -61.516  1.00  0.00    -0.237 NA
HETATM   15  C   UNL     1     -39.847  63.025 -61.334  1.00  0.00     0.119 A 
HETATM   16  C   UNL     1     -39.260  63.229 -60.095  1.00  0.00     0.019 A 
HETATM   17  C   UNL     1     -39.903  62.724 -58.969  1.00  0.00     0.006 A 
HETATM   18  C   UNL     1     -41.105  62.042 -59.123  1.00  0.00     0.058 A 
ENDBRANCH  12  13
ENDBRANCH   8  12
ENDBRANCH   5   6
ENDBRANCH   2   5
BRANCH   1  19
HETATM   19  C   UNL     1     -42.629  54.599 -55.643  1.00  0.00     0.141 C 
BRANCH  19  20
HETATM   20  C   UNL     1     -42.286  54.307 -54.200  1.00  0.00    -0.049 A 
HETATM   21  C   UNL     1     -43.216  54.368 -53.157  1.00  0.00     0.010 A 
HETATM   22  C   UNL     1     -42.833  54.107 -51.833  1.00  0.00     0.030 A 
HETATM   23  C   UNL     1     -41.509  53.797 -51.524  1.00  0.00     0.034 A 
HETATM   24  C   UNL     1     -40.572  53.751 -52.560  1.00  0.00     0.030 A 
HETATM   25  C   UNL     1     -40.955  54.002 -53.881  1.00  0.00     0.010 A 
BRANCH  23  26
HETATM   26  N   UNL     1     -41.039  53.535 -50.219  1.00  0.00    -0.328 N 
HETATM   27  C   UNL     1     -40.962  54.417 -49.158  1.00  0.00     0.218 C 
HETATM   28  C   UNL     1     -40.386  53.791 -47.911  1.00  0.00     0.117 C 
HETATM   29  O   UNL     1     -41.308  55.594 -49.152  1.00  0.00    -0.274 OA
HETATM   30  H   UNL     1     -40.732  52.586 -50.050  1.00  0.00     0.169 HD
ENDBRANCH  23  26
ENDBRANCH  19  20
ENDBRANCH   1  19
TORSDOF 7
ENDMDL
MODEL 8
REMARK VINA RESULT:      -7.4      3.226      8.894
REMARK  7 active torsions:
REMARK  status: ('A' for Active; 'I' for Inactive)
REMARK       I    between atoms: C_2  and  N_3 
REMARK    1  A    between atoms: N_3  and  C_4 
REMARK    2  A    between atoms: C_7  and  C_8 
REMARK    3  A    between atoms: C_8  and  C_9 
REMARK       I    between atoms: C_9  and  N_10 
REMARK    4  A    between atoms: N_10  and  C_11 
REMARK    5  A    between atoms: C_11  and  C_12 
REMARK    6  A    between atoms: C_14  and  O_15 
REMARK    7  A    between atoms: O_15  and  C_16 
ROOT
HETATM    1  C   UNL     1     -41.535  58.510 -53.984  1.00  0.00     0.222 C 
HETATM    2  N   UNL     1     -42.353  58.314 -55.076  1.00  0.00    -0.357 N 
HETATM    3  O   UNL     1     -40.708  59.414 -53.917  1.00  0.00    -0.273 OA
HETATM    4  H   UNL     1     -43.199  57.774 -54.947  1.00  0.00     0.162 HD
ENDROOT
BRANCH   2   5
HETATM    5  C   UNL     1     -42.316  59.239 -56.187  1.00  0.00     0.161 C 
BRANCH   5   6
HETATM    6  C   UNL     1     -42.387  58.541 -57.521  1.00  0.00    -0.038 A 
HETATM    7  C   UNL     1     -42.049  59.240 -58.692  1.00  0.00     0.046 A 
HETATM    8  C   UNL     1     -42.077  58.601 -59.936  1.00  0.00     0.078 A 
HETATM    9  C   UNL     1     -42.400  57.246 -60.014  1.00  0.00     0.037 A 
HETATM   10  C   UNL     1     -42.718  56.535 -58.858  1.00  0.00     0.003 A 
HETATM   11  C   UNL     1     -42.704  57.177 -57.619  1.00  0.00     0.009 A 
BRANCH   8  12
HETATM   12  O   UNL     1     -41.678  59.201 -61.109  1.00  0.00    -0.292 OA
BRANCH  12  13
HETATM   13  C   UNL     1     -42.283  60.393 -61.484  1.00  0.00     0.169 A 
HETATM   14  N   UNL     1     -43.595  60.413 -61.814  1.00  0.00    -0.237 NA
HETATM   15  C   UNL     1     -44.097  61.601 -62.213  1.00  0.00     0.119 A 
HETATM   16  C   UNL     1     -43.350  62.765 -62.307  1.00  0.00     0.019 A 
HETATM   17  C   UNL     1     -42.000  62.710 -61.978  1.00  0.00     0.006 A 
HETATM   18  C   UNL     1     -41.450  61.500 -61.566  1.00  0.00     0.058 A 
ENDBRANCH  12  13
ENDBRANCH   8  12
ENDBRANCH   5   6
ENDBRANCH   2   5
BRANCH   1  19
HETATM   19  C   UNL     1     -41.726  57.499 -52.870  1.00  0.00     0.141 C 
BRANCH  19  20
HETATM   20  C   UNL     1     -41.487  56.050 -53.229  1.00  0.00    -0.049 A 
HETATM   21  C   UNL     1     -42.068  54.979 -52.541  1.00  0.00     0.010 A 
HETATM   22  C   UNL     1     -41.791  53.653 -52.907  1.00  0.00     0.030 A 
HETATM   23  C   UNL     1     -40.915  53.372 -53.955  1.00  0.00     0.034 A 
HETATM   24  C   UNL     1     -40.320  54.439 -54.635  1.00  0.00     0.030 A 
HETATM   25  C   UNL     1     -40.602  55.761 -54.277  1.00  0.00     0.010 A 
BRANCH  23  26
HETATM   26  N   UNL     1     -40.574  52.070 -54.377  1.00  0.00    -0.328 N 
HETATM   27  C   UNL     1     -39.814  51.136 -53.699  1.00  0.00     0.218 C 
HETATM   28  C   UNL     1     -39.636  49.849 -54.467  1.00  0.00     0.117 C 
HETATM   29  O   UNL     1     -39.308  51.264 -52.588  1.00  0.00    -0.274 OA
HETATM   30  H   UNL     1     -40.938  51.795 -55.280  1.00  0.00     0.169 HD
ENDBRANCH  23  26
ENDBRANCH  19  20
ENDBRANCH   1  19
TORSDOF 7
ENDMDL
MODEL 9
REMARK VINA RESULT:      -7.3      2.490      7.108
REMARK  7 active torsions:
REMARK  status: ('A' for Active; 'I' for Inactive)
REMARK       I    between atoms: C_2  and  N_3 
REMARK    1  A    between atoms: N_3  and  C_4 
REMARK    2  A    between atoms: C_7  and  C_8 
REMARK    3  A    between atoms: C_8  and  C_9 
REMARK       I    between atoms: C_9  and  N_10 
REMARK    4  A    between atoms: N_10  and  C_11 
REMARK    5  A    between atoms: C_11  and  C_12 
REMARK    6  A    between atoms: C_14  and  O_15 
REMARK    7  A    between atoms: O_15  and  C_16 
ROOT
HETATM    1  C   UNL     1     -43.232  56.791 -57.264  1.00  0.00     0.222 C 
HETATM    2  N   UNL     1     -44.556  57.090 -57.028  1.00  0.00    -0.357 N 
HETATM    3  O   UNL     1     -42.418  57.614 -57.673  1.00  0.00    -0.273 OA
HETATM    4  H   UNL     1     -45.081  56.480 -56.414  1.00  0.00     0.162 HD
ENDROOT
BRANCH   2   5
HETATM    5  C   UNL     1     -45.036  58.444 -57.190  1.00  0.00     0.161 C 
BRANCH   5   6
HETATM    6  C   UNL     1     -45.180  59.166 -55.874  1.00  0.00    -0.038 A 
HETATM    7  C   UNL     1     -44.889  58.493 -54.675  1.00  0.00     0.046 A 
HETATM    8  C   UNL     1     -44.986  59.156 -53.447  1.00  0.00     0.078 A 
HETATM    9  C   UNL     1     -45.330  60.506 -53.410  1.00  0.00     0.037 A 
HETATM   10  C   UNL     1     -45.601  61.191 -54.594  1.00  0.00     0.003 A 
HETATM   11  C   UNL     1     -45.519  60.527 -55.819  1.00  0.00     0.009 A 
BRANCH   8  12
HETATM   12  O   UNL     1     -44.636  58.583 -52.245  1.00  0.00    -0.292 OA
BRANCH  12  13
HETATM   13  C   UNL     1     -43.330  58.730 -51.794  1.00  0.00     0.169 A 
HETATM   14  N   UNL     1     -43.010  59.747 -50.962  1.00  0.00    -0.237 NA
HETATM   15  C   UNL     1     -41.712  59.848 -50.606  1.00  0.00     0.119 A 
HETATM   16  C   UNL     1     -40.719  58.989 -51.049  1.00  0.00     0.019 A 
HETATM   17  C   UNL     1     -41.075  57.962 -51.918  1.00  0.00     0.006 A 
HETATM   18  C   UNL     1     -42.404  57.832 -52.306  1.00  0.00     0.058 A 
ENDBRANCH  12  13
ENDBRANCH   8  12
ENDBRANCH   5   6
ENDBRANCH   2   5
BRANCH   1  19
HETATM   19  C   UNL     1     -42.859  55.346 -56.994  1.00  0.00     0.141 C 
BRANCH  19  20
HETATM   20  C   UNL     1     -42.370  55.027 -55.600  1.00  0.00    -0.049 A 
HETATM   21  C   UNL     1     -41.021  55.062 -55.227  1.00  0.00     0.010 A 
HETATM   22  C   UNL     1     -40.626  54.734 -53.922  1.00  0.00     0.030 A 
HETATM   23  C   UNL     1     -41.567  54.347 -52.969  1.00  0.00     0.034 A 
HETATM   24  C   UNL     1     -42.914  54.295 -53.341  1.00  0.00     0.030 A 
HETATM   25  C   UNL     1     -43.311  54.630 -54.639  1.00  0.00     0.010 A 
BRANCH  23  26
HETATM   26  N   UNL     1     -41.251  53.990 -51.641  1.00  0.00    -0.328 N 
HETATM   27  C   UNL     1     -40.472  52.931 -51.216  1.00  0.00     0.218 C 
HETATM   28  C   UNL     1     -40.367  52.841 -49.713  1.00  0.00     0.117 C 
HETATM   29  O   UNL     1     -39.892  52.112 -51.923  1.00  0.00    -0.274 OA
HETATM   30  H   UNL     1     -41.641  54.589 -50.925  1.00  0.00     0.169 HD
ENDBRANCH  23  26
ENDBRANCH  19  20
ENDBRANCH   1  19
TORSDOF 7
ENDMDL
MODEL 10
REMARK VINA RESULT:      -7.3     14.936     18.842
REMARK  7 active torsions:
REMARK  status: ('A' for Active; 'I' for Inactive)
REMARK       I    between atoms: C_2  and  N_3 
REMARK    1  A    between atoms: N_3  and  C_4 
REMARK    2  A    between atoms: C_7  and  C_8 
REMARK    3  A    between atoms: C_8  and  C_9 
REMARK       I    between atoms: C_9  and  N_10 
REMARK    4  A    between atoms: N_10  and  C_11 
REMARK    5  A    between atoms: C_11  and  C_12 
REMARK    6  A    between atoms: C_14  and  O_15 
REMARK    7  A    between atoms: O_15  and  C_16 
ROOT
HETATM    1  C   UNL     1     -32.174  38.811 -56.836  1.00  0.00     0.222 C 
HETATM    2  N   UNL     1     -33.411  39.298 -56.472  1.00  0.00    -0.357 N 
HETATM    3  O   UNL     1     -31.966  38.225 -57.894  1.00  0.00    -0.273 OA
HETATM    4  H   UNL     1     -33.449  40.023 -55.766  1.00  0.00     0.162 HD
ENDROOT
BRANCH   2   5
HETATM    5  C   UNL     1     -34.528  39.198 -57.384  1.00  0.00     0.161 C 
BRANCH   5   6
HETATM    6  C   UNL     1     -35.631  40.171 -57.056  1.00  0.00    -0.038 A 
HETATM    7  C   UNL     1     -36.186  40.185 -55.765  1.00  0.00     0.046 A 
HETATM    8  C   UNL     1     -37.187  41.103 -55.431  1.00  0.00     0.078 A 
HETATM    9  C   UNL     1     -37.611  42.043 -56.371  1.00  0.00     0.037 A 
HETATM   10  C   UNL     1     -37.054  42.053 -57.649  1.00  0.00     0.003 A 
HETATM   11  C   UNL     1     -36.064  41.128 -57.986  1.00  0.00     0.009 A 
BRANCH   8  12
HETATM   12  O   UNL     1     -37.714  41.227 -54.166  1.00  0.00    -0.292 OA
BRANCH  12  13
HETATM   13  C   UNL     1     -36.842  41.320 -53.089  1.00  0.00     0.169 A 
HETATM   14  N   UNL     1     -35.959  42.343 -53.017  1.00  0.00    -0.237 NA
HETATM   15  C   UNL     1     -35.114  42.337 -51.965  1.00  0.00     0.119 A 
HETATM   16  C   UNL     1     -35.104  41.355 -50.986  1.00  0.00     0.019 A 
HETATM   17  C   UNL     1     -36.012  40.306 -51.095  1.00  0.00     0.006 A 
HETATM   18  C   UNL     1     -36.895  40.282 -52.170  1.00  0.00     0.058 A 
ENDBRANCH  12  13
ENDBRANCH   8  12
ENDBRANCH   5   6
ENDBRANCH   2   5
BRANCH   1  19
HETATM   19  C   UNL     1     -31.083  39.042 -55.807  1.00  0.00     0.141 C 
BRANCH  19  20
HETATM   20  C   UNL     1     -31.507  38.997 -54.357  1.00  0.00    -0.049 A 
HETATM   21  C   UNL     1     -31.888  40.130 -53.628  1.00  0.00     0.010 A 
HETATM   22  C   UNL     1     -32.250  40.028 -52.277  1.00  0.00     0.030 A 
HETATM   23  C   UNL     1     -32.223  38.797 -51.623  1.00  0.00     0.034 A 
HETATM   24  C   UNL     1     -31.828  37.666 -52.343  1.00  0.00     0.030 A 
HETATM   25  C   UNL     1     -31.475  37.763 -53.692  1.00  0.00     0.010 A 
BRANCH  23  26
HETATM   26  N   UNL     1     -32.560  38.612 -50.265  1.00  0.00    -0.328 N 
HETATM   27  C   UNL     1     -31.897  39.107 -49.158  1.00  0.00     0.218 C 
HETATM   28  C   UNL     1     -32.533  38.688 -47.854  1.00  0.00     0.117 C 
HETATM   29  O   UNL     1     -30.898  39.818 -49.154  1.00  0.00    -0.274 OA
HETATM   30  H   UNL     1     -33.387  38.057 -50.094  1.00  0.00     0.169 HD
ENDBRANCH  23  26
ENDBRANCH  19  20
ENDBRANCH   1  19
TORSDOF 7
ENDMDL
