MODEL 1
REMARK VINA RESULT:      -8.8      0.000      0.000
REMARK  2 active torsions:
REMARK  status: ('A' for Active; 'I' for Inactive)
REMARK    1  A    between atoms: C_4  and  C_5 
REMARK       I    between atoms: C_5  and  N_6 
REMARK    2  A    between atoms: N_6  and  C_7 
ROOT
HETATM    1  C   UNL     1     -42.134  54.738 -53.118  1.00  0.00     0.277 C 
HETATM    2  N   UNL     1     -40.892  54.157 -53.036  1.00  0.00    -0.321 N 
HETATM    3  O   UNL     1     -43.225  54.298 -52.804  1.00  0.00    -0.266 OA
HETATM    4  H   UNL     1     -40.198  54.618 -53.620  1.00  0.00     0.169 HD
ENDROOT
BRANCH   1   5
HETATM    5  C   UNL     1     -42.047  56.116 -53.779  1.00  0.00     0.156 A 
HETATM    6  N   UNL     1     -41.741  57.098 -52.980  1.00  0.00    -0.164 NA
HETATM    7  N   UNL     1     -41.657  58.367 -53.493  1.00  0.00    -0.238 N 
HETATM    8  C   UNL     1     -41.271  59.416 -52.568  1.00  0.00     0.183 C 
HETATM    9  C   UNL     1     -41.845  58.688 -54.833  1.00  0.00     0.274 A 
HETATM   10  C   UNL     1     -42.229  57.578 -55.725  1.00  0.00     0.046 A 
HETATM   11  O   UNL     1     -41.725  59.823 -55.288  1.00  0.00    -0.266 OA
HETATM   12  C   UNL     1     -42.344  56.289 -55.212  1.00  0.00     0.016 A 
HETATM   13  C   UNL     1     -42.496  57.831 -57.078  1.00  0.00     0.018 A 
HETATM   14  C   UNL     1     -42.750  55.247 -56.055  1.00  0.00     0.015 A 
HETATM   15  C   UNL     1     -43.016  55.498 -57.404  1.00  0.00     0.001 A 
HETATM   16  C   UNL     1     -42.886  56.788 -57.917  1.00  0.00     0.001 A 
ENDBRANCH   1   5
BRANCH   2  17
HETATM   17  C   UNL     1     -40.503  52.946 -52.432  1.00  0.00     0.047 A 
HETATM   18  C   UNL     1     -40.140  51.743 -53.093  1.00  0.00     0.019 A 
HETATM   19  C   UNL     1     -39.802  50.629 -52.307  1.00  0.00     0.044 A 
HETATM   20  C   UNL     1     -40.058  51.291 -54.446  1.00  0.00     0.033 A 
HETATM   21  N   UNL     1     -39.488  49.591 -53.157  1.00  0.00    -0.365 N 
HETATM   22  C   UNL     1     -39.811  50.641 -50.908  1.00  0.00     0.030 A 
HETATM   23  H   UNL     1     -39.201  48.671 -52.853  1.00  0.00     0.165 HD
HETATM   24  C   UNL     1     -39.650  49.977 -54.454  1.00  0.00     0.089 A 
HETATM   25  C   UNL     1     -40.192  51.820 -50.275  1.00  0.00     0.005 A 
HETATM   26  C   UNL     1     -40.537  52.944 -51.020  1.00  0.00     0.030 A 
ENDBRANCH   2  17
TORSDOF 2
ENDMDL
MODEL 2
REMARK VINA RESULT:      -8.7      1.126      3.038
REMARK  2 active torsions:
REMARK  status: ('A' for Active; 'I' for Inactive)
REMARK    1  A    between atoms: C_4  and  C_5 
REMARK       I    between atoms: C_5  and  N_6 
REMARK    2  A    between atoms: N_6  and  C_7 
ROOT
HETATM    1  C   UNL     1     -42.033  54.598 -52.835  1.00  0.00     0.277 C 
HETATM    2  N   UNL     1     -40.800  53.992 -52.806  1.00  0.00    -0.321 N 
HETATM    3  O   UNL     1     -43.127  54.158 -52.534  1.00  0.00    -0.266 OA
HETATM    4  H   UNL     1     -40.105  54.478 -53.369  1.00  0.00     0.169 HD
ENDROOT
BRANCH   1   5
HETATM    5  C   UNL     1     -41.930  56.013 -53.410  1.00  0.00     0.156 A 
HETATM    6  N   UNL     1     -42.143  56.110 -54.691  1.00  0.00    -0.164 NA
HETATM    7  N   UNL     1     -42.056  57.342 -55.286  1.00  0.00    -0.238 N 
HETATM    8  C   UNL     1     -42.346  57.399 -56.706  1.00  0.00     0.183 C 
HETATM    9  C   UNL     1     -41.783  58.526 -54.608  1.00  0.00     0.274 A 
HETATM   10  C   UNL     1     -41.504  58.404 -53.165  1.00  0.00     0.046 A 
HETATM   11  O   UNL     1     -41.750  59.630 -55.145  1.00  0.00    -0.266 OA
HETATM   12  C   UNL     1     -41.563  57.155 -52.554  1.00  0.00     0.016 A 
HETATM   13  C   UNL     1     -41.161  59.543 -52.423  1.00  0.00     0.018 A 
HETATM   14  C   UNL     1     -41.256  57.040 -51.192  1.00  0.00     0.015 A 
HETATM   15  C   UNL     1     -40.913  58.176 -50.451  1.00  0.00     0.001 A 
HETATM   16  C   UNL     1     -40.869  59.426 -51.065  1.00  0.00     0.001 A 
ENDBRANCH   1   5
BRANCH   2  17
HETATM   17  C   UNL     1     -40.425  52.739 -52.285  1.00  0.00     0.047 A 
HETATM   18  C   UNL     1     -40.075  51.579 -53.024  1.00  0.00     0.019 A 
HETATM   19  C   UNL     1     -39.750  50.412 -52.314  1.00  0.00     0.044 A 
HETATM   20  C   UNL     1     -39.998  51.218 -54.405  1.00  0.00     0.033 A 
HETATM   21  N   UNL     1     -39.449  49.429 -53.232  1.00  0.00    -0.365 N 
HETATM   22  C   UNL     1     -39.760  50.331 -50.918  1.00  0.00     0.030 A 
HETATM   23  H   UNL     1     -39.172  48.487 -52.990  1.00  0.00     0.165 HD
HETATM   24  C   UNL     1     -39.606  49.902 -54.500  1.00  0.00     0.089 A 
HETATM   25  C   UNL     1     -40.127  51.469 -50.207  1.00  0.00     0.005 A 
HETATM   26  C   UNL     1     -40.459  52.644 -50.876  1.00  0.00     0.030 A 
ENDBRANCH   2  17
TORSDOF 2
ENDMDL
MODEL 3
REMARK VINA RESULT:      -8.6      2.283      6.986
REMARK  2 active torsions:
REMARK  status: ('A' for Active; 'I' for Inactive)
REMARK    1  A    between atoms: C_4  and  C_5 
REMARK       I    between atoms: C_5  and  N_6 
REMARK    2  A    between atoms: N_6  and  C_7 
ROOT
HETATM    1  C   UNL     1     -42.836  55.005 -54.277  1.00  0.00     0.277 C 
HETATM    2  N   UNL     1     -42.126  55.807 -55.139  1.00  0.00    -0.321 N 
HETATM    3  O   UNL     1     -44.006  54.668 -54.308  1.00  0.00    -0.266 OA
HETATM    4  H   UNL     1     -41.260  56.154 -54.734  1.00  0.00     0.169 HD
ENDROOT
BRANCH   1   5
HETATM    5  C   UNL     1     -41.966  54.574 -53.094  1.00  0.00     0.156 A 
HETATM    6  N   UNL     1     -41.974  55.383 -52.073  1.00  0.00    -0.164 NA
HETATM    7  N   UNL     1     -41.209  55.075 -50.978  1.00  0.00    -0.238 N 
HETATM    8  C   UNL     1     -41.289  55.988 -49.853  1.00  0.00     0.183 C 
HETATM    9  C   UNL     1     -40.435  53.925 -50.857  1.00  0.00     0.274 A 
HETATM   10  C   UNL     1     -40.401  53.032 -52.031  1.00  0.00     0.046 A 
HETATM   11  O   UNL     1     -39.788  53.638 -49.853  1.00  0.00    -0.266 OA
HETATM   12  C   UNL     1     -41.151  53.348 -53.159  1.00  0.00     0.016 A 
HETATM   13  C   UNL     1     -39.596  51.885 -52.010  1.00  0.00     0.018 A 
HETATM   14  C   UNL     1     -41.081  52.519 -54.286  1.00  0.00     0.015 A 
HETATM   15  C   UNL     1     -40.279  51.374 -54.266  1.00  0.00     0.001 A 
HETATM   16  C   UNL     1     -39.539  51.055 -53.129  1.00  0.00     0.001 A 
ENDBRANCH   1   5
BRANCH   2  17
HETATM   17  C   UNL     1     -42.505  56.350 -56.381  1.00  0.00     0.047 A 
HETATM   18  C   UNL     1     -42.551  57.725 -56.731  1.00  0.00     0.019 A 
HETATM   19  C   UNL     1     -42.980  58.068 -58.023  1.00  0.00     0.044 A 
HETATM   20  C   UNL     1     -42.307  58.969 -56.070  1.00  0.00     0.033 A 
HETATM   21  N   UNL     1     -42.942  59.441 -58.132  1.00  0.00    -0.365 N 
HETATM   22  C   UNL     1     -43.371  57.126 -58.981  1.00  0.00     0.030 A 
HETATM   23  H   UNL     1     -43.194  59.955 -58.964  1.00  0.00     0.165 HD
HETATM   24  C   UNL     1     -42.547  59.997 -56.952  1.00  0.00     0.089 A 
HETATM   25  C   UNL     1     -43.343  55.784 -58.616  1.00  0.00     0.005 A 
HETATM   26  C   UNL     1     -42.927  55.406 -57.342  1.00  0.00     0.030 A 
ENDBRANCH   2  17
TORSDOF 2
ENDMDL
MODEL 4
REMARK VINA RESULT:      -8.6      2.163      6.702
REMARK  2 active torsions:
REMARK  status: ('A' for Active; 'I' for Inactive)
REMARK    1  A    between atoms: C_4  and  C_5 
REMARK       I    between atoms: C_5  and  N_6 
REMARK    2  A    between atoms: N_6  and  C_7 
ROOT
HETATM    1  C   UNL     1     -42.724  55.397 -54.004  1.00  0.00     0.277 C 
HETATM    2  N   UNL     1     -42.026  56.434 -54.576  1.00  0.00    -0.321 N 
HETATM    3  O   UNL     1     -43.845  54.986 -54.239  1.00  0.00    -0.266 OA
HETATM    4  H   UNL     1     -41.239  56.742 -54.011  1.00  0.00     0.169 HD
ENDROOT
BRANCH   1   5
HETATM    5  C   UNL     1     -41.923  54.767 -52.862  1.00  0.00     0.156 A 
HETATM    6  N   UNL     1     -41.950  55.422 -51.736  1.00  0.00    -0.164 NA
HETATM    7  N   UNL     1     -41.246  54.931 -50.667  1.00  0.00    -0.238 N 
HETATM    8  C   UNL     1     -41.345  55.676 -49.427  1.00  0.00     0.183 C 
HETATM    9  C   UNL     1     -40.516  53.747 -50.683  1.00  0.00     0.274 A 
HETATM   10  C   UNL     1     -40.458  53.030 -51.971  1.00  0.00     0.046 A 
HETATM   11  O   UNL     1     -39.924  53.294 -49.705  1.00  0.00    -0.266 OA
HETATM   12  C   UNL     1     -41.147  53.532 -53.071  1.00  0.00     0.016 A 
HETATM   13  C   UNL     1     -39.694  51.860 -52.084  1.00  0.00     0.018 A 
HETATM   14  C   UNL     1     -41.054  52.871 -54.302  1.00  0.00     0.015 A 
HETATM   15  C   UNL     1     -40.291  51.704 -54.416  1.00  0.00     0.001 A 
HETATM   16  C   UNL     1     -39.614  51.197 -53.308  1.00  0.00     0.001 A 
ENDBRANCH   1   5
BRANCH   2  17
HETATM   17  C   UNL     1     -42.347  57.224 -55.696  1.00  0.00     0.047 A 
HETATM   18  C   UNL     1     -42.772  56.765 -56.970  1.00  0.00     0.019 A 
HETATM   19  C   UNL     1     -43.024  57.718 -57.970  1.00  0.00     0.044 A 
HETATM   20  C   UNL     1     -42.991  55.496 -57.591  1.00  0.00     0.033 A 
HETATM   21  N   UNL     1     -43.420  57.046 -59.106  1.00  0.00    -0.365 N 
HETATM   22  C   UNL     1     -42.871  59.095 -57.778  1.00  0.00     0.030 A 
HETATM   23  H   UNL     1     -43.671  57.493 -59.976  1.00  0.00     0.165 HD
HETATM   24  C   UNL     1     -43.393  55.700 -58.891  1.00  0.00     0.089 A 
HETATM   25  C   UNL     1     -42.432  59.529 -56.532  1.00  0.00     0.005 A 
HETATM   26  C   UNL     1     -42.168  58.614 -55.517  1.00  0.00     0.030 A 
ENDBRANCH   2  17
TORSDOF 2
ENDMDL
MODEL 5
REMARK VINA RESULT:      -8.4      0.996      2.040
REMARK  2 active torsions:
REMARK  status: ('A' for Active; 'I' for Inactive)
REMARK    1  A    between atoms: C_4  and  C_5 
REMARK       I    between atoms: C_5  and  N_6 
REMARK    2  A    between atoms: N_6  and  C_7 
ROOT
HETATM    1  C   UNL     1     -41.768  54.383 -53.052  1.00  0.00     0.277 C 
HETATM    2  N   UNL     1     -40.635  53.698 -53.418  1.00  0.00    -0.321 N 
HETATM    3  O   UNL     1     -42.816  53.970 -52.590  1.00  0.00    -0.266 OA
HETATM    4  H   UNL     1     -40.027  54.236 -54.031  1.00  0.00     0.169 HD
ENDROOT
BRANCH   1   5
HETATM    5  C   UNL     1     -41.631  55.873 -53.372  1.00  0.00     0.156 A 
HETATM    6  N   UNL     1     -41.153  56.608 -52.408  1.00  0.00    -0.164 NA
HETATM    7  N   UNL     1     -41.011  57.956 -52.611  1.00  0.00    -0.238 N 
HETATM    8  C   UNL     1     -40.434  58.719 -51.520  1.00  0.00     0.183 C 
HETATM    9  C   UNL     1     -41.315  58.609 -53.801  1.00  0.00     0.274 A 
HETATM   10  C   UNL     1     -41.892  57.779 -54.875  1.00  0.00     0.046 A 
HETATM   11  O   UNL     1     -41.143  59.812 -53.985  1.00  0.00    -0.266 OA
HETATM   12  C   UNL     1     -42.066  56.413 -54.672  1.00  0.00     0.016 A 
HETATM   13  C   UNL     1     -42.281  58.373 -56.083  1.00  0.00     0.018 A 
HETATM   14  C   UNL     1     -42.653  55.637 -55.680  1.00  0.00     0.015 A 
HETATM   15  C   UNL     1     -43.041  56.230 -56.886  1.00  0.00     0.001 A 
HETATM   16  C   UNL     1     -42.853  57.596 -57.089  1.00  0.00     0.001 A 
ENDBRANCH   1   5
BRANCH   2  17
HETATM   17  C   UNL     1     -40.302  52.343 -53.231  1.00  0.00     0.047 A 
HETATM   18  C   UNL     1     -40.203  51.653 -51.995  1.00  0.00     0.019 A 
HETATM   19  C   UNL     1     -39.834  50.298 -52.017  1.00  0.00     0.044 A 
HETATM   20  C   UNL     1     -40.337  51.986 -50.611  1.00  0.00     0.033 A 
HETATM   21  N   UNL     1     -39.803  49.846 -50.716  1.00  0.00    -0.365 N 
HETATM   22  C   UNL     1     -39.554  49.595 -53.194  1.00  0.00     0.030 A 
HETATM   23  H   UNL     1     -39.574  48.900 -50.445  1.00  0.00     0.165 HD
HETATM   24  C   UNL     1     -40.096  50.862 -49.856  1.00  0.00     0.089 A 
HETATM   25  C   UNL     1     -39.633  50.291 -54.396  1.00  0.00     0.005 A 
HETATM   26  C   UNL     1     -39.992  51.635 -54.413  1.00  0.00     0.030 A 
ENDBRANCH   2  17
TORSDOF 2
ENDMDL
MODEL 6
REMARK VINA RESULT:      -8.4      1.341      3.543
REMARK  2 active torsions:
REMARK  status: ('A' for Active; 'I' for Inactive)
REMARK    1  A    between atoms: C_4  and  C_5 
REMARK       I    between atoms: C_5  and  N_6 
REMARK    2  A    between atoms: N_6  and  C_7 
ROOT
HETATM    1  C   UNL     1     -41.951  54.434 -53.307  1.00  0.00     0.277 C 
HETATM    2  N   UNL     1     -40.783  53.773 -53.604  1.00  0.00    -0.321 N 
HETATM    3  O   UNL     1     -42.996  54.008 -52.853  1.00  0.00    -0.266 OA
HETATM    4  H   UNL     1     -40.176  54.300 -54.227  1.00  0.00     0.169 HD
ENDROOT
BRANCH   1   5
HETATM    5  C   UNL     1     -41.856  55.910 -53.704  1.00  0.00     0.156 A 
HETATM    6  N   UNL     1     -42.099  56.165 -54.959  1.00  0.00    -0.164 NA
HETATM    7  N   UNL     1     -42.021  57.461 -55.398  1.00  0.00    -0.238 N 
HETATM    8  C   UNL     1     -42.343  57.694 -56.793  1.00  0.00     0.183 C 
HETATM    9  C   UNL     1     -41.729  58.551 -54.585  1.00  0.00     0.274 A 
HETATM   10  C   UNL     1     -41.419  58.252 -53.174  1.00  0.00     0.046 A 
HETATM   11  O   UNL     1     -41.705  59.714 -54.981  1.00  0.00    -0.266 OA
HETATM   12  C   UNL     1     -41.467  56.936 -52.722  1.00  0.00     0.016 A 
HETATM   13  C   UNL     1     -41.055  59.289 -52.305  1.00  0.00     0.018 A 
HETATM   14  C   UNL     1     -41.130  56.653 -51.392  1.00  0.00     0.015 A 
HETATM   15  C   UNL     1     -40.767  57.688 -50.524  1.00  0.00     0.001 A 
HETATM   16  C   UNL     1     -40.733  59.005 -50.978  1.00  0.00     0.001 A 
ENDBRANCH   1   5
BRANCH   2  17
HETATM   17  C   UNL     1     -40.408  52.444 -53.334  1.00  0.00     0.047 A 
HETATM   18  C   UNL     1     -40.274  51.839 -52.056  1.00  0.00     0.019 A 
HETATM   19  C   UNL     1     -39.866  50.497 -51.996  1.00  0.00     0.044 A 
HETATM   20  C   UNL     1     -40.401  52.258 -50.696  1.00  0.00     0.033 A 
HETATM   21  N   UNL     1     -39.806  50.131 -50.669  1.00  0.00    -0.365 N 
HETATM   22  C   UNL     1     -39.579  49.727 -53.128  1.00  0.00     0.030 A 
HETATM   23  H   UNL     1     -39.546  49.212 -50.340  1.00  0.00     0.165 HD
HETATM   24  C   UNL     1     -40.118  51.193 -49.872  1.00  0.00     0.089 A 
HETATM   25  C   UNL     1     -39.693  50.339 -54.372  1.00  0.00     0.005 A 
HETATM   26  C   UNL     1     -40.092  51.669 -54.471  1.00  0.00     0.030 A 
ENDBRANCH   2  17
TORSDOF 2
ENDMDL
MODEL 7
REMARK VINA RESULT:      -8.4      1.357      2.325
REMARK  2 active torsions:
REMARK  status: ('A' for Active; 'I' for Inactive)
REMARK    1  A    between atoms: C_4  and  C_5 
REMARK       I    between atoms: C_5  and  N_6 
REMARK    2  A    between atoms: N_6  and  C_7 
ROOT
HETATM    1  C   UNL     1     -42.347  55.207 -54.276  1.00  0.00     0.277 C 
HETATM    2  N   UNL     1     -41.085  54.671 -54.192  1.00  0.00    -0.321 N 
HETATM    3  O   UNL     1     -43.418  54.742 -53.932  1.00  0.00    -0.266 OA
HETATM    4  H   UNL     1     -40.415  55.134 -54.801  1.00  0.00     0.169 HD
ENDROOT
BRANCH   1   5
HETATM    5  C   UNL     1     -42.316  56.563 -54.985  1.00  0.00     0.156 A 
HETATM    6  N   UNL     1     -42.102  57.590 -54.212  1.00  0.00    -0.164 NA
HETATM    7  N   UNL     1     -42.073  58.842 -54.768  1.00  0.00    -0.238 N 
HETATM    8  C   UNL     1     -41.787  59.945 -53.870  1.00  0.00     0.183 C 
HETATM    9  C   UNL     1     -42.226  59.104 -56.126  1.00  0.00     0.274 A 
HETATM   10  C   UNL     1     -42.507  57.942 -56.990  1.00  0.00     0.046 A 
HETATM   11  O   UNL     1     -42.155  60.228 -56.619  1.00  0.00    -0.266 OA
HETATM   12  C   UNL     1     -42.566  56.668 -56.433  1.00  0.00     0.016 A 
HETATM   13  C   UNL     1     -42.734  58.130 -58.360  1.00  0.00     0.018 A 
HETATM   14  C   UNL     1     -42.874  55.573 -57.251  1.00  0.00     0.015 A 
HETATM   15  C   UNL     1     -43.101  55.761 -58.618  1.00  0.00     0.001 A 
HETATM   16  C   UNL     1     -43.028  57.037 -59.173  1.00  0.00     0.001 A 
ENDBRANCH   1   5
BRANCH   2  17
HETATM   17  C   UNL     1     -40.647  53.495 -53.554  1.00  0.00     0.047 A 
HETATM   18  C   UNL     1     -40.575  53.261 -52.155  1.00  0.00     0.019 A 
HETATM   19  C   UNL     1     -40.087  52.021 -51.713  1.00  0.00     0.044 A 
HETATM   20  C   UNL     1     -40.836  54.011 -50.967  1.00  0.00     0.033 A 
HETATM   21  N   UNL     1     -40.108  52.024 -50.336  1.00  0.00    -0.365 N 
HETATM   22  C   UNL     1     -39.662  51.007 -52.579  1.00  0.00     0.030 A 
HETATM   23  H   UNL     1     -39.816  51.248 -49.758  1.00  0.00     0.165 HD
HETATM   24  C   UNL     1     -40.550  53.227 -49.873  1.00  0.00     0.089 A 
HETATM   25  C   UNL     1     -39.717  51.259 -53.946  1.00  0.00     0.005 A 
HETATM   26  C   UNL     1     -40.192  52.478 -54.421  1.00  0.00     0.030 A 
ENDBRANCH   2  17
TORSDOF 2
ENDMDL
MODEL 8
REMARK VINA RESULT:      -8.4      2.115      3.709
REMARK  2 active torsions:
REMARK  status: ('A' for Active; 'I' for Inactive)
REMARK    1  A    between atoms: C_4  and  C_5 
REMARK       I    between atoms: C_5  and  N_6 
REMARK    2  A    between atoms: N_6  and  C_7 
ROOT
HETATM    1  C   UNL     1     -42.566  54.783 -54.801  1.00  0.00     0.277 C 
HETATM    2  N   UNL     1     -41.301  54.250 -54.729  1.00  0.00    -0.321 N 
HETATM    3  O   UNL     1     -43.564  54.517 -54.158  1.00  0.00    -0.266 OA
HETATM    4  H   UNL     1     -40.741  54.443 -55.556  1.00  0.00     0.169 HD
ENDROOT
BRANCH   1   5
HETATM    5  C   UNL     1     -42.659  55.808 -55.934  1.00  0.00     0.156 A 
HETATM    6  N   UNL     1     -42.935  55.316 -57.109  1.00  0.00    -0.164 NA
HETATM    7  N   UNL     1     -43.023  56.168 -58.179  1.00  0.00    -0.238 N 
HETATM    8  C   UNL     1     -43.375  55.573 -59.454  1.00  0.00     0.183 C 
HETATM    9  C   UNL     1     -42.869  57.548 -58.102  1.00  0.00     0.274 A 
HETATM   10  C   UNL     1     -42.519  58.095 -56.777  1.00  0.00     0.046 A 
HETATM   11  O   UNL     1     -42.993  58.306 -59.061  1.00  0.00    -0.266 OA
HETATM   12  C   UNL     1     -42.400  57.237 -55.687  1.00  0.00     0.016 A 
HETATM   13  C   UNL     1     -42.288  59.469 -56.628  1.00  0.00     0.018 A 
HETATM   14  C   UNL     1     -42.027  57.756 -54.441  1.00  0.00     0.015 A 
HETATM   15  C   UNL     1     -41.795  59.128 -54.292  1.00  0.00     0.001 A 
HETATM   16  C   UNL     1     -41.929  59.984 -55.384  1.00  0.00     0.001 A 
ENDBRANCH   1   5
BRANCH   2  17
HETATM   17  C   UNL     1     -40.758  53.347 -53.796  1.00  0.00     0.047 A 
HETATM   18  C   UNL     1     -40.670  53.525 -52.390  1.00  0.00     0.019 A 
HETATM   19  C   UNL     1     -40.069  52.510 -51.628  1.00  0.00     0.044 A 
HETATM   20  C   UNL     1     -41.007  54.552 -51.455  1.00  0.00     0.033 A 
HETATM   21  N   UNL     1     -40.097  52.899 -50.307  1.00  0.00    -0.365 N 
HETATM   22  C   UNL     1     -39.546  51.336 -52.182  1.00  0.00     0.030 A 
HETATM   23  H   UNL     1     -39.736  52.348 -49.540  1.00  0.00     0.165 HD
HETATM   24  C   UNL     1     -40.653  54.138 -50.191  1.00  0.00     0.089 A 
HETATM   25  C   UNL     1     -39.619  51.187 -53.564  1.00  0.00     0.005 A 
HETATM   26  C   UNL     1     -40.204  52.173 -54.352  1.00  0.00     0.030 A 
ENDBRANCH   2  17
TORSDOF 2
ENDMDL
MODEL 9
REMARK VINA RESULT:      -8.4      2.111      6.957
REMARK  2 active torsions:
REMARK  status: ('A' for Active; 'I' for Inactive)
REMARK    1  A    between atoms: C_4  and  C_5 
REMARK       I    between atoms: C_5  and  N_6 
REMARK    2  A    between atoms: N_6  and  C_7 
ROOT
HETATM    1  C   UNL     1     -40.578  54.624 -54.152  1.00  0.00     0.277 C 
HETATM    2  N   UNL     1     -41.592  55.544 -54.027  1.00  0.00    -0.321 N 
HETATM    3  O   UNL     1     -39.837  54.400 -55.091  1.00  0.00    -0.266 OA
HETATM    4  H   UNL     1     -42.228  55.332 -53.263  1.00  0.00     0.169 HD
ENDROOT
BRANCH   1   5
HETATM    5  C   UNL     1     -40.482  53.747 -52.901  1.00  0.00     0.156 A 
HETATM    6  N   UNL     1     -40.644  54.373 -51.769  1.00  0.00    -0.164 NA
HETATM    7  N   UNL     1     -40.560  53.660 -50.601  1.00  0.00    -0.238 N 
HETATM    8  C   UNL     1     -40.792  54.397 -49.373  1.00  0.00     0.183 C 
HETATM    9  C   UNL     1     -40.341  52.288 -50.530  1.00  0.00     0.274 A 
HETATM   10  C   UNL     1     -40.120  51.593 -51.812  1.00  0.00     0.046 A 
HETATM   11  O   UNL     1     -40.311  51.653 -49.478  1.00  0.00    -0.266 OA
HETATM   12  C   UNL     1     -40.177  52.310 -53.004  1.00  0.00     0.016 A 
HETATM   13  C   UNL     1     -39.834  50.221 -51.821  1.00  0.00     0.018 A 
HETATM   14  C   UNL     1     -39.924  51.653 -54.215  1.00  0.00     0.015 A 
HETATM   15  C   UNL     1     -39.638  50.284 -54.224  1.00  0.00     0.001 A 
HETATM   16  C   UNL     1     -39.596  49.568 -53.029  1.00  0.00     0.001 A 
ENDBRANCH   1   5
BRANCH   2  17
HETATM   17  C   UNL     1     -41.971  56.587 -54.893  1.00  0.00     0.047 A 
HETATM   18  C   UNL     1     -42.524  56.457 -56.193  1.00  0.00     0.019 A 
HETATM   19  C   UNL     1     -42.818  57.627 -56.911  1.00  0.00     0.044 A 
HETATM   20  C   UNL     1     -42.853  55.380 -57.074  1.00  0.00     0.033 A 
HETATM   21  N   UNL     1     -43.339  57.256 -58.132  1.00  0.00    -0.365 N 
HETATM   22  C   UNL     1     -42.588  58.914 -56.414  1.00  0.00     0.030 A 
HETATM   23  H   UNL     1     -43.644  57.905 -58.844  1.00  0.00     0.165 HD
HETATM   24  C   UNL     1     -43.355  55.898 -58.245  1.00  0.00     0.089 A 
HETATM   25  C   UNL     1     -42.024  59.026 -55.147  1.00  0.00     0.005 A 
HETATM   26  C   UNL     1     -41.716  57.888 -54.407  1.00  0.00     0.030 A 
ENDBRANCH   2  17
TORSDOF 2
ENDMDL
MODEL 10
REMARK VINA RESULT:      -8.4      2.398      7.268
REMARK  2 active torsions:
REMARK  status: ('A' for Active; 'I' for Inactive)
REMARK    1  A    between atoms: C_4  and  C_5 
REMARK       I    between atoms: C_5  and  N_6 
REMARK    2  A    between atoms: N_6  and  C_7 
ROOT
HETATM    1  C   UNL     1     -41.068  54.954 -54.015  1.00  0.00     0.277 C 
HETATM    2  N   UNL     1     -42.431  55.132 -54.002  1.00  0.00    -0.321 N 
HETATM    3  O   UNL     1     -40.213  55.512 -54.677  1.00  0.00    -0.266 OA
HETATM    4  H   UNL     1     -42.929  54.354 -53.577  1.00  0.00     0.169 HD
ENDROOT
BRANCH   1   5
HETATM    5  C   UNL     1     -40.660  53.814 -53.078  1.00  0.00     0.156 A 
HETATM    6  N   UNL     1     -40.335  52.698 -53.667  1.00  0.00    -0.164 NA
HETATM    7  N   UNL     1     -39.971  51.625 -52.896  1.00  0.00    -0.238 N 
HETATM    8  C   UNL     1     -39.577  50.421 -53.605  1.00  0.00     0.183 C 
HETATM    9  C   UNL     1     -39.889  51.644 -51.508  1.00  0.00     0.274 A 
HETATM   10  C   UNL     1     -40.295  52.898 -50.845  1.00  0.00     0.046 A 
HETATM   11  O   UNL     1     -39.519  50.688 -50.830  1.00  0.00    -0.266 OA
HETATM   12  C   UNL     1     -40.692  53.987 -51.615  1.00  0.00     0.016 A 
HETATM   13  C   UNL     1     -40.298  52.978 -49.446  1.00  0.00     0.018 A 
HETATM   14  C   UNL     1     -41.117  55.161 -50.979  1.00  0.00     0.015 A 
HETATM   15  C   UNL     1     -41.121  55.241 -49.583  1.00  0.00     0.001 A 
HETATM   16  C   UNL     1     -40.708  54.152 -48.816  1.00  0.00     0.001 A 
ENDBRANCH   1   5
BRANCH   2  17
HETATM   17  C   UNL     1     -43.216  56.110 -54.642  1.00  0.00     0.047 A 
HETATM   18  C   UNL     1     -43.405  56.270 -56.039  1.00  0.00     0.019 A 
HETATM   19  C   UNL     1     -44.215  57.328 -56.484  1.00  0.00     0.044 A 
HETATM   20  C   UNL     1     -42.926  55.635 -57.227  1.00  0.00     0.033 A 
HETATM   21  N   UNL     1     -44.251  57.285 -57.860  1.00  0.00    -0.365 N 
HETATM   22  C   UNL     1     -44.839  58.236 -55.621  1.00  0.00     0.030 A 
HETATM   23  H   UNL     1     -44.770  57.931 -58.439  1.00  0.00     0.165 HD
HETATM   24  C   UNL     1     -43.466  56.271 -58.321  1.00  0.00     0.089 A 
HETATM   25  C   UNL     1     -44.626  58.079 -54.255  1.00  0.00     0.005 A 
HETATM   26  C   UNL     1     -43.827  57.045 -53.777  1.00  0.00     0.030 A 
ENDBRANCH   2  17
TORSDOF 2
ENDMDL
