MODEL 1
REMARK VINA RESULT:      -8.1      0.000      0.000
REMARK  8 active torsions:
REMARK  status: ('A' for Active; 'I' for Inactive)
REMARK    1  A    between atoms: C_2  and  C_3 
REMARK    2  A    between atoms: C_3  and  C_4 
REMARK    3  A    between atoms: C_7  and  N_8 
REMARK       I    between atoms: N_8  and  C_9 
REMARK    4  A    between atoms: C_9  and  C_10 
REMARK    5  A    between atoms: C_13  and  N_14 
REMARK       I    between atoms: N_14  and  C_15 
REMARK    6  A    between atoms: C_15  and  C_16 
REMARK    7  A    between atoms: C_16  and  C_17 
REMARK    8  A    between atoms: C_19  and  N_20 
ROOT
HETATM    1  C   UNL     1     -42.957  58.707 -53.510  1.00  0.00     0.032 A 
HETATM    2  C   UNL     1     -44.194  58.587 -54.155  1.00  0.00     0.019 A 
HETATM    3  C   UNL     1     -45.111  59.647 -54.136  1.00  0.00     0.030 A 
HETATM    4  C   UNL     1     -44.824  60.826 -53.446  1.00  0.00     0.034 A 
HETATM    5  C   UNL     1     -43.607  60.931 -52.765  1.00  0.00     0.030 A 
HETATM    6  C   UNL     1     -42.676  59.885 -52.806  1.00  0.00     0.019 A 
ENDROOT
BRANCH   4   7
HETATM    7  N   UNL     1     -45.720  61.913 -53.352  1.00  0.00    -0.327 N 
HETATM    8  C   UNL     1     -46.694  62.085 -52.389  1.00  0.00     0.223 C 
HETATM    9  O   UNL     1     -46.976  61.260 -51.519  1.00  0.00    -0.273 OA
HETATM   10  H   UNL     1     -45.687  62.547 -54.138  1.00  0.00     0.169 HD
BRANCH   8  11
HETATM   11  C   UNL     1     -47.400  63.437 -52.366  1.00  0.00     0.128 C 
BRANCH  11  12
HETATM   12  C   UNL     1     -47.332  64.310 -51.122  1.00  0.00     0.158 A 
HETATM   13  S   UNL     1     -45.828  64.183 -50.128  1.00  0.00    -0.077 SA
HETATM   14  C   UNL     1     -46.756  63.662 -48.733  1.00  0.00     0.168 A 
HETATM   15  N   UNL     1     -48.033  63.576 -48.922  1.00  0.00    -0.189 NA
HETATM   16  C   UNL     1     -48.453  63.989 -50.161  1.00  0.00     0.260 A 
HETATM   17  O   UNL     1     -49.632  64.032 -50.490  1.00  0.00    -0.270 OA
BRANCH  14  18
HETATM   18  N   UNL     1     -46.124  63.321 -47.555  1.00  0.00    -0.360 N 
HETATM   19  C   UNL     1     -46.828  62.838 -46.361  1.00  0.00     0.125 C 
HETATM   20  C   UNL     1     -46.909  61.312 -46.407  1.00  0.00     0.020 C 
HETATM   21  C   UNL     1     -45.517  60.689 -46.542  1.00  0.00     0.003 C 
HETATM   22  C   UNL     1     -44.735  61.310 -47.702  1.00  0.00     0.020 C 
HETATM   23  C   UNL     1     -44.734  62.836 -47.607  1.00  0.00     0.125 C 
ENDBRANCH  14  18
ENDBRANCH  11  12
ENDBRANCH   8  11
ENDBRANCH   4   7
BRANCH   1  24
HETATM   24  C   UNL     1     -41.938  57.608 -53.498  1.00  0.00     0.256 C 
HETATM   25  N   UNL     1     -42.404  56.354 -53.853  1.00  0.00    -0.323 N 
HETATM   26  H   UNL     1     -43.356  56.286 -54.180  1.00  0.00     0.169 HD
HETATM   27  O   UNL     1     -40.785  57.896 -53.196  1.00  0.00    -0.267 OA
BRANCH  25  28
HETATM   28  C   UNL     1     -41.691  55.135 -53.841  1.00  0.00     0.035 A 
HETATM   29  C   UNL     1     -40.926  54.662 -54.904  1.00  0.00     0.030 A 
HETATM   30  C   UNL     1     -40.236  53.447 -54.799  1.00  0.00     0.010 A 
HETATM   31  C   UNL     1     -40.285  52.688 -53.623  1.00  0.00    -0.054 A 
HETATM   32  C   UNL     1     -41.059  53.165 -52.559  1.00  0.00     0.010 A 
HETATM   33  C   UNL     1     -41.757  54.372 -52.669  1.00  0.00     0.030 A 
BRANCH  31  34
HETATM   34  C   UNL     1     -39.536  51.372 -53.483  1.00  0.00     0.014 C 
HETATM   35  C   UNL     1     -40.185  50.273 -54.336  1.00  0.00     0.015 C 
BRANCH  34  36
HETATM   36  C   UNL     1     -39.415  50.911 -52.017  1.00  0.00     0.004 C 
HETATM   37  C   UNL     1     -39.616  49.410 -51.846  1.00  0.00     0.006 C 
ENDBRANCH  34  36
ENDBRANCH  31  34
ENDBRANCH  25  28
ENDBRANCH   1  24
TORSDOF 8
ENDMDL
MODEL 2
REMARK VINA RESULT:      -8.0      3.094     10.761
REMARK  8 active torsions:
REMARK  status: ('A' for Active; 'I' for Inactive)
REMARK    1  A    between atoms: C_2  and  C_3 
REMARK    2  A    between atoms: C_3  and  C_4 
REMARK    3  A    between atoms: C_7  and  N_8 
REMARK       I    between atoms: N_8  and  C_9 
REMARK    4  A    between atoms: C_9  and  C_10 
REMARK    5  A    between atoms: C_13  and  N_14 
REMARK       I    between atoms: N_14  and  C_15 
REMARK    6  A    between atoms: C_15  and  C_16 
REMARK    7  A    between atoms: C_16  and  C_17 
REMARK    8  A    between atoms: C_19  and  N_20 
ROOT
HETATM    1  C   UNL     1     -44.992  60.140 -50.952  1.00  0.00     0.032 A 
HETATM    2  C   UNL     1     -44.247  60.709 -51.991  1.00  0.00     0.019 A 
HETATM    3  C   UNL     1     -43.822  59.925 -53.072  1.00  0.00     0.030 A 
HETATM    4  C   UNL     1     -44.105  58.558 -53.117  1.00  0.00     0.034 A 
HETATM    5  C   UNL     1     -44.813  57.980 -52.059  1.00  0.00     0.030 A 
HETATM    6  C   UNL     1     -45.264  58.766 -50.990  1.00  0.00     0.019 A 
ENDROOT
BRANCH   4   7
HETATM    7  N   UNL     1     -43.670  57.706 -54.155  1.00  0.00    -0.327 N 
HETATM    8  C   UNL     1     -42.362  57.363 -54.435  1.00  0.00     0.223 C 
HETATM    9  O   UNL     1     -41.376  57.830 -53.864  1.00  0.00    -0.273 OA
HETATM   10  H   UNL     1     -44.401  57.426 -54.795  1.00  0.00     0.169 HD
BRANCH   8  11
HETATM   11  C   UNL     1     -42.151  56.263 -55.469  1.00  0.00     0.128 C 
BRANCH  11  12
HETATM   12  C   UNL     1     -41.988  54.818 -55.020  1.00  0.00     0.158 A 
HETATM   13  S   UNL     1     -43.012  54.285 -53.629  1.00  0.00    -0.077 SA
HETATM   14  C   UNL     1     -41.583  53.896 -52.687  1.00  0.00     0.168 A 
HETATM   15  N   UNL     1     -40.455  54.114 -53.281  1.00  0.00    -0.189 NA
HETATM   16  C   UNL     1     -40.570  54.534 -54.582  1.00  0.00     0.260 A 
HETATM   17  O   UNL     1     -39.606  54.728 -55.312  1.00  0.00    -0.270 OA
BRANCH  14  18
HETATM   18  N   UNL     1     -41.699  53.449 -51.387  1.00  0.00    -0.360 N 
HETATM   19  C   UNL     1     -40.609  52.803 -50.646  1.00  0.00     0.125 C 
HETATM   20  C   UNL     1     -39.814  53.869 -49.890  1.00  0.00     0.020 C 
HETATM   21  C   UNL     1     -40.726  54.687 -48.970  1.00  0.00     0.003 C 
HETATM   22  C   UNL     1     -41.941  55.231 -49.726  1.00  0.00     0.020 C 
HETATM   23  C   UNL     1     -42.657  54.114 -50.487  1.00  0.00     0.125 C 
ENDBRANCH  14  18
ENDBRANCH  11  12
ENDBRANCH   8  11
ENDBRANCH   4   7
BRANCH   1  24
HETATM   24  C   UNL     1     -45.473  60.928 -49.772  1.00  0.00     0.256 C 
HETATM   25  N   UNL     1     -44.605  60.990 -48.696  1.00  0.00    -0.323 N 
HETATM   26  H   UNL     1     -43.687  60.588 -48.815  1.00  0.00     0.169 HD
HETATM   27  O   UNL     1     -46.574  61.465 -49.848  1.00  0.00    -0.267 OA
BRANCH  25  28
HETATM   28  C   UNL     1     -44.835  61.582 -47.435  1.00  0.00     0.035 A 
HETATM   29  C   UNL     1     -45.025  60.867 -46.254  1.00  0.00     0.030 A 
HETATM   30  C   UNL     1     -45.231  61.539 -45.042  1.00  0.00     0.010 A 
HETATM   31  C   UNL     1     -45.237  62.938 -44.983  1.00  0.00    -0.054 A 
HETATM   32  C   UNL     1     -45.051  63.652 -46.172  1.00  0.00     0.010 A 
HETATM   33  C   UNL     1     -44.858  62.981 -47.385  1.00  0.00     0.030 A 
BRANCH  31  34
HETATM   34  C   UNL     1     -45.448  63.686 -43.676  1.00  0.00     0.014 C 
HETATM   35  C   UNL     1     -46.513  64.781 -43.833  1.00  0.00     0.015 C 
BRANCH  34  36
HETATM   36  C   UNL     1     -44.142  64.286 -43.118  1.00  0.00     0.004 C 
HETATM   37  C   UNL     1     -43.102  63.229 -42.769  1.00  0.00     0.006 C 
ENDBRANCH  34  36
ENDBRANCH  31  34
ENDBRANCH  25  28
ENDBRANCH   1  24
TORSDOF 8
ENDMDL
MODEL 3
REMARK VINA RESULT:      -7.9      7.035      9.035
REMARK  8 active torsions:
REMARK  status: ('A' for Active; 'I' for Inactive)
REMARK    1  A    between atoms: C_2  and  C_3 
REMARK    2  A    between atoms: C_3  and  C_4 
REMARK    3  A    between atoms: C_7  and  N_8 
REMARK       I    between atoms: N_8  and  C_9 
REMARK    4  A    between atoms: C_9  and  C_10 
REMARK    5  A    between atoms: C_13  and  N_14 
REMARK       I    between atoms: N_14  and  C_15 
REMARK    6  A    between atoms: C_15  and  C_16 
REMARK    7  A    between atoms: C_16  and  C_17 
REMARK    8  A    between atoms: C_19  and  N_20 
ROOT
HETATM    1  C   UNL     1     -43.492  56.059 -57.838  1.00  0.00     0.032 A 
HETATM    2  C   UNL     1     -43.601  55.064 -58.816  1.00  0.00     0.019 A 
HETATM    3  C   UNL     1     -44.415  55.260 -59.941  1.00  0.00     0.030 A 
HETATM    4  C   UNL     1     -45.156  56.434 -60.089  1.00  0.00     0.034 A 
HETATM    5  C   UNL     1     -45.080  57.411 -59.092  1.00  0.00     0.030 A 
HETATM    6  C   UNL     1     -44.246  57.231 -57.981  1.00  0.00     0.019 A 
ENDROOT
BRANCH   4   7
HETATM    7  N   UNL     1     -46.026  56.675 -61.175  1.00  0.00    -0.327 N 
HETATM    8  C   UNL     1     -47.398  56.522 -61.170  1.00  0.00     0.223 C 
HETATM    9  O   UNL     1     -48.050  56.065 -60.231  1.00  0.00    -0.273 OA
HETATM   10  H   UNL     1     -45.555  56.872 -62.047  1.00  0.00     0.169 HD
BRANCH   8  11
HETATM   11  C   UNL     1     -48.147  57.044 -62.391  1.00  0.00     0.128 C 
BRANCH  11  12
HETATM   12  C   UNL     1     -48.340  58.540 -62.583  1.00  0.00     0.158 A 
HETATM   13  S   UNL     1     -47.851  59.601 -61.204  1.00  0.00    -0.077 SA
HETATM   14  C   UNL     1     -49.486  60.222 -61.060  1.00  0.00     0.168 A 
HETATM   15  N   UNL     1     -50.335  59.738 -61.908  1.00  0.00    -0.189 NA
HETATM   16  C   UNL     1     -49.791  58.882 -62.831  1.00  0.00     0.260 A 
HETATM   17  O   UNL     1     -50.437  58.380 -63.743  1.00  0.00    -0.270 OA
BRANCH  14  18
HETATM   18  N   UNL     1     -49.812  61.117 -60.063  1.00  0.00    -0.360 N 
HETATM   19  C   UNL     1     -51.192  61.463 -59.696  1.00  0.00     0.125 C 
HETATM   20  C   UNL     1     -51.671  60.519 -58.592  1.00  0.00     0.020 C 
HETATM   21  C   UNL     1     -50.730  60.560 -57.384  1.00  0.00     0.003 C 
HETATM   22  C   UNL     1     -49.273  60.347 -57.802  1.00  0.00     0.020 C 
HETATM   23  C   UNL     1     -48.883  61.298 -58.934  1.00  0.00     0.125 C 
ENDBRANCH  14  18
ENDBRANCH  11  12
ENDBRANCH   8  11
ENDBRANCH   4   7
BRANCH   1  24
HETATM   24  C   UNL     1     -42.637  55.906 -56.617  1.00  0.00     0.256 C 
HETATM   25  N   UNL     1     -42.602  54.637 -56.064  1.00  0.00    -0.323 N 
HETATM   26  H   UNL     1     -43.070  53.897 -56.566  1.00  0.00     0.169 HD
HETATM   27  O   UNL     1     -42.029  56.891 -56.212  1.00  0.00    -0.267 OA
BRANCH  25  28
HETATM   28  C   UNL     1     -41.959  54.233 -54.874  1.00  0.00     0.035 A 
HETATM   29  C   UNL     1     -42.412  54.540 -53.592  1.00  0.00     0.030 A 
HETATM   30  C   UNL     1     -41.718  54.082 -52.464  1.00  0.00     0.010 A 
HETATM   31  C   UNL     1     -40.566  53.297 -52.594  1.00  0.00    -0.054 A 
HETATM   32  C   UNL     1     -40.112  52.995 -53.883  1.00  0.00     0.010 A 
HETATM   33  C   UNL     1     -40.798  53.463 -55.009  1.00  0.00     0.030 A 
BRANCH  31  34
HETATM   34  C   UNL     1     -39.805  52.780 -51.384  1.00  0.00     0.014 C 
HETATM   35  C   UNL     1     -39.563  51.268 -51.487  1.00  0.00     0.015 C 
BRANCH  34  36
HETATM   36  C   UNL     1     -40.503  53.121 -50.052  1.00  0.00     0.004 C 
HETATM   37  C   UNL     1     -39.798  54.224 -49.273  1.00  0.00     0.006 C 
ENDBRANCH  34  36
ENDBRANCH  31  34
ENDBRANCH  25  28
ENDBRANCH   1  24
TORSDOF 8
ENDMDL
MODEL 4
REMARK VINA RESULT:      -7.9      2.760      4.433
REMARK  8 active torsions:
REMARK  status: ('A' for Active; 'I' for Inactive)
REMARK    1  A    between atoms: C_2  and  C_3 
REMARK    2  A    between atoms: C_3  and  C_4 
REMARK    3  A    between atoms: C_7  and  N_8 
REMARK       I    between atoms: N_8  and  C_9 
REMARK    4  A    between atoms: C_9  and  C_10 
REMARK    5  A    between atoms: C_13  and  N_14 
REMARK       I    between atoms: N_14  and  C_15 
REMARK    6  A    between atoms: C_15  and  C_16 
REMARK    7  A    between atoms: C_16  and  C_17 
REMARK    8  A    between atoms: C_19  and  N_20 
ROOT
HETATM    1  C   UNL     1     -42.325  59.009 -53.409  1.00  0.00     0.032 A 
HETATM    2  C   UNL     1     -43.402  59.195 -54.284  1.00  0.00     0.019 A 
HETATM    3  C   UNL     1     -44.237  60.313 -54.155  1.00  0.00     0.030 A 
HETATM    4  C   UNL     1     -44.031  61.243 -53.135  1.00  0.00     0.034 A 
HETATM    5  C   UNL     1     -42.981  61.036 -52.234  1.00  0.00     0.030 A 
HETATM    6  C   UNL     1     -42.128  59.935 -52.377  1.00  0.00     0.019 A 
ENDROOT
BRANCH   4   7
HETATM    7  N   UNL     1     -44.860  62.367 -52.925  1.00  0.00    -0.327 N 
HETATM    8  C   UNL     1     -46.006  62.402 -52.156  1.00  0.00     0.223 C 
HETATM    9  O   UNL     1     -46.517  61.423 -51.611  1.00  0.00    -0.273 OA
HETATM   10  H   UNL     1     -44.620  63.170 -53.490  1.00  0.00     0.169 HD
BRANCH   8  11
HETATM   11  C   UNL     1     -46.618  63.776 -51.905  1.00  0.00     0.128 C 
BRANCH  11  12
HETATM   12  C   UNL     1     -47.895  64.183 -52.624  1.00  0.00     0.158 A 
HETATM   13  S   UNL     1     -49.449  63.637 -51.878  1.00  0.00    -0.077 SA
HETATM   14  C   UNL     1     -49.869  62.746 -53.330  1.00  0.00     0.168 A 
HETATM   15  N   UNL     1     -49.000  62.810 -54.287  1.00  0.00    -0.189 NA
HETATM   16  C   UNL     1     -47.935  63.635 -54.032  1.00  0.00     0.260 A 
HETATM   17  O   UNL     1     -47.050  63.861 -54.848  1.00  0.00    -0.270 OA
BRANCH  14  18
HETATM   18  N   UNL     1     -51.025  61.995 -53.384  1.00  0.00    -0.360 N 
HETATM   19  C   UNL     1     -52.119  62.109 -52.411  1.00  0.00     0.125 C 
HETATM   20  C   UNL     1     -53.128  63.145 -52.907  1.00  0.00     0.020 C 
HETATM   21  C   UNL     1     -53.640  62.791 -54.306  1.00  0.00     0.003 C 
HETATM   22  C   UNL     1     -52.486  62.527 -55.276  1.00  0.00     0.020 C 
HETATM   23  C   UNL     1     -51.502  61.512 -54.692  1.00  0.00     0.125 C 
ENDBRANCH  14  18
ENDBRANCH  11  12
ENDBRANCH   8  11
ENDBRANCH   4   7
BRANCH   1  24
HETATM   24  C   UNL     1     -41.400  57.834 -53.499  1.00  0.00     0.256 C 
HETATM   25  N   UNL     1     -42.005  56.608 -53.716  1.00  0.00    -0.323 N 
HETATM   26  H   UNL     1     -42.999  56.604 -53.890  1.00  0.00     0.169 HD
HETATM   27  O   UNL     1     -40.195  58.040 -53.392  1.00  0.00    -0.267 OA
BRANCH  25  28
HETATM   28  C   UNL     1     -41.390  55.338 -53.753  1.00  0.00     0.035 A 
HETATM   29  C   UNL     1     -40.778  54.793 -54.880  1.00  0.00     0.030 A 
HETATM   30  C   UNL     1     -40.176  53.530 -54.822  1.00  0.00     0.010 A 
HETATM   31  C   UNL     1     -40.160  52.790 -53.633  1.00  0.00    -0.054 A 
HETATM   32  C   UNL     1     -40.781  53.339 -52.504  1.00  0.00     0.010 A 
HETATM   33  C   UNL     1     -41.393  54.596 -52.566  1.00  0.00     0.030 A 
BRANCH  31  34
HETATM   34  C   UNL     1     -39.503  51.422 -53.545  1.00  0.00     0.014 C 
HETATM   35  C   UNL     1     -40.279  50.383 -54.366  1.00  0.00     0.015 C 
BRANCH  34  36
HETATM   36  C   UNL     1     -39.334  50.938 -52.091  1.00  0.00     0.004 C 
HETATM   37  C   UNL     1     -39.747  49.484 -51.894  1.00  0.00     0.006 C 
ENDBRANCH  34  36
ENDBRANCH  31  34
ENDBRANCH  25  28
ENDBRANCH   1  24
TORSDOF 8
ENDMDL
MODEL 5
REMARK VINA RESULT:      -7.6      3.555      5.397
REMARK  8 active torsions:
REMARK  status: ('A' for Active; 'I' for Inactive)
REMARK    1  A    between atoms: C_2  and  C_3 
REMARK    2  A    between atoms: C_3  and  C_4 
REMARK    3  A    between atoms: C_7  and  N_8 
REMARK       I    between atoms: N_8  and  C_9 
REMARK    4  A    between atoms: C_9  and  C_10 
REMARK    5  A    between atoms: C_13  and  N_14 
REMARK       I    between atoms: N_14  and  C_15 
REMARK    6  A    between atoms: C_15  and  C_16 
REMARK    7  A    between atoms: C_16  and  C_17 
REMARK    8  A    between atoms: C_19  and  N_20 
ROOT
HETATM    1  C   UNL     1     -43.704  58.039 -52.647  1.00  0.00     0.032 A 
HETATM    2  C   UNL     1     -44.353  58.345 -51.445  1.00  0.00     0.019 A 
HETATM    3  C   UNL     1     -45.406  59.270 -51.422  1.00  0.00     0.030 A 
HETATM    4  C   UNL     1     -45.805  59.926 -52.588  1.00  0.00     0.034 A 
HETATM    5  C   UNL     1     -45.129  59.652 -53.782  1.00  0.00     0.030 A 
HETATM    6  C   UNL     1     -44.095  58.708 -53.814  1.00  0.00     0.019 A 
ENDROOT
BRANCH   4   7
HETATM    7  N   UNL     1     -46.828  60.898 -52.625  1.00  0.00    -0.327 N 
HETATM    8  C   UNL     1     -46.666  62.259 -52.465  1.00  0.00     0.223 C 
HETATM    9  O   UNL     1     -45.603  62.811 -52.178  1.00  0.00    -0.273 OA
HETATM   10  H   UNL     1     -47.762  60.514 -52.668  1.00  0.00     0.169 HD
BRANCH   8  11
HETATM   11  C   UNL     1     -47.883  63.130 -52.755  1.00  0.00     0.128 C 
BRANCH  11  12
HETATM   12  C   UNL     1     -49.263  62.499 -52.859  1.00  0.00     0.158 A 
HETATM   13  S   UNL     1     -49.916  62.257 -54.527  1.00  0.00    -0.077 SA
HETATM   14  C   UNL     1     -51.295  63.283 -54.170  1.00  0.00     0.168 A 
HETATM   15  N   UNL     1     -51.321  63.773 -52.973  1.00  0.00    -0.189 NA
HETATM   16  C   UNL     1     -50.307  63.337 -52.158  1.00  0.00     0.260 A 
HETATM   17  O   UNL     1     -50.213  63.651 -50.978  1.00  0.00    -0.270 OA
BRANCH  14  18
HETATM   18  N   UNL     1     -52.228  63.569 -55.144  1.00  0.00    -0.360 N 
HETATM   19  C   UNL     1     -52.209  62.984 -56.491  1.00  0.00     0.125 C 
HETATM   20  C   UNL     1     -53.041  61.702 -56.495  1.00  0.00     0.020 C 
HETATM   21  C   UNL     1     -54.468  61.968 -56.007  1.00  0.00     0.003 C 
HETATM   22  C   UNL     1     -54.474  62.714 -54.671  1.00  0.00     0.020 C 
HETATM   23  C   UNL     1     -53.588  63.960 -54.735  1.00  0.00     0.125 C 
ENDBRANCH  14  18
ENDBRANCH  11  12
ENDBRANCH   8  11
ENDBRANCH   4   7
BRANCH   1  24
HETATM   24  C   UNL     1     -42.573  57.059 -52.732  1.00  0.00     0.256 C 
HETATM   25  N   UNL     1     -42.939  55.727 -52.831  1.00  0.00    -0.323 N 
HETATM   26  H   UNL     1     -43.921  55.521 -52.933  1.00  0.00     0.169 HD
HETATM   27  O   UNL     1     -41.428  57.499 -52.723  1.00  0.00    -0.267 OA
BRANCH  25  28
HETATM   28  C   UNL     1     -42.090  54.599 -52.835  1.00  0.00     0.035 A 
HETATM   29  C   UNL     1     -41.320  54.191 -51.749  1.00  0.00     0.030 A 
HETATM   30  C   UNL     1     -40.517  53.046 -51.835  1.00  0.00     0.010 A 
HETATM   31  C   UNL     1     -40.480  52.277 -53.005  1.00  0.00    -0.054 A 
HETATM   32  C   UNL     1     -41.252  52.693 -54.095  1.00  0.00     0.010 A 
HETATM   33  C   UNL     1     -42.044  53.843 -54.013  1.00  0.00     0.030 A 
BRANCH  31  34
HETATM   34  C   UNL     1     -39.625  51.025 -53.117  1.00  0.00     0.014 C 
HETATM   35  C   UNL     1     -39.592  50.505 -54.561  1.00  0.00     0.015 C 
BRANCH  34  36
HETATM   36  C   UNL     1     -40.079  49.908 -52.156  1.00  0.00     0.004 C 
HETATM   37  C   UNL     1     -39.230  49.825 -50.893  1.00  0.00     0.006 C 
ENDBRANCH  34  36
ENDBRANCH  31  34
ENDBRANCH  25  28
ENDBRANCH   1  24
TORSDOF 8
ENDMDL
MODEL 6
REMARK VINA RESULT:      -7.5      4.264      5.186
REMARK  8 active torsions:
REMARK  status: ('A' for Active; 'I' for Inactive)
REMARK    1  A    between atoms: C_2  and  C_3 
REMARK    2  A    between atoms: C_3  and  C_4 
REMARK    3  A    between atoms: C_7  and  N_8 
REMARK       I    between atoms: N_8  and  C_9 
REMARK    4  A    between atoms: C_9  and  C_10 
REMARK    5  A    between atoms: C_13  and  N_14 
REMARK       I    between atoms: N_14  and  C_15 
REMARK    6  A    between atoms: C_15  and  C_16 
REMARK    7  A    between atoms: C_16  and  C_17 
REMARK    8  A    between atoms: C_19  and  N_20 
ROOT
HETATM    1  C   UNL     1     -43.465  58.099 -54.876  1.00  0.00     0.032 A 
HETATM    2  C   UNL     1     -44.322  58.711 -53.955  1.00  0.00     0.019 A 
HETATM    3  C   UNL     1     -45.318  59.596 -54.392  1.00  0.00     0.030 A 
HETATM    4  C   UNL     1     -45.452  59.907 -55.746  1.00  0.00     0.034 A 
HETATM    5  C   UNL     1     -44.568  59.329 -56.662  1.00  0.00     0.030 A 
HETATM    6  C   UNL     1     -43.590  58.422 -56.233  1.00  0.00     0.019 A 
ENDROOT
BRANCH   4   7
HETATM    7  N   UNL     1     -46.405  60.821 -56.246  1.00  0.00    -0.327 N 
HETATM    8  C   UNL     1     -46.274  62.195 -56.285  1.00  0.00     0.223 C 
HETATM    9  O   UNL     1     -45.333  62.826 -55.804  1.00  0.00    -0.273 OA
HETATM   10  H   UNL     1     -47.293  60.403 -56.489  1.00  0.00     0.169 HD
BRANCH   8  11
HETATM   11  C   UNL     1     -47.341  62.960 -57.062  1.00  0.00     0.128 C 
BRANCH  11  12
HETATM   12  C   UNL     1     -48.482  63.639 -56.319  1.00  0.00     0.158 A 
HETATM   13  S   UNL     1     -48.881  62.987 -54.681  1.00  0.00    -0.077 SA
HETATM   14  C   UNL     1     -50.513  62.602 -55.197  1.00  0.00     0.168 A 
HETATM   15  N   UNL     1     -50.787  62.899 -56.427  1.00  0.00    -0.189 NA
HETATM   16  C   UNL     1     -49.777  63.545 -57.093  1.00  0.00     0.260 A 
HETATM   17  O   UNL     1     -49.885  63.954 -58.242  1.00  0.00    -0.270 OA
BRANCH  14  18
HETATM   18  N   UNL     1     -51.391  61.972 -54.340  1.00  0.00    -0.360 N 
HETATM   19  C   UNL     1     -51.128  61.763 -52.911  1.00  0.00     0.125 C 
HETATM   20  C   UNL     1     -51.679  62.950 -52.119  1.00  0.00     0.020 C 
HETATM   21  C   UNL     1     -53.170  63.158 -52.403  1.00  0.00     0.003 C 
HETATM   22  C   UNL     1     -53.450  63.223 -53.906  1.00  0.00     0.020 C 
HETATM   23  C   UNL     1     -52.834  62.025 -54.631  1.00  0.00     0.125 C 
ENDBRANCH  14  18
ENDBRANCH  11  12
ENDBRANCH   8  11
ENDBRANCH   4   7
BRANCH   1  24
HETATM   24  C   UNL     1     -42.383  57.145 -54.467  1.00  0.00     0.256 C 
HETATM   25  N   UNL     1     -42.594  55.819 -54.801  1.00  0.00    -0.323 N 
HETATM   26  H   UNL     1     -43.400  55.604 -55.369  1.00  0.00     0.169 HD
HETATM   27  O   UNL     1     -41.401  57.601 -53.892  1.00  0.00    -0.267 OA
BRANCH  25  28
HETATM   28  C   UNL     1     -41.792  54.707 -54.464  1.00  0.00     0.035 A 
HETATM   29  C   UNL     1     -40.810  54.167 -55.291  1.00  0.00     0.030 A 
HETATM   30  C   UNL     1     -40.047  53.070 -54.867  1.00  0.00     0.010 A 
HETATM   31  C   UNL     1     -40.241  52.500 -53.603  1.00  0.00    -0.054 A 
HETATM   32  C   UNL     1     -41.233  53.044 -52.777  1.00  0.00     0.010 A 
HETATM   33  C   UNL     1     -42.002  54.131 -53.205  1.00  0.00     0.030 A 
BRANCH  31  34
HETATM   34  C   UNL     1     -39.418  51.317 -53.118  1.00  0.00     0.014 C 
HETATM   35  C   UNL     1     -39.909  50.007 -53.750  1.00  0.00     0.015 C 
BRANCH  34  36
HETATM   36  C   UNL     1     -39.399  51.196 -51.582  1.00  0.00     0.004 C 
HETATM   37  C   UNL     1     -39.688  49.783 -51.091  1.00  0.00     0.006 C 
ENDBRANCH  34  36
ENDBRANCH  31  34
ENDBRANCH  25  28
ENDBRANCH   1  24
TORSDOF 8
ENDMDL
MODEL 7
REMARK VINA RESULT:      -7.5      1.926      2.273
REMARK  8 active torsions:
REMARK  status: ('A' for Active; 'I' for Inactive)
REMARK    1  A    between atoms: C_2  and  C_3 
REMARK    2  A    between atoms: C_3  and  C_4 
REMARK    3  A    between atoms: C_7  and  N_8 
REMARK       I    between atoms: N_8  and  C_9 
REMARK    4  A    between atoms: C_9  and  C_10 
REMARK    5  A    between atoms: C_13  and  N_14 
REMARK       I    between atoms: N_14  and  C_15 
REMARK    6  A    between atoms: C_15  and  C_16 
REMARK    7  A    between atoms: C_16  and  C_17 
REMARK    8  A    between atoms: C_19  and  N_20 
ROOT
HETATM    1  C   UNL     1     -43.898  58.044 -54.343  1.00  0.00     0.032 A 
HETATM    2  C   UNL     1     -43.516  58.860 -55.415  1.00  0.00     0.019 A 
HETATM    3  C   UNL     1     -43.926  60.199 -55.469  1.00  0.00     0.030 A 
HETATM    4  C   UNL     1     -44.748  60.734 -54.476  1.00  0.00     0.034 A 
HETATM    5  C   UNL     1     -45.165  59.909 -53.427  1.00  0.00     0.030 A 
HETATM    6  C   UNL     1     -44.734  58.577 -53.354  1.00  0.00     0.019 A 
ENDROOT
BRANCH   4   7
HETATM    7  N   UNL     1     -45.230  62.062 -54.494  1.00  0.00    -0.327 N 
HETATM    8  C   UNL     1     -46.377  62.504 -55.120  1.00  0.00     0.223 C 
HETATM    9  O   UNL     1     -47.102  61.807 -55.833  1.00  0.00    -0.273 OA
HETATM   10  H   UNL     1     -44.595  62.738 -54.092  1.00  0.00     0.169 HD
BRANCH   8  11
HETATM   11  C   UNL     1     -46.807  63.937 -54.826  1.00  0.00     0.128 C 
BRANCH  11  12
HETATM   12  C   UNL     1     -47.150  64.351 -53.403  1.00  0.00     0.158 A 
HETATM   13  S   UNL     1     -45.757  64.625 -52.283  1.00  0.00    -0.077 SA
HETATM   14  C   UNL     1     -46.338  63.370 -51.203  1.00  0.00     0.168 A 
HETATM   15  N   UNL     1     -47.430  62.784 -51.575  1.00  0.00    -0.189 NA
HETATM   16  C   UNL     1     -47.994  63.305 -52.712  1.00  0.00     0.260 A 
HETATM   17  O   UNL     1     -49.060  62.913 -53.172  1.00  0.00    -0.270 OA
BRANCH  14  18
HETATM   18  N   UNL     1     -45.619  63.023 -50.078  1.00  0.00    -0.360 N 
HETATM   19  C   UNL     1     -45.912  61.844 -49.253  1.00  0.00     0.125 C 
HETATM   20  C   UNL     1     -45.102  60.654 -49.770  1.00  0.00     0.020 C 
HETATM   21  C   UNL     1     -43.605  60.976 -49.798  1.00  0.00     0.003 C 
HETATM   22  C   UNL     1     -43.328  62.289 -50.533  1.00  0.00     0.020 C 
HETATM   23  C   UNL     1     -44.203  63.419 -49.987  1.00  0.00     0.125 C 
ENDBRANCH  14  18
ENDBRANCH  11  12
ENDBRANCH   8  11
ENDBRANCH   4   7
BRANCH   1  24
HETATM   24  C   UNL     1     -43.490  56.606 -54.232  1.00  0.00     0.256 C 
HETATM   25  N   UNL     1     -42.150  56.381 -53.965  1.00  0.00    -0.323 N 
HETATM   26  H   UNL     1     -41.572  57.186 -53.773  1.00  0.00     0.169 HD
HETATM   27  O   UNL     1     -44.357  55.750 -54.368  1.00  0.00    -0.267 OA
BRANCH  25  28
HETATM   28  C   UNL     1     -41.482  55.140 -53.899  1.00  0.00     0.035 A 
HETATM   29  C   UNL     1     -40.831  54.539 -54.974  1.00  0.00     0.030 A 
HETATM   30  C   UNL     1     -40.177  53.310 -54.814  1.00  0.00     0.010 A 
HETATM   31  C   UNL     1     -40.147  52.665 -53.571  1.00  0.00    -0.054 A 
HETATM   32  C   UNL     1     -40.805  53.270 -52.495  1.00  0.00     0.010 A 
HETATM   33  C   UNL     1     -41.469  54.491 -52.658  1.00  0.00     0.030 A 
BRANCH  31  34
HETATM   34  C   UNL     1     -39.434  51.337 -53.372  1.00  0.00     0.014 C 
HETATM   35  C   UNL     1     -40.078  50.231 -54.219  1.00  0.00     0.015 C 
BRANCH  34  36
HETATM   36  C   UNL     1     -39.374  50.911 -51.892  1.00  0.00     0.004 C 
HETATM   37  C   UNL     1     -39.725  49.444 -51.678  1.00  0.00     0.006 C 
ENDBRANCH  34  36
ENDBRANCH  31  34
ENDBRANCH  25  28
ENDBRANCH   1  24
TORSDOF 8
ENDMDL
MODEL 8
REMARK VINA RESULT:      -7.4      5.840     10.692
REMARK  8 active torsions:
REMARK  status: ('A' for Active; 'I' for Inactive)
REMARK    1  A    between atoms: C_2  and  C_3 
REMARK    2  A    between atoms: C_3  and  C_4 
REMARK    3  A    between atoms: C_7  and  N_8 
REMARK       I    between atoms: N_8  and  C_9 
REMARK    4  A    between atoms: C_9  and  C_10 
REMARK    5  A    between atoms: C_13  and  N_14 
REMARK       I    between atoms: N_14  and  C_15 
REMARK    6  A    between atoms: C_15  and  C_16 
REMARK    7  A    between atoms: C_16  and  C_17 
REMARK    8  A    between atoms: C_19  and  N_20 
ROOT
HETATM    1  C   UNL     1     -43.327  57.645 -56.204  1.00  0.00     0.032 A 
HETATM    2  C   UNL     1     -42.409  58.479 -55.555  1.00  0.00     0.019 A 
HETATM    3  C   UNL     1     -41.854  58.103 -54.324  1.00  0.00     0.030 A 
HETATM    4  C   UNL     1     -42.230  56.908 -53.707  1.00  0.00     0.034 A 
HETATM    5  C   UNL     1     -43.179  56.094 -54.334  1.00  0.00     0.030 A 
HETATM    6  C   UNL     1     -43.714  56.453 -55.578  1.00  0.00     0.019 A 
ENDROOT
BRANCH   4   7
HETATM    7  N   UNL     1     -41.741  56.492 -52.450  1.00  0.00    -0.327 N 
HETATM    8  C   UNL     1     -42.252  56.849 -51.218  1.00  0.00     0.223 C 
HETATM    9  O   UNL     1     -43.162  57.660 -51.043  1.00  0.00    -0.273 OA
HETATM   10  H   UNL     1     -40.874  55.974 -52.493  1.00  0.00     0.169 HD
BRANCH   8  11
HETATM   11  C   UNL     1     -41.693  56.110 -50.007  1.00  0.00     0.128 C 
BRANCH  11  12
HETATM   12  C   UNL     1     -41.592  54.592 -50.023  1.00  0.00     0.158 A 
HETATM   13  S   UNL     1     -39.948  53.894 -50.302  1.00  0.00    -0.077 SA
HETATM   14  C   UNL     1     -40.509  53.070 -51.746  1.00  0.00     0.168 A 
HETATM   15  N   UNL     1     -41.757  53.252 -52.035  1.00  0.00    -0.189 NA
HETATM   16  C   UNL     1     -42.451  53.993 -51.112  1.00  0.00     0.260 A 
HETATM   17  O   UNL     1     -43.653  54.212 -51.195  1.00  0.00    -0.270 OA
BRANCH  14  18
HETATM   18  N   UNL     1     -39.634  52.339 -52.522  1.00  0.00    -0.360 N 
HETATM   19  C   UNL     1     -38.954  51.121 -52.060  1.00  0.00     0.125 C 
HETATM   20  C   UNL     1     -39.810  49.904 -52.411  1.00  0.00     0.020 C 
HETATM   21  C   UNL     1     -40.113  49.856 -53.912  1.00  0.00     0.003 C 
HETATM   22  C   UNL     1     -40.682  51.186 -54.411  1.00  0.00     0.020 C 
HETATM   23  C   UNL     1     -39.793  52.356 -53.986  1.00  0.00     0.125 C 
ENDBRANCH  14  18
ENDBRANCH  11  12
ENDBRANCH   8  11
ENDBRANCH   4   7
BRANCH   1  24
HETATM   24  C   UNL     1     -43.952  57.995 -57.520  1.00  0.00     0.256 C 
HETATM   25  N   UNL     1     -45.308  57.742 -57.627  1.00  0.00    -0.323 N 
HETATM   26  H   UNL     1     -45.791  57.435 -56.797  1.00  0.00     0.169 HD
HETATM   27  O   UNL     1     -43.234  58.486 -58.385  1.00  0.00    -0.267 OA
BRANCH  25  28
HETATM   28  C   UNL     1     -46.125  57.890 -58.770  1.00  0.00     0.035 A 
HETATM   29  C   UNL     1     -46.574  59.113 -59.262  1.00  0.00     0.030 A 
HETATM   30  C   UNL     1     -47.369  59.167 -60.415  1.00  0.00     0.010 A 
HETATM   31  C   UNL     1     -47.718  58.001 -61.107  1.00  0.00    -0.054 A 
HETATM   32  C   UNL     1     -47.267  56.774 -60.606  1.00  0.00     0.010 A 
HETATM   33  C   UNL     1     -46.484  56.719 -59.448  1.00  0.00     0.030 A 
BRANCH  31  34
HETATM   34  C   UNL     1     -48.569  58.038 -62.366  1.00  0.00     0.014 C 
HETATM   35  C   UNL     1     -48.348  56.781 -63.220  1.00  0.00     0.015 C 
BRANCH  34  36
HETATM   36  C   UNL     1     -48.329  59.306 -63.209  1.00  0.00     0.004 C 
HETATM   37  C   UNL     1     -49.591  60.134 -63.413  1.00  0.00     0.006 C 
ENDBRANCH  34  36
ENDBRANCH  31  34
ENDBRANCH  25  28
ENDBRANCH   1  24
TORSDOF 8
ENDMDL
MODEL 9
REMARK VINA RESULT:      -7.2     19.857     23.565
REMARK  8 active torsions:
REMARK  status: ('A' for Active; 'I' for Inactive)
REMARK    1  A    between atoms: C_2  and  C_3 
REMARK    2  A    between atoms: C_3  and  C_4 
REMARK    3  A    between atoms: C_7  and  N_8 
REMARK       I    between atoms: N_8  and  C_9 
REMARK    4  A    between atoms: C_9  and  C_10 
REMARK    5  A    between atoms: C_13  and  N_14 
REMARK       I    between atoms: N_14  and  C_15 
REMARK    6  A    between atoms: C_15  and  C_16 
REMARK    7  A    between atoms: C_16  and  C_17 
REMARK    8  A    between atoms: C_19  and  N_20 
ROOT
HETATM    1  C   UNL     1     -32.728  39.781 -50.479  1.00  0.00     0.032 A 
HETATM    2  C   UNL     1     -32.242  39.748 -51.791  1.00  0.00     0.019 A 
HETATM    3  C   UNL     1     -32.940  40.391 -52.823  1.00  0.00     0.030 A 
HETATM    4  C   UNL     1     -34.146  41.047 -52.568  1.00  0.00     0.034 A 
HETATM    5  C   UNL     1     -34.653  41.045 -51.265  1.00  0.00     0.030 A 
HETATM    6  C   UNL     1     -33.944  40.427 -50.226  1.00  0.00     0.019 A 
ENDROOT
BRANCH   4   7
HETATM    7  N   UNL     1     -34.918  41.677 -53.568  1.00  0.00    -0.327 N 
HETATM    8  C   UNL     1     -36.012  41.138 -54.214  1.00  0.00     0.223 C 
HETATM    9  O   UNL     1     -36.418  39.984 -54.065  1.00  0.00    -0.273 OA
HETATM   10  H   UNL     1     -34.540  42.558 -53.890  1.00  0.00     0.169 HD
BRANCH   8  11
HETATM   11  C   UNL     1     -36.813  42.082 -55.104  1.00  0.00     0.128 C 
BRANCH  11  12
HETATM   12  C   UNL     1     -36.750  41.938 -56.617  1.00  0.00     0.158 A 
HETATM   13  S   UNL     1     -37.926  40.788 -57.368  1.00  0.00    -0.077 SA
HETATM   14  C   UNL     1     -36.614  39.827 -58.027  1.00  0.00     0.168 A 
HETATM   15  N   UNL     1     -35.424  40.259 -57.755  1.00  0.00    -0.189 NA
HETATM   16  C   UNL     1     -35.394  41.446 -57.068  1.00  0.00     0.260 A 
HETATM   17  O   UNL     1     -34.356  42.030 -56.782  1.00  0.00    -0.270 OA
BRANCH  14  18
HETATM   18  N   UNL     1     -36.875  38.668 -58.726  1.00  0.00    -0.360 N 
HETATM   19  C   UNL     1     -38.200  38.040 -58.801  1.00  0.00     0.125 C 
HETATM   20  C   UNL     1     -38.947  38.586 -60.019  1.00  0.00     0.020 C 
HETATM   21  C   UNL     1     -38.139  38.374 -61.303  1.00  0.00     0.003 C 
HETATM   22  C   UNL     1     -36.709  38.899 -61.158  1.00  0.00     0.020 C 
HETATM   23  C   UNL     1     -36.045  38.340 -59.898  1.00  0.00     0.125 C 
ENDBRANCH  14  18
ENDBRANCH  11  12
ENDBRANCH   8  11
ENDBRANCH   4   7
BRANCH   1  24
HETATM   24  C   UNL     1     -32.024  39.113 -49.337  1.00  0.00     0.256 C 
HETATM   25  N   UNL     1     -31.531  39.958 -48.357  1.00  0.00    -0.323 N 
HETATM   26  H   UNL     1     -31.758  40.938 -48.431  1.00  0.00     0.169 HD
HETATM   27  O   UNL     1     -31.951  37.888 -49.343  1.00  0.00    -0.267 OA
BRANCH  25  28
HETATM   28  C   UNL     1     -30.757  39.610 -47.229  1.00  0.00     0.035 A 
HETATM   29  C   UNL     1     -29.412  39.935 -47.069  1.00  0.00     0.030 A 
HETATM   30  C   UNL     1     -28.724  39.563 -45.906  1.00  0.00     0.010 A 
HETATM   31  C   UNL     1     -29.371  38.873 -44.873  1.00  0.00    -0.054 A 
HETATM   32  C   UNL     1     -30.722  38.545 -45.041  1.00  0.00     0.010 A 
HETATM   33  C   UNL     1     -31.405  38.905 -46.207  1.00  0.00     0.030 A 
BRANCH  31  34
HETATM   34  C   UNL     1     -28.648  38.470 -43.598  1.00  0.00     0.014 C 
HETATM   35  C   UNL     1     -29.635  38.286 -42.437  1.00  0.00     0.015 C 
BRANCH  34  36
HETATM   36  C   UNL     1     -27.538  39.466 -43.205  1.00  0.00     0.004 C 
HETATM   37  C   UNL     1     -28.063  40.669 -42.432  1.00  0.00     0.006 C 
ENDBRANCH  34  36
ENDBRANCH  31  34
ENDBRANCH  25  28
ENDBRANCH   1  24
TORSDOF 8
ENDMDL
MODEL 10
REMARK VINA RESULT:      -7.2      6.606      8.252
REMARK  8 active torsions:
REMARK  status: ('A' for Active; 'I' for Inactive)
REMARK    1  A    between atoms: C_2  and  C_3 
REMARK    2  A    between atoms: C_3  and  C_4 
REMARK    3  A    between atoms: C_7  and  N_8 
REMARK       I    between atoms: N_8  and  C_9 
REMARK    4  A    between atoms: C_9  and  C_10 
REMARK    5  A    between atoms: C_13  and  N_14 
REMARK       I    between atoms: N_14  and  C_15 
REMARK    6  A    between atoms: C_15  and  C_16 
REMARK    7  A    between atoms: C_16  and  C_17 
REMARK    8  A    between atoms: C_19  and  N_20 
ROOT
HETATM    1  C   UNL     1     -42.778  57.587 -56.259  1.00  0.00     0.032 A 
HETATM    2  C   UNL     1     -42.229  58.787 -55.789  1.00  0.00     0.019 A 
HETATM    3  C   UNL     1     -42.425  59.982 -56.494  1.00  0.00     0.030 A 
HETATM    4  C   UNL     1     -43.139  59.993 -57.693  1.00  0.00     0.034 A 
HETATM    5  C   UNL     1     -43.651  58.789 -58.186  1.00  0.00     0.030 A 
HETATM    6  C   UNL     1     -43.482  57.597 -57.469  1.00  0.00     0.019 A 
ENDROOT
BRANCH   4   7
HETATM    7  N   UNL     1     -43.335  61.154 -58.473  1.00  0.00    -0.327 N 
HETATM    8  C   UNL     1     -42.473  61.648 -59.431  1.00  0.00     0.223 C 
HETATM    9  O   UNL     1     -41.359  61.185 -59.679  1.00  0.00    -0.273 OA
HETATM   10  H   UNL     1     -44.139  61.705 -58.202  1.00  0.00     0.169 HD
BRANCH   8  11
HETATM   11  C   UNL     1     -42.993  62.794 -60.292  1.00  0.00     0.128 C 
BRANCH  11  12
HETATM   12  C   UNL     1     -44.263  62.616 -61.110  1.00  0.00     0.158 A 
HETATM   13  S   UNL     1     -45.800  62.415 -60.181  1.00  0.00    -0.077 SA
HETATM   14  C   UNL     1     -46.070  60.840 -60.907  1.00  0.00     0.168 A 
HETATM   15  N   UNL     1     -45.162  60.458 -61.747  1.00  0.00    -0.189 NA
HETATM   16  C   UNL     1     -44.185  61.390 -61.989  1.00  0.00     0.260 A 
HETATM   17  O   UNL     1     -43.283  61.220 -62.801  1.00  0.00    -0.270 OA
BRANCH  14  18
HETATM   18  N   UNL     1     -47.153  60.072 -60.537  1.00  0.00    -0.360 N 
HETATM   19  C   UNL     1     -47.355  58.682 -60.968  1.00  0.00     0.125 C 
HETATM   20  C   UNL     1     -46.719  57.741 -59.944  1.00  0.00     0.020 C 
HETATM   21  C   UNL     1     -47.279  57.993 -58.541  1.00  0.00     0.003 C 
HETATM   22  C   UNL     1     -47.201  59.473 -58.163  1.00  0.00     0.020 C 
HETATM   23  C   UNL     1     -47.820  60.350 -59.253  1.00  0.00     0.125 C 
ENDBRANCH  14  18
ENDBRANCH  11  12
ENDBRANCH   8  11
ENDBRANCH   4   7
BRANCH   1  24
HETATM   24  C   UNL     1     -42.602  56.281 -55.547  1.00  0.00     0.256 C 
HETATM   25  N   UNL     1     -41.305  55.967 -55.179  1.00  0.00    -0.323 N 
HETATM   26  H   UNL     1     -40.596  56.669 -55.328  1.00  0.00     0.169 HD
HETATM   27  O   UNL     1     -43.602  55.604 -55.331  1.00  0.00    -0.267 OA
BRANCH  25  28
HETATM   28  C   UNL     1     -40.844  54.773 -54.583  1.00  0.00     0.035 A 
HETATM   29  C   UNL     1     -40.354  53.679 -55.292  1.00  0.00     0.030 A 
HETATM   30  C   UNL     1     -39.900  52.538 -54.617  1.00  0.00     0.010 A 
HETATM   31  C   UNL     1     -39.912  52.474 -53.218  1.00  0.00    -0.054 A 
HETATM   32  C   UNL     1     -40.409  53.574 -52.509  1.00  0.00     0.010 A 
HETATM   33  C   UNL     1     -40.874  54.708 -53.184  1.00  0.00     0.030 A 
BRANCH  31  34
HETATM   34  C   UNL     1     -39.414  51.251 -52.465  1.00  0.00     0.014 C 
HETATM   35  C   UNL     1     -39.768  49.959 -53.213  1.00  0.00     0.015 C 
BRANCH  34  36
HETATM   36  C   UNL     1     -39.938  51.192 -51.016  1.00  0.00     0.004 C 
HETATM   37  C   UNL     1     -39.977  49.777 -50.453  1.00  0.00     0.006 C 
ENDBRANCH  34  36
ENDBRANCH  31  34
ENDBRANCH  25  28
ENDBRANCH   1  24
TORSDOF 8
ENDMDL
