MODEL 1
REMARK VINA RESULT:      -9.1      0.000      0.000
REMARK  6 active torsions:
REMARK  status: ('A' for Active; 'I' for Inactive)
REMARK    1  A    between atoms: C_4  and  C_5 
REMARK    2  A    between atoms: C_14  and  C_15 
REMARK       I    between atoms: C_15  and  N_16 
REMARK    3  A    between atoms: N_16  and  C_17 
REMARK    4  A    between atoms: C_17  and  C_18 
REMARK    5  A    between atoms: C_18  and  N_19 
REMARK       I    between atoms: N_19  and  C_20 
REMARK    6  A    between atoms: C_20  and  C_21 
ROOT
HETATM    1  C   UNL     1     -40.509  53.568 -53.350  1.00  0.00     0.069 A 
HETATM    2  N   UNL     1     -40.982  54.192 -52.239  1.00  0.00    -0.230 NA
HETATM    3  C   UNL     1     -41.288  55.486 -52.421  1.00  0.00     0.139 A 
HETATM    4  C   UNL     1     -41.173  56.235 -53.584  1.00  0.00     0.027 A 
HETATM    5  C   UNL     1     -40.674  55.568 -54.713  1.00  0.00     0.018 A 
HETATM    6  C   UNL     1     -40.339  54.217 -54.578  1.00  0.00     0.033 A 
HETATM    7  N   UNL     1     -41.782  56.302 -51.445  1.00  0.00    -0.349 N 
HETATM    8  H   UNL     1     -41.961  55.990 -50.501  1.00  0.00     0.167 HD
HETATM    9  C   UNL     1     -41.985  57.563 -51.946  1.00  0.00     0.108 A 
HETATM   10  C   UNL     1     -41.613  57.570 -53.286  1.00  0.00     0.061 A 
ENDROOT
BRANCH  10  11
HETATM   11  C   UNL     1     -41.654  58.693 -54.223  1.00  0.00     0.254 C 
HETATM   12  N   UNL     1     -42.542  58.566 -55.270  1.00  0.00    -0.355 N 
HETATM   13  H   UNL     1     -43.103  57.733 -55.360  1.00  0.00     0.162 HD
HETATM   14  O   UNL     1     -40.945  59.685 -54.090  1.00  0.00    -0.268 OA
BRANCH  12  15
HETATM   15  C   UNL     1     -42.696  59.614 -56.264  1.00  0.00     0.142 C 
BRANCH  15  16
HETATM   16  C   UNL     1     -42.098  59.230 -57.622  1.00  0.00     0.142 C 
BRANCH  16  17
HETATM   17  N   UNL     1     -43.031  58.487 -58.452  1.00  0.00    -0.355 N 
HETATM   18  C   UNL     1     -43.195  57.123 -58.330  1.00  0.00     0.258 C 
HETATM   19  O   UNL     1     -42.552  56.477 -57.505  1.00  0.00    -0.267 OA
HETATM   20  H   UNL     1     -43.544  58.976 -59.172  1.00  0.00     0.162 HD
BRANCH  18  21
HETATM   21  C   UNL     1     -44.157  56.509 -59.236  1.00  0.00     0.072 A 
HETATM   22  S   UNL     1     -45.699  57.191 -59.547  1.00  0.00    -0.097 SA
HETATM   23  C   UNL     1     -46.119  55.930 -60.623  1.00  0.00     0.050 A 
HETATM   24  C   UNL     1     -45.109  55.003 -60.751  1.00  0.00     0.009 A 
HETATM   25  C   UNL     1     -43.979  55.338 -59.953  1.00  0.00     0.025 A 
ENDBRANCH  18  21
ENDBRANCH  16  17
ENDBRANCH  15  16
ENDBRANCH  12  15
ENDBRANCH  10  11
BRANCH   1  26
HETATM   26  C   UNL     1     -40.163  52.138 -53.168  1.00  0.00    -0.007 A 
HETATM   27  C   UNL     1     -40.215  51.215 -54.228  1.00  0.00     0.014 A 
HETATM   28  C   UNL     1     -39.876  49.870 -54.041  1.00  0.00     0.001 A 
HETATM   29  C   UNL     1     -39.481  49.417 -52.785  1.00  0.00     0.000 A 
HETATM   30  C   UNL     1     -39.431  50.306 -51.716  1.00  0.00     0.001 A 
HETATM   31  C   UNL     1     -39.770  51.650 -51.907  1.00  0.00     0.014 A 
ENDBRANCH   1  26
TORSDOF 6
ENDMDL
MODEL 2
REMARK VINA RESULT:      -8.7      1.530      1.752
REMARK  6 active torsions:
REMARK  status: ('A' for Active; 'I' for Inactive)
REMARK    1  A    between atoms: C_4  and  C_5 
REMARK    2  A    between atoms: C_14  and  C_15 
REMARK       I    between atoms: C_15  and  N_16 
REMARK    3  A    between atoms: N_16  and  C_17 
REMARK    4  A    between atoms: C_17  and  C_18 
REMARK    5  A    between atoms: C_18  and  N_19 
REMARK       I    between atoms: N_19  and  C_20 
REMARK    6  A    between atoms: C_20  and  C_21 
ROOT
HETATM    1  C   UNL     1     -40.586  53.718 -53.154  1.00  0.00     0.069 A 
HETATM    2  N   UNL     1     -40.835  54.263 -51.935  1.00  0.00    -0.230 NA
HETATM    3  C   UNL     1     -41.142  55.570 -51.967  1.00  0.00     0.139 A 
HETATM    4  C   UNL     1     -41.226  56.401 -53.076  1.00  0.00     0.027 A 
HETATM    5  C   UNL     1     -40.955  55.813 -54.322  1.00  0.00     0.018 A 
HETATM    6  C   UNL     1     -40.629  54.453 -54.344  1.00  0.00     0.033 A 
HETATM    7  N   UNL     1     -41.434  56.316 -50.863  1.00  0.00    -0.349 N 
HETATM    8  H   UNL     1     -41.444  55.938 -49.926  1.00  0.00     0.167 HD
HETATM    9  C   UNL     1     -41.698  57.612 -51.229  1.00  0.00     0.108 A 
HETATM   10  C   UNL     1     -41.577  57.713 -52.610  1.00  0.00     0.061 A 
ENDROOT
BRANCH  10  11
HETATM   11  C   UNL     1     -41.765  58.901 -53.444  1.00  0.00     0.254 C 
HETATM   12  N   UNL     1     -43.073  59.282 -53.655  1.00  0.00    -0.355 N 
HETATM   13  H   UNL     1     -43.827  58.746 -53.255  1.00  0.00     0.162 HD
HETATM   14  O   UNL     1     -40.822  59.521 -53.926  1.00  0.00    -0.268 OA
BRANCH  12  15
HETATM   15  C   UNL     1     -43.402  60.453 -54.449  1.00  0.00     0.142 C 
BRANCH  15  16
HETATM   16  C   UNL     1     -44.448  60.156 -55.531  1.00  0.00     0.142 C 
BRANCH  16  17
HETATM   17  N   UNL     1     -43.881  59.472 -56.680  1.00  0.00    -0.355 N 
HETATM   18  C   UNL     1     -43.842  58.096 -56.769  1.00  0.00     0.258 C 
HETATM   19  O   UNL     1     -44.294  57.389 -55.871  1.00  0.00    -0.267 OA
HETATM   20  H   UNL     1     -43.459  60.019 -57.418  1.00  0.00     0.162 HD
BRANCH  18  21
HETATM   21  C   UNL     1     -43.233  57.548 -57.974  1.00  0.00     0.072 A 
HETATM   22  S   UNL     1     -42.236  58.480 -59.011  1.00  0.00    -0.097 SA
HETATM   23  C   UNL     1     -41.981  57.161 -60.070  1.00  0.00     0.050 A 
HETATM   24  C   UNL     1     -42.638  56.027 -59.648  1.00  0.00     0.009 A 
HETATM   25  C   UNL     1     -43.357  56.250 -58.440  1.00  0.00     0.025 A 
ENDBRANCH  18  21
ENDBRANCH  16  17
ENDBRANCH  15  16
ENDBRANCH  12  15
ENDBRANCH  10  11
BRANCH   1  26
HETATM   26  C   UNL     1     -40.242  52.276 -53.139  1.00  0.00    -0.007 A 
HETATM   27  C   UNL     1     -40.339  51.472 -54.289  1.00  0.00     0.014 A 
HETATM   28  C   UNL     1     -40.002  50.114 -54.259  1.00  0.00     0.001 A 
HETATM   29  C   UNL     1     -39.563  49.529 -53.075  1.00  0.00     0.000 A 
HETATM   30  C   UNL     1     -39.467  50.298 -51.920  1.00  0.00     0.001 A 
HETATM   31  C   UNL     1     -39.805  51.655 -51.953  1.00  0.00     0.014 A 
ENDBRANCH   1  26
TORSDOF 6
ENDMDL
MODEL 3
REMARK VINA RESULT:      -8.2      2.706      5.186
REMARK  6 active torsions:
REMARK  status: ('A' for Active; 'I' for Inactive)
REMARK    1  A    between atoms: C_4  and  C_5 
REMARK    2  A    between atoms: C_14  and  C_15 
REMARK       I    between atoms: C_15  and  N_16 
REMARK    3  A    between atoms: N_16  and  C_17 
REMARK    4  A    between atoms: C_17  and  C_18 
REMARK    5  A    between atoms: C_18  and  N_19 
REMARK       I    between atoms: N_19  and  C_20 
REMARK    6  A    between atoms: C_20  and  C_21 
ROOT
HETATM    1  C   UNL     1     -40.986  53.774 -54.257  1.00  0.00     0.069 A 
HETATM    2  N   UNL     1     -41.828  53.734 -55.323  1.00  0.00    -0.230 NA
HETATM    3  C   UNL     1     -42.247  54.940 -55.740  1.00  0.00     0.139 A 
HETATM    4  C   UNL     1     -41.929  56.184 -55.214  1.00  0.00     0.027 A 
HETATM    5  C   UNL     1     -41.065  56.195 -54.108  1.00  0.00     0.018 A 
HETATM    6  C   UNL     1     -40.597  54.965 -53.633  1.00  0.00     0.033 A 
HETATM    7  N   UNL     1     -43.091  55.135 -56.795  1.00  0.00    -0.349 N 
HETATM    8  H   UNL     1     -43.465  54.380 -57.351  1.00  0.00     0.167 HD
HETATM    9  C   UNL     1     -43.332  56.476 -56.961  1.00  0.00     0.108 A 
HETATM   10  C   UNL     1     -42.624  57.174 -55.988  1.00  0.00     0.061 A 
ENDROOT
BRANCH  10  11
HETATM   11  C   UNL     1     -42.579  58.621 -55.776  1.00  0.00     0.254 C 
HETATM   12  N   UNL     1     -43.632  59.154 -55.064  1.00  0.00    -0.355 N 
HETATM   13  H   UNL     1     -44.374  58.557 -54.735  1.00  0.00     0.162 HD
HETATM   14  O   UNL     1     -41.665  59.319 -56.205  1.00  0.00    -0.268 OA
BRANCH  12  15
HETATM   15  C   UNL     1     -43.704  60.574 -54.767  1.00  0.00     0.142 C 
BRANCH  15  16
HETATM   16  C   UNL     1     -43.494  60.876 -53.278  1.00  0.00     0.142 C 
BRANCH  16  17
HETATM   17  N   UNL     1     -43.298  59.672 -52.489  1.00  0.00    -0.355 N 
HETATM   18  C   UNL     1     -42.042  59.195 -52.177  1.00  0.00     0.258 C 
HETATM   19  O   UNL     1     -41.029  59.778 -52.557  1.00  0.00    -0.267 OA
HETATM   20  H   UNL     1     -44.107  59.140 -52.197  1.00  0.00     0.162 HD
BRANCH  18  21
HETATM   21  C   UNL     1     -41.998  57.970 -51.390  1.00  0.00     0.072 A 
HETATM   22  S   UNL     1     -43.318  56.879 -51.303  1.00  0.00    -0.097 SA
HETATM   23  C   UNL     1     -42.469  55.823 -50.259  1.00  0.00     0.050 A 
HETATM   24  C   UNL     1     -41.203  56.284 -49.977  1.00  0.00     0.009 A 
HETATM   25  C   UNL     1     -40.932  57.520 -50.630  1.00  0.00     0.025 A 
ENDBRANCH  18  21
ENDBRANCH  16  17
ENDBRANCH  15  16
ENDBRANCH  12  15
ENDBRANCH  10  11
BRANCH   1  26
HETATM   26  C   UNL     1     -40.513  52.453 -53.781  1.00  0.00    -0.007 A 
HETATM   27  C   UNL     1     -40.548  51.307 -54.597  1.00  0.00     0.014 A 
HETATM   28  C   UNL     1     -40.089  50.069 -54.135  1.00  0.00     0.001 A 
HETATM   29  C   UNL     1     -39.587  49.948 -52.842  1.00  0.00     0.000 A 
HETATM   30  C   UNL     1     -39.549  51.062 -52.010  1.00  0.00     0.001 A 
HETATM   31  C   UNL     1     -40.009  52.298 -52.476  1.00  0.00     0.014 A 
ENDBRANCH   1  26
TORSDOF 6
ENDMDL
MODEL 4
REMARK VINA RESULT:      -8.2      2.727      3.961
REMARK  6 active torsions:
REMARK  status: ('A' for Active; 'I' for Inactive)
REMARK    1  A    between atoms: C_4  and  C_5 
REMARK    2  A    between atoms: C_14  and  C_15 
REMARK       I    between atoms: C_15  and  N_16 
REMARK    3  A    between atoms: N_16  and  C_17 
REMARK    4  A    between atoms: C_17  and  C_18 
REMARK    5  A    between atoms: C_18  and  N_19 
REMARK       I    between atoms: N_19  and  C_20 
REMARK    6  A    between atoms: C_20  and  C_21 
ROOT
HETATM    1  C   UNL     1     -40.522  53.558 -53.366  1.00  0.00     0.069 A 
HETATM    2  N   UNL     1     -41.001  54.171 -52.253  1.00  0.00    -0.230 NA
HETATM    3  C   UNL     1     -41.303  55.469 -52.424  1.00  0.00     0.139 A 
HETATM    4  C   UNL     1     -41.178  56.229 -53.579  1.00  0.00     0.027 A 
HETATM    5  C   UNL     1     -40.672  55.572 -54.711  1.00  0.00     0.018 A 
HETATM    6  C   UNL     1     -40.342  54.218 -54.587  1.00  0.00     0.033 A 
HETATM    7  N   UNL     1     -41.802  56.275 -51.443  1.00  0.00    -0.349 N 
HETATM    8  H   UNL     1     -41.988  55.954 -50.504  1.00  0.00     0.167 HD
HETATM    9  C   UNL     1     -41.998  57.542 -51.933  1.00  0.00     0.108 A 
HETATM   10  C   UNL     1     -41.617  57.562 -53.270  1.00  0.00     0.061 A 
ENDROOT
BRANCH  10  11
HETATM   11  C   UNL     1     -41.649  58.694 -54.197  1.00  0.00     0.254 C 
HETATM   12  N   UNL     1     -42.588  58.617 -55.202  1.00  0.00    -0.355 N 
HETATM   13  H   UNL     1     -43.191  57.812 -55.272  1.00  0.00     0.162 HD
HETATM   14  O   UNL     1     -40.889  59.651 -54.089  1.00  0.00    -0.268 OA
BRANCH  12  15
HETATM   15  C   UNL     1     -42.739  59.681 -56.180  1.00  0.00     0.142 C 
BRANCH  15  16
HETATM   16  C   UNL     1     -42.156  59.309 -57.549  1.00  0.00     0.142 C 
BRANCH  16  17
HETATM   17  N   UNL     1     -41.390  60.392 -58.140  1.00  0.00    -0.355 N 
HETATM   18  C   UNL     1     -41.943  61.272 -59.047  1.00  0.00     0.258 C 
HETATM   19  O   UNL     1     -43.119  61.174 -59.390  1.00  0.00    -0.267 OA
HETATM   20  H   UNL     1     -40.408  60.477 -57.916  1.00  0.00     0.162 HD
BRANCH  18  21
HETATM   21  C   UNL     1     -41.053  62.302 -59.567  1.00  0.00     0.072 A 
HETATM   22  S   UNL     1     -41.495  63.338 -60.860  1.00  0.00    -0.097 SA
HETATM   23  C   UNL     1     -39.993  64.154 -60.813  1.00  0.00     0.050 A 
HETATM   24  C   UNL     1     -39.165  63.655 -59.834  1.00  0.00     0.009 A 
HETATM   25  C   UNL     1     -39.777  62.590 -59.115  1.00  0.00     0.025 A 
ENDBRANCH  18  21
ENDBRANCH  16  17
ENDBRANCH  15  16
ENDBRANCH  12  15
ENDBRANCH  10  11
BRANCH   1  26
HETATM   26  C   UNL     1     -40.181  52.125 -53.196  1.00  0.00    -0.007 A 
HETATM   27  C   UNL     1     -40.235  51.211 -54.265  1.00  0.00     0.014 A 
HETATM   28  C   UNL     1     -39.901  49.864 -54.089  1.00  0.00     0.001 A 
HETATM   29  C   UNL     1     -39.508  49.399 -52.837  1.00  0.00     0.000 A 
HETATM   30  C   UNL     1     -39.456  50.278 -51.760  1.00  0.00     0.001 A 
HETATM   31  C   UNL     1     -39.791  51.625 -51.940  1.00  0.00     0.014 A 
ENDBRANCH   1  26
TORSDOF 6
ENDMDL
MODEL 5
REMARK VINA RESULT:      -7.9      4.510      6.847
REMARK  6 active torsions:
REMARK  status: ('A' for Active; 'I' for Inactive)
REMARK    1  A    between atoms: C_4  and  C_5 
REMARK    2  A    between atoms: C_14  and  C_15 
REMARK       I    between atoms: C_15  and  N_16 
REMARK    3  A    between atoms: N_16  and  C_17 
REMARK    4  A    between atoms: C_17  and  C_18 
REMARK    5  A    between atoms: C_18  and  N_19 
REMARK       I    between atoms: N_19  and  C_20 
REMARK    6  A    between atoms: C_20  and  C_21 
ROOT
HETATM    1  C   UNL     1     -40.703  53.522 -53.538  1.00  0.00     0.069 A 
HETATM    2  N   UNL     1     -41.072  53.814 -54.813  1.00  0.00    -0.230 NA
HETATM    3  C   UNL     1     -41.445  55.090 -55.001  1.00  0.00     0.139 A 
HETATM    4  C   UNL     1     -41.499  56.111 -54.062  1.00  0.00     0.027 A 
HETATM    5  C   UNL     1     -41.122  55.779 -52.752  1.00  0.00     0.018 A 
HETATM    6  C   UNL     1     -40.723  54.462 -52.501  1.00  0.00     0.033 A 
HETATM    7  N   UNL     1     -41.848  55.602 -56.200  1.00  0.00    -0.349 N 
HETATM    8  H   UNL     1     -41.893  55.055 -57.048  1.00  0.00     0.167 HD
HETATM    9  C   UNL     1     -42.168  56.929 -56.059  1.00  0.00     0.108 A 
HETATM   10  C   UNL     1     -41.966  57.293 -54.732  1.00  0.00     0.061 A 
ENDROOT
BRANCH  10  11
HETATM   11  C   UNL     1     -42.178  58.604 -54.119  1.00  0.00     0.254 C 
HETATM   12  N   UNL     1     -43.310  58.726 -53.344  1.00  0.00    -0.355 N 
HETATM   13  H   UNL     1     -43.938  57.944 -53.237  1.00  0.00     0.162 HD
HETATM   14  O   UNL     1     -41.399  59.538 -54.282  1.00  0.00    -0.268 OA
BRANCH  12  15
HETATM   15  C   UNL     1     -43.633  59.968 -52.663  1.00  0.00     0.142 C 
BRANCH  15  16
HETATM   16  C   UNL     1     -43.553  59.840 -51.136  1.00  0.00     0.142 C 
BRANCH  16  17
HETATM   17  N   UNL     1     -44.310  60.874 -50.452  1.00  0.00    -0.355 N 
HETATM   18  C   UNL     1     -45.478  60.598 -49.770  1.00  0.00     0.258 C 
HETATM   19  O   UNL     1     -45.925  59.455 -49.714  1.00  0.00    -0.267 OA
HETATM   20  H   UNL     1     -43.998  61.833 -50.514  1.00  0.00     0.162 HD
BRANCH  18  21
HETATM   21  C   UNL     1     -46.137  61.735 -49.142  1.00  0.00     0.072 A 
HETATM   22  S   UNL     1     -46.194  61.946 -47.441  1.00  0.00    -0.097 SA
HETATM   23  C   UNL     1     -47.079  63.403 -47.579  1.00  0.00     0.050 A 
HETATM   24  C   UNL     1     -47.329  63.732 -48.892  1.00  0.00     0.009 A 
HETATM   25  C   UNL     1     -46.785  62.772 -49.792  1.00  0.00     0.025 A 
ENDBRANCH  18  21
ENDBRANCH  16  17
ENDBRANCH  15  16
ENDBRANCH  12  15
ENDBRANCH  10  11
BRANCH   1  26
HETATM   26  C   UNL     1     -40.289  52.117 -53.310  1.00  0.00    -0.007 A 
HETATM   27  C   UNL     1     -39.868  51.656 -52.050  1.00  0.00     0.014 A 
HETATM   28  C   UNL     1     -39.490  50.324 -51.849  1.00  0.00     0.001 A 
HETATM   29  C   UNL     1     -39.520  49.423 -52.910  1.00  0.00     0.000 A 
HETATM   30  C   UNL     1     -39.921  49.853 -54.170  1.00  0.00     0.001 A 
HETATM   31  C   UNL     1     -40.299  51.186 -54.366  1.00  0.00     0.014 A 
ENDBRANCH   1  26
TORSDOF 6
ENDMDL
MODEL 6
REMARK VINA RESULT:      -7.8      3.180      4.509
REMARK  6 active torsions:
REMARK  status: ('A' for Active; 'I' for Inactive)
REMARK    1  A    between atoms: C_4  and  C_5 
REMARK    2  A    between atoms: C_14  and  C_15 
REMARK       I    between atoms: C_15  and  N_16 
REMARK    3  A    between atoms: N_16  and  C_17 
REMARK    4  A    between atoms: C_17  and  C_18 
REMARK    5  A    between atoms: C_18  and  N_19 
REMARK       I    between atoms: N_19  and  C_20 
REMARK    6  A    between atoms: C_20  and  C_21 
ROOT
HETATM    1  C   UNL     1     -40.501  53.629 -53.409  1.00  0.00     0.069 A 
HETATM    2  N   UNL     1     -41.031  54.229 -52.311  1.00  0.00    -0.230 NA
HETATM    3  C   UNL     1     -41.308  55.533 -52.475  1.00  0.00     0.139 A 
HETATM    4  C   UNL     1     -41.113  56.312 -53.607  1.00  0.00     0.027 A 
HETATM    5  C   UNL     1     -40.556  55.669 -54.723  1.00  0.00     0.018 A 
HETATM    6  C   UNL     1     -40.248  54.309 -54.606  1.00  0.00     0.033 A 
HETATM    7  N   UNL     1     -41.849  56.329 -51.507  1.00  0.00    -0.349 N 
HETATM    8  H   UNL     1     -42.089  55.994 -50.585  1.00  0.00     0.167 HD
HETATM    9  C   UNL     1     -42.004  57.607 -51.983  1.00  0.00     0.108 A 
HETATM   10  C   UNL     1     -41.552  57.645 -53.298  1.00  0.00     0.061 A 
ENDROOT
BRANCH  10  11
HETATM   11  C   UNL     1     -41.522  58.793 -54.204  1.00  0.00     0.254 C 
HETATM   12  N   UNL     1     -42.173  58.623 -55.406  1.00  0.00    -0.355 N 
HETATM   13  H   UNL     1     -42.621  57.746 -55.620  1.00  0.00     0.162 HD
HETATM   14  O   UNL     1     -40.954  59.842 -53.915  1.00  0.00    -0.268 OA
BRANCH  12  15
HETATM   15  C   UNL     1     -42.235  59.689 -56.391  1.00  0.00     0.142 C 
BRANCH  15  16
HETATM   16  C   UNL     1     -43.644  60.279 -56.533  1.00  0.00     0.142 C 
BRANCH  16  17
HETATM   17  N   UNL     1     -44.355  60.330 -55.268  1.00  0.00    -0.355 N 
HETATM   18  C   UNL     1     -44.253  61.407 -54.412  1.00  0.00     0.258 C 
HETATM   19  O   UNL     1     -43.551  62.376 -54.691  1.00  0.00    -0.267 OA
HETATM   20  H   UNL     1     -44.907  59.532 -54.983  1.00  0.00     0.162 HD
BRANCH  18  21
HETATM   21  C   UNL     1     -45.013  61.315 -53.172  1.00  0.00     0.072 A 
HETATM   22  S   UNL     1     -44.919  62.505 -51.941  1.00  0.00    -0.097 SA
HETATM   23  C   UNL     1     -46.033  61.669 -50.948  1.00  0.00     0.050 A 
HETATM   24  C   UNL     1     -46.474  60.505 -51.536  1.00  0.00     0.009 A 
HETATM   25  C   UNL     1     -45.888  60.303 -52.817  1.00  0.00     0.025 A 
ENDBRANCH  18  21
ENDBRANCH  16  17
ENDBRANCH  15  16
ENDBRANCH  12  15
ENDBRANCH  10  11
BRANCH   1  26
HETATM   26  C   UNL     1     -40.186  52.190 -53.247  1.00  0.00    -0.007 A 
HETATM   27  C   UNL     1     -40.272  51.280 -54.317  1.00  0.00     0.014 A 
HETATM   28  C   UNL     1     -39.962  49.927 -54.150  1.00  0.00     0.001 A 
HETATM   29  C   UNL     1     -39.563  49.450 -52.904  1.00  0.00     0.000 A 
HETATM   30  C   UNL     1     -39.479  50.325 -51.825  1.00  0.00     0.001 A 
HETATM   31  C   UNL     1     -39.790  51.678 -51.997  1.00  0.00     0.014 A 
ENDBRANCH   1  26
TORSDOF 6
ENDMDL
MODEL 7
REMARK VINA RESULT:      -7.7      2.069      2.312
REMARK  6 active torsions:
REMARK  status: ('A' for Active; 'I' for Inactive)
REMARK    1  A    between atoms: C_4  and  C_5 
REMARK    2  A    between atoms: C_14  and  C_15 
REMARK       I    between atoms: C_15  and  N_16 
REMARK    3  A    between atoms: N_16  and  C_17 
REMARK    4  A    between atoms: C_17  and  C_18 
REMARK    5  A    between atoms: C_18  and  N_19 
REMARK       I    between atoms: N_19  and  C_20 
REMARK    6  A    between atoms: C_20  and  C_21 
ROOT
HETATM    1  C   UNL     1     -42.015  54.336 -53.701  1.00  0.00     0.069 A 
HETATM    2  N   UNL     1     -42.453  55.059 -52.637  1.00  0.00    -0.230 NA
HETATM    3  C   UNL     1     -43.240  56.098 -52.964  1.00  0.00     0.139 A 
HETATM    4  C   UNL     1     -43.637  56.504 -54.230  1.00  0.00     0.027 A 
HETATM    5  C   UNL     1     -43.161  55.744 -55.310  1.00  0.00     0.018 A 
HETATM    6  C   UNL     1     -42.338  54.650 -55.026  1.00  0.00     0.033 A 
HETATM    7  N   UNL     1     -43.795  56.953 -52.056  1.00  0.00    -0.349 N 
HETATM    8  H   UNL     1     -43.658  56.868 -51.060  1.00  0.00     0.167 HD
HETATM    9  C   UNL     1     -44.537  57.908 -52.705  1.00  0.00     0.108 A 
HETATM   10  C   UNL     1     -44.465  57.668 -54.073  1.00  0.00     0.061 A 
ENDROOT
BRANCH  10  11
HETATM   11  C   UNL     1     -45.095  58.427 -55.153  1.00  0.00     0.254 C 
HETATM   12  N   UNL     1     -44.513  59.641 -55.449  1.00  0.00    -0.355 N 
HETATM   13  H   UNL     1     -43.712  59.959 -54.927  1.00  0.00     0.162 HD
HETATM   14  O   UNL     1     -46.080  58.015 -55.758  1.00  0.00    -0.268 OA
BRANCH  12  15
HETATM   15  C   UNL     1     -45.028  60.489 -56.510  1.00  0.00     0.142 C 
BRANCH  15  16
HETATM   16  C   UNL     1     -44.443  60.136 -57.883  1.00  0.00     0.142 C 
BRANCH  16  17
HETATM   17  N   UNL     1     -44.650  58.741 -58.234  1.00  0.00    -0.355 N 
HETATM   18  C   UNL     1     -43.978  58.140 -59.277  1.00  0.00     0.258 C 
HETATM   19  O   UNL     1     -43.166  58.766 -59.954  1.00  0.00    -0.267 OA
HETATM   20  H   UNL     1     -45.343  58.206 -57.728  1.00  0.00     0.162 HD
BRANCH  18  21
HETATM   21  C   UNL     1     -44.295  56.739 -59.522  1.00  0.00     0.072 A 
HETATM   22  S   UNL     1     -45.674  56.247 -60.415  1.00  0.00    -0.097 SA
HETATM   23  C   UNL     1     -45.294  54.590 -60.226  1.00  0.00     0.050 A 
HETATM   24  C   UNL     1     -44.140  54.406 -59.499  1.00  0.00     0.009 A 
HETATM   25  C   UNL     1     -43.564  55.644 -59.096  1.00  0.00     0.025 A 
ENDBRANCH  18  21
ENDBRANCH  16  17
ENDBRANCH  15  16
ENDBRANCH  12  15
ENDBRANCH  10  11
BRANCH   1  26
HETATM   26  C   UNL     1     -41.144  53.186 -53.361  1.00  0.00    -0.007 A 
HETATM   27  C   UNL     1     -40.832  52.181 -54.296  1.00  0.00     0.014 A 
HETATM   28  C   UNL     1     -40.000  51.108 -53.962  1.00  0.00     0.001 A 
HETATM   29  C   UNL     1     -39.464  51.012 -52.680  1.00  0.00     0.000 A 
HETATM   30  C   UNL     1     -39.763  51.984 -51.732  1.00  0.00     0.001 A 
HETATM   31  C   UNL     1     -40.595  53.057 -52.071  1.00  0.00     0.014 A 
ENDBRANCH   1  26
TORSDOF 6
ENDMDL
MODEL 8
REMARK VINA RESULT:      -7.6      2.406      3.103
REMARK  6 active torsions:
REMARK  status: ('A' for Active; 'I' for Inactive)
REMARK    1  A    between atoms: C_4  and  C_5 
REMARK    2  A    between atoms: C_14  and  C_15 
REMARK       I    between atoms: C_15  and  N_16 
REMARK    3  A    between atoms: N_16  and  C_17 
REMARK    4  A    between atoms: C_17  and  C_18 
REMARK    5  A    between atoms: C_18  and  N_19 
REMARK       I    between atoms: N_19  and  C_20 
REMARK    6  A    between atoms: C_20  and  C_21 
ROOT
HETATM    1  C   UNL     1     -40.773  53.672 -53.649  1.00  0.00     0.069 A 
HETATM    2  N   UNL     1     -41.113  53.913 -54.942  1.00  0.00    -0.230 NA
HETATM    3  C   UNL     1     -41.504  55.175 -55.184  1.00  0.00     0.139 A 
HETATM    4  C   UNL     1     -41.599  56.227 -54.283  1.00  0.00     0.027 A 
HETATM    5  C   UNL     1     -41.251  55.947 -52.953  1.00  0.00     0.018 A 
HETATM    6  C   UNL     1     -40.836  54.646 -52.647  1.00  0.00     0.033 A 
HETATM    7  N   UNL     1     -41.883  55.638 -56.410  1.00  0.00    -0.349 N 
HETATM    8  H   UNL     1     -41.896  55.062 -57.240  1.00  0.00     0.167 HD
HETATM    9  C   UNL     1     -42.229  56.963 -56.324  1.00  0.00     0.108 A 
HETATM   10  C   UNL     1     -42.069  57.376 -55.006  1.00  0.00     0.061 A 
ENDROOT
BRANCH  10  11
HETATM   11  C   UNL     1     -42.318  58.704 -54.445  1.00  0.00     0.254 C 
HETATM   12  N   UNL     1     -43.557  58.887 -53.870  1.00  0.00    -0.355 N 
HETATM   13  H   UNL     1     -44.229  58.135 -53.865  1.00  0.00     0.162 HD
HETATM   14  O   UNL     1     -41.481  59.600 -54.481  1.00  0.00    -0.268 OA
BRANCH  12  15
HETATM   15  C   UNL     1     -43.930  60.151 -53.260  1.00  0.00     0.142 C 
BRANCH  15  16
HETATM   16  C   UNL     1     -45.158  60.786 -53.925  1.00  0.00     0.142 C 
BRANCH  16  17
HETATM   17  N   UNL     1     -45.627  60.025 -55.070  1.00  0.00    -0.355 N 
HETATM   18  C   UNL     1     -45.741  60.584 -56.326  1.00  0.00     0.258 C 
HETATM   19  O   UNL     1     -45.445  61.760 -56.527  1.00  0.00    -0.267 OA
HETATM   20  H   UNL     1     -45.922  59.068 -54.935  1.00  0.00     0.162 HD
BRANCH  18  21
HETATM   21  C   UNL     1     -46.237  59.705 -57.377  1.00  0.00     0.072 A 
HETATM   22  S   UNL     1     -46.661  60.277 -58.936  1.00  0.00    -0.097 SA
HETATM   23  C   UNL     1     -47.098  58.712 -59.471  1.00  0.00     0.050 A 
HETATM   24  C   UNL     1     -46.926  57.765 -58.487  1.00  0.00     0.009 A 
HETATM   25  C   UNL     1     -46.428  58.337 -57.282  1.00  0.00     0.025 A 
ENDBRANCH  18  21
ENDBRANCH  16  17
ENDBRANCH  15  16
ENDBRANCH  12  15
ENDBRANCH  10  11
BRANCH   1  26
HETATM   26  C   UNL     1     -40.342  52.283 -53.362  1.00  0.00    -0.007 A 
HETATM   27  C   UNL     1     -40.343  51.280 -54.348  1.00  0.00     0.014 A 
HETATM   28  C   UNL     1     -39.923  49.977 -54.063  1.00  0.00     0.001 A 
HETATM   29  C   UNL     1     -39.495  49.645 -52.780  1.00  0.00     0.000 A 
HETATM   30  C   UNL     1     -39.493  50.614 -51.782  1.00  0.00     0.001 A 
HETATM   31  C   UNL     1     -39.913  51.917 -52.072  1.00  0.00     0.014 A 
ENDBRANCH   1  26
TORSDOF 6
ENDMDL
MODEL 9
REMARK VINA RESULT:      -7.2      4.419      8.824
REMARK  6 active torsions:
REMARK  status: ('A' for Active; 'I' for Inactive)
REMARK    1  A    between atoms: C_4  and  C_5 
REMARK    2  A    between atoms: C_14  and  C_15 
REMARK       I    between atoms: C_15  and  N_16 
REMARK    3  A    between atoms: N_16  and  C_17 
REMARK    4  A    between atoms: C_17  and  C_18 
REMARK    5  A    between atoms: C_18  and  N_19 
REMARK       I    between atoms: N_19  and  C_20 
REMARK    6  A    between atoms: C_20  and  C_21 
ROOT
HETATM    1  C   UNL     1     -43.422  60.865 -50.399  1.00  0.00     0.069 A 
HETATM    2  N   UNL     1     -42.138  60.433 -50.298  1.00  0.00    -0.230 NA
HETATM    3  C   UNL     1     -41.922  59.215 -50.820  1.00  0.00     0.139 A 
HETATM    4  C   UNL     1     -42.842  58.372 -51.429  1.00  0.00     0.027 A 
HETATM    5  C   UNL     1     -44.162  58.840 -51.511  1.00  0.00     0.018 A 
HETATM    6  C   UNL     1     -44.441  60.104 -50.983  1.00  0.00     0.033 A 
HETATM    7  N   UNL     1     -40.709  58.590 -50.833  1.00  0.00    -0.349 N 
HETATM    8  H   UNL     1     -39.871  59.002 -50.449  1.00  0.00     0.167 HD
HETATM    9  C   UNL     1     -40.822  57.359 -51.429  1.00  0.00     0.108 A 
HETATM   10  C   UNL     1     -42.145  57.178 -51.818  1.00  0.00     0.061 A 
ENDROOT
BRANCH  10  11
HETATM   11  C   UNL     1     -42.732  56.018 -52.489  1.00  0.00     0.254 C 
HETATM   12  N   UNL     1     -43.072  56.201 -53.811  1.00  0.00    -0.355 N 
HETATM   13  H   UNL     1     -42.923  57.095 -54.254  1.00  0.00     0.162 HD
HETATM   14  O   UNL     1     -42.912  54.948 -51.915  1.00  0.00    -0.268 OA
BRANCH  12  15
HETATM   15  C   UNL     1     -43.649  55.127 -54.602  1.00  0.00     0.142 C 
BRANCH  15  16
HETATM   16  C   UNL     1     -42.590  54.337 -55.381  1.00  0.00     0.142 C 
BRANCH  16  17
HETATM   17  N   UNL     1     -42.016  53.255 -54.600  1.00  0.00    -0.355 N 
HETATM   18  C   UNL     1     -40.654  53.107 -54.444  1.00  0.00     0.258 C 
HETATM   19  O   UNL     1     -39.865  53.894 -54.963  1.00  0.00    -0.267 OA
HETATM   20  H   UNL     1     -42.631  52.562 -54.195  1.00  0.00     0.162 HD
BRANCH  18  21
HETATM   21  C   UNL     1     -40.220  51.969 -53.644  1.00  0.00     0.072 A 
HETATM   22  S   UNL     1     -40.104  50.382 -54.281  1.00  0.00    -0.097 SA
HETATM   23  C   UNL     1     -39.568  49.744 -52.788  1.00  0.00     0.050 A 
HETATM   24  C   UNL     1     -39.475  50.714 -51.816  1.00  0.00     0.009 A 
HETATM   25  C   UNL     1     -39.848  51.996 -52.311  1.00  0.00     0.025 A 
ENDBRANCH  18  21
ENDBRANCH  16  17
ENDBRANCH  15  16
ENDBRANCH  12  15
ENDBRANCH  10  11
BRANCH   1  26
HETATM   26  C   UNL     1     -43.680  62.207 -49.826  1.00  0.00    -0.007 A 
HETATM   27  C   UNL     1     -44.814  62.480 -49.039  1.00  0.00     0.014 A 
HETATM   28  C   UNL     1     -45.037  63.750 -48.497  1.00  0.00     0.001 A 
HETATM   29  C   UNL     1     -44.132  64.780 -48.736  1.00  0.00     0.000 A 
HETATM   30  C   UNL     1     -43.007  64.543 -49.520  1.00  0.00     0.001 A 
HETATM   31  C   UNL     1     -42.787  63.270 -50.059  1.00  0.00     0.014 A 
ENDBRANCH   1  26
TORSDOF 6
ENDMDL
MODEL 10
REMARK VINA RESULT:      -7.2      3.548      4.831
REMARK  6 active torsions:
REMARK  status: ('A' for Active; 'I' for Inactive)
REMARK    1  A    between atoms: C_4  and  C_5 
REMARK    2  A    between atoms: C_14  and  C_15 
REMARK       I    between atoms: C_15  and  N_16 
REMARK    3  A    between atoms: N_16  and  C_17 
REMARK    4  A    between atoms: C_17  and  C_18 
REMARK    5  A    between atoms: C_18  and  N_19 
REMARK       I    between atoms: N_19  and  C_20 
REMARK    6  A    between atoms: C_20  and  C_21 
ROOT
HETATM    1  C   UNL     1     -41.536  54.048 -53.982  1.00  0.00     0.069 A 
HETATM    2  N   UNL     1     -42.627  54.512 -53.316  1.00  0.00    -0.230 NA
HETATM    3  C   UNL     1     -43.273  55.508 -53.944  1.00  0.00     0.139 A 
HETATM    4  C   UNL     1     -42.956  56.101 -55.158  1.00  0.00     0.027 A 
HETATM    5  C   UNL     1     -41.819  55.608 -55.818  1.00  0.00     0.018 A 
HETATM    6  C   UNL     1     -41.109  54.569 -55.208  1.00  0.00     0.033 A 
HETATM    7  N   UNL     1     -44.394  56.118 -53.460  1.00  0.00    -0.349 N 
HETATM    8  H   UNL     1     -44.830  55.862 -52.586  1.00  0.00     0.167 HD
HETATM    9  C   UNL     1     -44.806  57.097 -54.329  1.00  0.00     0.108 A 
HETATM   10  C   UNL     1     -43.931  57.125 -55.409  1.00  0.00     0.061 A 
ENDROOT
BRANCH  10  11
HETATM   11  C   UNL     1     -43.975  58.005 -56.577  1.00  0.00     0.254 C 
HETATM   12  N   UNL     1     -42.886  58.832 -56.743  1.00  0.00    -0.355 N 
HETATM   13  H   UNL     1     -42.130  58.815 -56.076  1.00  0.00     0.162 HD
HETATM   14  O   UNL     1     -44.919  58.009 -57.361  1.00  0.00    -0.268 OA
BRANCH  12  15
HETATM   15  C   UNL     1     -42.792  59.744 -57.870  1.00  0.00     0.142 C 
BRANCH  15  16
HETATM   16  C   UNL     1     -41.912  60.964 -57.568  1.00  0.00     0.142 C 
BRANCH  16  17
HETATM   17  N   UNL     1     -41.136  61.389 -58.721  1.00  0.00    -0.355 N 
HETATM   18  C   UNL     1     -41.329  62.614 -59.323  1.00  0.00     0.258 C 
HETATM   19  O   UNL     1     -42.172  63.403 -58.902  1.00  0.00    -0.267 OA
HETATM   20  H   UNL     1     -40.465  60.749 -59.123  1.00  0.00     0.162 HD
BRANCH  18  21
HETATM   21  C   UNL     1     -40.488  62.902 -60.478  1.00  0.00     0.072 A 
HETATM   22  S   UNL     1     -40.933  62.466 -62.076  1.00  0.00    -0.097 SA
HETATM   23  C   UNL     1     -39.497  63.126 -62.731  1.00  0.00     0.050 A 
HETATM   24  C   UNL     1     -38.689  63.671 -61.759  1.00  0.00     0.009 A 
HETATM   25  C   UNL     1     -39.262  63.543 -60.462  1.00  0.00     0.025 A 
ENDBRANCH  18  21
ENDBRANCH  16  17
ENDBRANCH  15  16
ENDBRANCH  12  15
ENDBRANCH  10  11
BRANCH   1  26
HETATM   26  C   UNL     1     -40.808  52.949 -53.304  1.00  0.00    -0.007 A 
HETATM   27  C   UNL     1     -40.543  52.968 -51.922  1.00  0.00     0.014 A 
HETATM   28  C   UNL     1     -39.863  51.918 -51.296  1.00  0.00     0.001 A 
HETATM   29  C   UNL     1     -39.428  50.824 -52.041  1.00  0.00     0.000 A 
HETATM   30  C   UNL     1     -39.668  50.784 -53.411  1.00  0.00     0.001 A 
HETATM   31  C   UNL     1     -40.348  51.836 -54.033  1.00  0.00     0.014 A 
ENDBRANCH   1  26
TORSDOF 6
ENDMDL
