MODEL 1
REMARK VINA RESULT:      -8.9      0.000      0.000
REMARK  6 active torsions:
REMARK  status: ('A' for Active; 'I' for Inactive)
REMARK    1  A    between atoms: C_2  and  O_3 
REMARK    2  A    between atoms: O_3  and  C_4 
REMARK    3  A    between atoms: C_5  and  O_6 
REMARK    4  A    between atoms: O_6  and  C_7 
REMARK    5  A    between atoms: C_7  and  C_8 
REMARK    6  A    between atoms: C_16  and  C_17 
ROOT
HETATM    1  C   UNL     1     -42.096  55.892 -53.364  1.00  0.00     0.102 A 
HETATM    2  C   UNL     1     -41.972  54.501 -53.469  1.00  0.00     0.102 A 
HETATM    3  C   UNL     1     -42.196  53.885 -54.702  1.00  0.00     0.040 A 
HETATM    4  C   UNL     1     -42.499  54.655 -55.832  1.00  0.00     0.014 A 
HETATM    5  C   UNL     1     -42.591  56.051 -55.744  1.00  0.00    -0.007 A 
HETATM    6  C   UNL     1     -42.369  56.661 -54.499  1.00  0.00     0.051 A 
ENDROOT
BRANCH   5   7
HETATM    7  C   UNL     1     -42.862  56.889 -56.976  1.00  0.00     0.264 C 
HETATM    8  O   UNL     1     -42.050  58.071 -56.935  1.00  0.00    -0.321 OA
HETATM    9  C   UNL     1     -42.053  58.773 -58.110  1.00  0.00     0.087 A 
HETATM   10  C   UNL     1     -42.334  58.182 -59.342  1.00  0.00     0.065 A 
HETATM   11  C   UNL     1     -41.712  60.122 -58.049  1.00  0.00     0.038 A 
HETATM   12  C   UNL     1     -42.600  56.735 -59.378  1.00  0.00     0.256 C 
HETATM   13  C   UNL     1     -42.301  58.938 -60.516  1.00  0.00     0.020 A 
HETATM   14  O   UNL     1     -42.784  56.123 -60.420  1.00  0.00    -0.267 OA
HETATM   15  N   UNL     1     -42.605  56.119 -58.159  1.00  0.00    -0.326 N 
HETATM   16  H   UNL     1     -42.882  55.146 -58.178  1.00  0.00     0.165 HD
HETATM   17  C   UNL     1     -41.978  60.294 -60.451  1.00  0.00     0.001 A 
HETATM   18  C   UNL     1     -41.679  60.884 -59.220  1.00  0.00     0.003 A 
ENDBRANCH   5   7
BRANCH   1  19
HETATM   19  O   UNL     1     -41.835  56.484 -52.155  1.00  0.00    -0.349 OA
BRANCH  19  20
HETATM   20  C   UNL     1     -42.877  57.354 -51.702  1.00  0.00     0.171 C 
HETATM   21  C   UNL     1     -43.982  56.518 -51.079  1.00  0.00     0.034 C 
ENDBRANCH  19  20
ENDBRANCH   1  19
BRANCH   2  22
HETATM   22  O   UNL     1     -41.685  53.816 -52.317  1.00  0.00    -0.344 OA
BRANCH  22  23
HETATM   23  C   UNL     1     -40.298  53.590 -52.065  1.00  0.00     0.214 C 
BRANCH  23  24
HETATM   24  C   UNL     1     -40.007  52.112 -52.184  1.00  0.00    -0.034 A 
HETATM   25  C   UNL     1     -39.903  51.306 -51.041  1.00  0.00     0.009 A 
HETATM   26  C   UNL     1     -39.669  49.934 -51.160  1.00  0.00     0.001 A 
HETATM   27  C   UNL     1     -39.545  49.353 -52.421  1.00  0.00     0.000 A 
HETATM   28  C   UNL     1     -39.654  50.142 -53.564  1.00  0.00     0.001 A 
HETATM   29  C   UNL     1     -39.886  51.512 -53.447  1.00  0.00     0.009 A 
ENDBRANCH  23  24
ENDBRANCH  22  23
ENDBRANCH   2  22
TORSDOF 6
ENDMDL
MODEL 2
REMARK VINA RESULT:      -8.0      4.286      5.841
REMARK  6 active torsions:
REMARK  status: ('A' for Active; 'I' for Inactive)
REMARK    1  A    between atoms: C_2  and  O_3 
REMARK    2  A    between atoms: O_3  and  C_4 
REMARK    3  A    between atoms: C_5  and  O_6 
REMARK    4  A    between atoms: O_6  and  C_7 
REMARK    5  A    between atoms: C_7  and  C_8 
REMARK    6  A    between atoms: C_16  and  C_17 
ROOT
HETATM    1  C   UNL     1     -42.938  55.128 -51.382  1.00  0.00     0.102 A 
HETATM    2  C   UNL     1     -42.804  54.936 -52.762  1.00  0.00     0.102 A 
HETATM    3  C   UNL     1     -43.236  55.935 -53.638  1.00  0.00     0.040 A 
HETATM    4  C   UNL     1     -43.757  57.135 -53.138  1.00  0.00     0.014 A 
HETATM    5  C   UNL     1     -43.861  57.351 -51.756  1.00  0.00    -0.007 A 
HETATM    6  C   UNL     1     -43.430  56.338 -50.885  1.00  0.00     0.051 A 
ENDROOT
BRANCH   5   7
HETATM    7  C   UNL     1     -44.372  58.670 -51.215  1.00  0.00     0.264 C 
HETATM    8  O   UNL     1     -43.301  59.625 -51.204  1.00  0.00    -0.321 OA
HETATM    9  C   UNL     1     -43.716  60.904 -50.952  1.00  0.00     0.087 A 
HETATM   10  C   UNL     1     -45.015  61.341 -51.210  1.00  0.00     0.065 A 
HETATM   11  C   UNL     1     -42.768  61.798 -50.460  1.00  0.00     0.038 A 
HETATM   12  C   UNL     1     -45.965  60.392 -51.815  1.00  0.00     0.256 C 
HETATM   13  C   UNL     1     -45.383  62.664 -50.955  1.00  0.00     0.020 A 
HETATM   14  O   UNL     1     -47.099  60.709 -52.140  1.00  0.00    -0.267 OA
HETATM   15  N   UNL     1     -45.475  59.131 -52.007  1.00  0.00    -0.326 N 
HETATM   16  H   UNL     1     -46.157  58.459 -52.333  1.00  0.00     0.165 HD
HETATM   17  C   UNL     1     -44.438  63.554 -50.445  1.00  0.00     0.001 A 
HETATM   18  C   UNL     1     -43.131  63.123 -50.202  1.00  0.00     0.003 A 
ENDBRANCH   5   7
BRANCH   1  19
HETATM   19  O   UNL     1     -42.474  54.153 -50.536  1.00  0.00    -0.349 OA
BRANCH  19  20
HETATM   20  C   UNL     1     -41.711  54.659 -49.437  1.00  0.00     0.171 C 
HETATM   21  C   UNL     1     -40.258  54.784 -49.860  1.00  0.00     0.034 C 
ENDBRANCH  19  20
ENDBRANCH   1  19
BRANCH   2  22
HETATM   22  O   UNL     1     -42.297  53.731 -53.174  1.00  0.00    -0.344 OA
BRANCH  22  23
HETATM   23  C   UNL     1     -40.897  53.715 -53.452  1.00  0.00     0.214 C 
BRANCH  23  24
HETATM   24  C   UNL     1     -40.373  52.308 -53.281  1.00  0.00    -0.034 A 
HETATM   25  C   UNL     1     -39.873  51.875 -52.044  1.00  0.00     0.009 A 
HETATM   26  C   UNL     1     -39.422  50.562 -51.883  1.00  0.00     0.001 A 
HETATM   27  C   UNL     1     -39.475  49.669 -52.952  1.00  0.00     0.000 A 
HETATM   28  C   UNL     1     -39.976  50.086 -54.183  1.00  0.00     0.001 A 
HETATM   29  C   UNL     1     -40.425  51.397 -54.346  1.00  0.00     0.009 A 
ENDBRANCH  23  24
ENDBRANCH  22  23
ENDBRANCH   2  22
TORSDOF 6
ENDMDL
MODEL 3
REMARK VINA RESULT:      -7.8      2.756      3.463
REMARK  6 active torsions:
REMARK  status: ('A' for Active; 'I' for Inactive)
REMARK    1  A    between atoms: C_2  and  O_3 
REMARK    2  A    between atoms: O_3  and  C_4 
REMARK    3  A    between atoms: C_5  and  O_6 
REMARK    4  A    between atoms: O_6  and  C_7 
REMARK    5  A    between atoms: C_7  and  C_8 
REMARK    6  A    between atoms: C_16  and  C_17 
ROOT
HETATM    1  C   UNL     1     -42.132  57.206 -54.974  1.00  0.00     0.102 A 
HETATM    2  C   UNL     1     -41.746  55.860 -54.967  1.00  0.00     0.102 A 
HETATM    3  C   UNL     1     -42.156  55.024 -56.009  1.00  0.00     0.040 A 
HETATM    4  C   UNL     1     -42.910  55.538 -57.071  1.00  0.00     0.014 A 
HETATM    5  C   UNL     1     -43.271  56.892 -57.104  1.00  0.00    -0.007 A 
HETATM    6  C   UNL     1     -42.859  57.723 -56.050  1.00  0.00     0.051 A 
ENDROOT
BRANCH   5   7
HETATM    7  C   UNL     1     -44.038  57.460 -58.280  1.00  0.00     0.264 C 
HETATM    8  O   UNL     1     -45.045  56.523 -58.688  1.00  0.00    -0.321 OA
HETATM    9  C   UNL     1     -45.937  57.041 -59.588  1.00  0.00     0.087 A 
HETATM   10  C   UNL     1     -46.195  58.408 -59.695  1.00  0.00     0.065 A 
HETATM   11  C   UNL     1     -46.635  56.138 -60.387  1.00  0.00     0.038 A 
HETATM   12  C   UNL     1     -45.505  59.324 -58.771  1.00  0.00     0.256 C 
HETATM   13  C   UNL     1     -47.131  58.884 -60.615  1.00  0.00     0.020 A 
HETATM   14  O   UNL     1     -45.724  60.525 -58.746  1.00  0.00    -0.267 OA
HETATM   15  N   UNL     1     -44.614  58.726 -57.926  1.00  0.00    -0.326 N 
HETATM   16  H   UNL     1     -44.073  59.367 -57.360  1.00  0.00     0.165 HD
HETATM   17  C   UNL     1     -47.817  57.981 -61.427  1.00  0.00     0.001 A 
HETATM   18  C   UNL     1     -47.572  56.610 -61.311  1.00  0.00     0.003 A 
ENDBRANCH   5   7
BRANCH   1  19
HETATM   19  O   UNL     1     -41.689  58.021 -53.964  1.00  0.00    -0.349 OA
BRANCH  19  20
HETATM   20  C   UNL     1     -42.740  58.676 -53.249  1.00  0.00     0.171 C 
HETATM   21  C   UNL     1     -43.279  57.733 -52.188  1.00  0.00     0.034 C 
ENDBRANCH  19  20
ENDBRANCH   1  19
BRANCH   2  22
HETATM   22  O   UNL     1     -41.019  55.430 -53.887  1.00  0.00    -0.344 OA
BRANCH  22  23
HETATM   23  C   UNL     1     -41.669  54.471 -53.052  1.00  0.00     0.214 C 
BRANCH  23  24
HETATM   24  C   UNL     1     -40.891  53.176 -53.086  1.00  0.00    -0.034 A 
HETATM   25  C   UNL     1     -40.148  52.755 -51.974  1.00  0.00     0.009 A 
HETATM   26  C   UNL     1     -39.460  51.539 -52.000  1.00  0.00     0.001 A 
HETATM   27  C   UNL     1     -39.514  50.730 -53.134  1.00  0.00     0.000 A 
HETATM   28  C   UNL     1     -40.255  51.134 -54.242  1.00  0.00     0.001 A 
HETATM   29  C   UNL     1     -40.941  52.349 -54.218  1.00  0.00     0.009 A 
ENDBRANCH  23  24
ENDBRANCH  22  23
ENDBRANCH   2  22
TORSDOF 6
ENDMDL
MODEL 4
REMARK VINA RESULT:      -7.7      1.617      2.347
REMARK  6 active torsions:
REMARK  status: ('A' for Active; 'I' for Inactive)
REMARK    1  A    between atoms: C_2  and  O_3 
REMARK    2  A    between atoms: O_3  and  C_4 
REMARK    3  A    between atoms: C_5  and  O_6 
REMARK    4  A    between atoms: O_6  and  C_7 
REMARK    5  A    between atoms: C_7  and  C_8 
REMARK    6  A    between atoms: C_16  and  C_17 
ROOT
HETATM    1  C   UNL     1     -41.612  55.909 -53.661  1.00  0.00     0.102 A 
HETATM    2  C   UNL     1     -41.900  54.539 -53.637  1.00  0.00     0.102 A 
HETATM    3  C   UNL     1     -42.503  53.947 -54.751  1.00  0.00     0.040 A 
HETATM    4  C   UNL     1     -42.776  54.707 -55.894  1.00  0.00     0.014 A 
HETATM    5  C   UNL     1     -42.458  56.072 -55.940  1.00  0.00    -0.007 A 
HETATM    6  C   UNL     1     -41.858  56.660 -54.814  1.00  0.00     0.051 A 
ENDROOT
BRANCH   5   7
HETATM    7  C   UNL     1     -42.701  56.882 -57.196  1.00  0.00     0.264 C 
HETATM    8  O   UNL     1     -44.096  56.839 -57.526  1.00  0.00    -0.321 OA
HETATM    9  C   UNL     1     -44.450  57.726 -58.507  1.00  0.00     0.087 A 
HETATM   10  C   UNL     1     -43.722  58.885 -58.776  1.00  0.00     0.065 A 
HETATM   11  C   UNL     1     -45.616  57.458 -59.220  1.00  0.00     0.038 A 
HETATM   12  C   UNL     1     -42.547  59.182 -57.940  1.00  0.00     0.256 C 
HETATM   13  C   UNL     1     -44.139  59.770 -59.773  1.00  0.00     0.020 A 
HETATM   14  O   UNL     1     -41.895  60.208 -58.057  1.00  0.00    -0.267 OA
HETATM   15  N   UNL     1     -42.250  58.231 -57.005  1.00  0.00    -0.326 N 
HETATM   16  H   UNL     1     -41.389  58.391 -56.499  1.00  0.00     0.165 HD
HETATM   17  C   UNL     1     -45.296  59.491 -60.499  1.00  0.00     0.001 A 
HETATM   18  C   UNL     1     -46.036  58.339 -60.221  1.00  0.00     0.003 A 
ENDBRANCH   5   7
BRANCH   1  19
HETATM   19  O   UNL     1     -40.987  56.466 -52.575  1.00  0.00    -0.349 OA
BRANCH  19  20
HETATM   20  C   UNL     1     -41.889  56.980 -51.591  1.00  0.00     0.171 C 
HETATM   21  C   UNL     1     -41.368  56.621 -50.210  1.00  0.00     0.034 C 
ENDBRANCH  19  20
ENDBRANCH   1  19
BRANCH   2  22
HETATM   22  O   UNL     1     -41.615  53.865 -52.478  1.00  0.00    -0.344 OA
BRANCH  22  23
HETATM   23  C   UNL     1     -40.235  53.568 -52.263  1.00  0.00     0.214 C 
BRANCH  23  24
HETATM   24  C   UNL     1     -40.006  52.091 -52.484  1.00  0.00    -0.034 A 
HETATM   25  C   UNL     1     -39.962  51.558 -53.780  1.00  0.00     0.009 A 
HETATM   26  C   UNL     1     -39.714  50.198 -53.978  1.00  0.00     0.001 A 
HETATM   27  C   UNL     1     -39.501  49.360 -52.885  1.00  0.00     0.000 A 
HETATM   28  C   UNL     1     -39.535  49.879 -51.593  1.00  0.00     0.001 A 
HETATM   29  C   UNL     1     -39.784  51.237 -51.393  1.00  0.00     0.009 A 
ENDBRANCH  23  24
ENDBRANCH  22  23
ENDBRANCH   2  22
TORSDOF 6
ENDMDL
MODEL 5
REMARK VINA RESULT:      -7.7     15.767     20.172
REMARK  6 active torsions:
REMARK  status: ('A' for Active; 'I' for Inactive)
REMARK    1  A    between atoms: C_2  and  O_3 
REMARK    2  A    between atoms: O_3  and  C_4 
REMARK    3  A    between atoms: C_5  and  O_6 
REMARK    4  A    between atoms: O_6  and  C_7 
REMARK    5  A    between atoms: C_7  and  C_8 
REMARK    6  A    between atoms: C_16  and  C_17 
ROOT
HETATM    1  C   UNL     1     -32.430  40.374 -52.428  1.00  0.00     0.102 A 
HETATM    2  C   UNL     1     -33.767  40.790 -52.387  1.00  0.00     0.102 A 
HETATM    3  C   UNL     1     -34.501  40.620 -51.211  1.00  0.00     0.040 A 
HETATM    4  C   UNL     1     -33.894  40.080 -50.071  1.00  0.00     0.014 A 
HETATM    5  C   UNL     1     -32.546  39.693 -50.092  1.00  0.00    -0.007 A 
HETATM    6  C   UNL     1     -31.818  39.863 -51.280  1.00  0.00     0.051 A 
ENDROOT
BRANCH   5   7
HETATM    7  C   UNL     1     -31.874  39.162 -48.843  1.00  0.00     0.264 C 
HETATM    8  O   UNL     1     -31.334  40.258 -48.091  1.00  0.00    -0.321 OA
HETATM    9  C   UNL     1     -30.914  39.902 -46.838  1.00  0.00     0.087 A 
HETATM   10  C   UNL     1     -31.416  38.793 -46.159  1.00  0.00     0.065 A 
HETATM   11  C   UNL     1     -29.976  40.727 -46.221  1.00  0.00     0.038 A 
HETATM   12  C   UNL     1     -32.472  37.996 -46.806  1.00  0.00     0.256 C 
HETATM   13  C   UNL     1     -30.970  38.485 -44.872  1.00  0.00     0.020 A 
HETATM   14  O   UNL     1     -33.020  37.053 -46.256  1.00  0.00    -0.267 OA
HETATM   15  N   UNL     1     -32.812  38.405 -48.065  1.00  0.00    -0.326 N 
HETATM   16  H   UNL     1     -33.467  37.800 -48.542  1.00  0.00     0.165 HD
HETATM   17  C   UNL     1     -30.017  39.301 -44.262  1.00  0.00     0.001 A 
HETATM   18  C   UNL     1     -29.524  40.423 -44.934  1.00  0.00     0.003 A 
ENDBRANCH   5   7
BRANCH   1  19
HETATM   19  O   UNL     1     -31.713  40.583 -53.577  1.00  0.00    -0.349 OA
BRANCH  19  20
HETATM   20  C   UNL     1     -31.616  39.426 -54.414  1.00  0.00     0.171 C 
HETATM   21  C   UNL     1     -31.963  39.818 -55.840  1.00  0.00     0.034 C 
ENDBRANCH  19  20
ENDBRANCH   1  19
BRANCH   2  22
HETATM   22  O   UNL     1     -34.293  41.298 -53.546  1.00  0.00    -0.344 OA
BRANCH  22  23
HETATM   23  C   UNL     1     -35.698  41.553 -53.524  1.00  0.00     0.214 C 
BRANCH  23  24
HETATM   24  C   UNL     1     -36.214  41.610 -54.943  1.00  0.00    -0.034 A 
HETATM   25  C   UNL     1     -37.540  41.264 -55.238  1.00  0.00     0.009 A 
HETATM   26  C   UNL     1     -38.021  41.353 -56.547  1.00  0.00     0.001 A 
HETATM   27  C   UNL     1     -37.184  41.796 -57.570  1.00  0.00     0.000 A 
HETATM   28  C   UNL     1     -35.867  42.149 -57.288  1.00  0.00     0.001 A 
HETATM   29  C   UNL     1     -35.385  42.060 -55.981  1.00  0.00     0.009 A 
ENDBRANCH  23  24
ENDBRANCH  22  23
ENDBRANCH   2  22
TORSDOF 6
ENDMDL
MODEL 6
REMARK VINA RESULT:      -7.6     14.886     18.950
REMARK  6 active torsions:
REMARK  status: ('A' for Active; 'I' for Inactive)
REMARK    1  A    between atoms: C_2  and  O_3 
REMARK    2  A    between atoms: O_3  and  C_4 
REMARK    3  A    between atoms: C_5  and  O_6 
REMARK    4  A    between atoms: O_6  and  C_7 
REMARK    5  A    between atoms: C_7  and  C_8 
REMARK    6  A    between atoms: C_16  and  C_17 
ROOT
HETATM    1  C   UNL     1     -34.613  41.000 -54.734  1.00  0.00     0.102 A 
HETATM    2  C   UNL     1     -35.775  41.758 -54.545  1.00  0.00     0.102 A 
HETATM    3  C   UNL     1     -36.465  41.664 -53.333  1.00  0.00     0.040 A 
HETATM    4  C   UNL     1     -35.974  40.853 -52.302  1.00  0.00     0.014 A 
HETATM    5  C   UNL     1     -34.792  40.118 -52.470  1.00  0.00    -0.007 A 
HETATM    6  C   UNL     1     -34.109  40.214 -53.693  1.00  0.00     0.051 A 
ENDROOT
BRANCH   5   7
HETATM    7  C   UNL     1     -34.230  39.285 -51.337  1.00  0.00     0.264 C 
HETATM    8  O   UNL     1     -33.326  40.086 -50.562  1.00  0.00    -0.321 OA
HETATM    9  C   UNL     1     -32.948  39.495 -49.387  1.00  0.00     0.087 A 
HETATM   10  C   UNL     1     -33.721  38.527 -48.745  1.00  0.00     0.065 A 
HETATM   11  C   UNL     1     -31.760  39.933 -48.805  1.00  0.00     0.038 A 
HETATM   12  C   UNL     1     -35.014  38.156 -49.343  1.00  0.00     0.256 C 
HETATM   13  C   UNL     1     -33.301  37.971 -47.534  1.00  0.00     0.020 A 
HETATM   14  O   UNL     1     -35.786  37.372 -48.812  1.00  0.00    -0.267 OA
HETATM   15  N   UNL     1     -35.299  38.773 -50.528  1.00  0.00    -0.326 N 
HETATM   16  H   UNL     1     -36.141  38.446 -50.982  1.00  0.00     0.165 HD
HETATM   17  C   UNL     1     -32.102  38.396 -46.963  1.00  0.00     0.001 A 
HETATM   18  C   UNL     1     -31.335  39.378 -47.594  1.00  0.00     0.003 A 
ENDBRANCH   5   7
BRANCH   1  19
HETATM   19  O   UNL     1     -33.929  41.133 -55.914  1.00  0.00    -0.349 OA
BRANCH  19  20
HETATM   20  C   UNL     1     -33.513  39.888 -56.483  1.00  0.00     0.171 C 
HETATM   21  C   UNL     1     -34.659  39.306 -57.291  1.00  0.00     0.034 C 
ENDBRANCH  19  20
ENDBRANCH   1  19
BRANCH   2  22
HETATM   22  O   UNL     1     -36.199  42.518 -55.604  1.00  0.00    -0.344 OA
BRANCH  22  23
HETATM   23  C   UNL     1     -37.552  42.309 -56.008  1.00  0.00     0.214 C 
BRANCH  23  24
HETATM   24  C   UNL     1     -37.568  41.560 -57.321  1.00  0.00    -0.034 A 
HETATM   25  C   UNL     1     -38.187  40.306 -57.424  1.00  0.00     0.009 A 
HETATM   26  C   UNL     1     -38.228  39.635 -58.648  1.00  0.00     0.001 A 
HETATM   27  C   UNL     1     -37.659  40.214 -59.782  1.00  0.00     0.000 A 
HETATM   28  C   UNL     1     -37.048  41.462 -59.693  1.00  0.00     0.001 A 
HETATM   29  C   UNL     1     -37.004  42.133 -58.471  1.00  0.00     0.009 A 
ENDBRANCH  23  24
ENDBRANCH  22  23
ENDBRANCH   2  22
TORSDOF 6
ENDMDL
MODEL 7
REMARK VINA RESULT:      -7.6      1.911      2.909
REMARK  6 active torsions:
REMARK  status: ('A' for Active; 'I' for Inactive)
REMARK    1  A    between atoms: C_2  and  O_3 
REMARK    2  A    between atoms: O_3  and  C_4 
REMARK    3  A    between atoms: C_5  and  O_6 
REMARK    4  A    between atoms: O_6  and  C_7 
REMARK    5  A    between atoms: C_7  and  C_8 
REMARK    6  A    between atoms: C_16  and  C_17 
ROOT
HETATM    1  C   UNL     1     -42.341  57.855 -54.603  1.00  0.00     0.102 A 
HETATM    2  C   UNL     1     -42.392  56.526 -55.040  1.00  0.00     0.102 A 
HETATM    3  C   UNL     1     -42.507  56.259 -56.407  1.00  0.00     0.040 A 
HETATM    4  C   UNL     1     -42.528  57.309 -57.333  1.00  0.00     0.014 A 
HETATM    5  C   UNL     1     -42.441  58.643 -56.906  1.00  0.00    -0.007 A 
HETATM    6  C   UNL     1     -42.331  58.901 -55.530  1.00  0.00     0.051 A 
ENDROOT
BRANCH   5   7
HETATM    7  C   UNL     1     -42.406  59.776 -57.909  1.00  0.00     0.264 C 
HETATM    8  O   UNL     1     -41.149  60.462 -57.807  1.00  0.00    -0.321 OA
HETATM    9  C   UNL     1     -40.931  61.350 -58.825  1.00  0.00     0.087 A 
HETATM   10  C   UNL     1     -41.544  61.234 -60.073  1.00  0.00     0.065 A 
HETATM   11  C   UNL     1     -40.017  62.376 -58.593  1.00  0.00     0.038 A 
HETATM   12  C   UNL     1     -42.433  60.085 -60.311  1.00  0.00     0.256 C 
HETATM   13  C   UNL     1     -41.269  62.155 -61.087  1.00  0.00     0.020 A 
HETATM   14  O   UNL     1     -42.954  59.866 -61.394  1.00  0.00    -0.267 OA
HETATM   15  N   UNL     1     -42.616  59.265 -59.234  1.00  0.00    -0.326 N 
HETATM   16  H   UNL     1     -43.300  58.534 -59.372  1.00  0.00     0.165 HD
HETATM   17  C   UNL     1     -40.369  63.193 -60.847  1.00  0.00     0.001 A 
HETATM   18  C   UNL     1     -39.740  63.301 -59.604  1.00  0.00     0.003 A 
ENDBRANCH   5   7
BRANCH   1  19
HETATM   19  O   UNL     1     -42.189  58.099 -53.262  1.00  0.00    -0.349 OA
BRANCH  19  20
HETATM   20  C   UNL     1     -40.872  58.523 -52.898  1.00  0.00     0.171 C 
HETATM   21  C   UNL     1     -40.614  58.144 -51.450  1.00  0.00     0.034 C 
ENDBRANCH  19  20
ENDBRANCH   1  19
BRANCH   2  22
HETATM   22  O   UNL     1     -42.380  55.554 -54.073  1.00  0.00    -0.344 OA
BRANCH  22  23
HETATM   23  C   UNL     1     -42.343  54.210 -54.553  1.00  0.00     0.214 C 
BRANCH  23  24
HETATM   24  C   UNL     1     -41.345  53.420 -53.739  1.00  0.00    -0.034 A 
HETATM   25  C   UNL     1     -41.057  53.778 -52.414  1.00  0.00     0.009 A 
HETATM   26  C   UNL     1     -40.160  53.023 -51.655  1.00  0.00     0.001 A 
HETATM   27  C   UNL     1     -39.548  51.899 -52.210  1.00  0.00     0.000 A 
HETATM   28  C   UNL     1     -39.832  51.530 -53.522  1.00  0.00     0.001 A 
HETATM   29  C   UNL     1     -40.727  52.284 -54.282  1.00  0.00     0.009 A 
ENDBRANCH  23  24
ENDBRANCH  22  23
ENDBRANCH   2  22
TORSDOF 6
ENDMDL
MODEL 8
REMARK VINA RESULT:      -7.6     15.238     17.304
REMARK  6 active torsions:
REMARK  status: ('A' for Active; 'I' for Inactive)
REMARK    1  A    between atoms: C_2  and  O_3 
REMARK    2  A    between atoms: O_3  and  C_4 
REMARK    3  A    between atoms: C_5  and  O_6 
REMARK    4  A    between atoms: O_6  and  C_7 
REMARK    5  A    between atoms: C_7  and  C_8 
REMARK    6  A    between atoms: C_16  and  C_17 
ROOT
HETATM    1  C   UNL     1     -35.458  40.942 -55.836  1.00  0.00     0.102 A 
HETATM    2  C   UNL     1     -36.533  41.555 -55.181  1.00  0.00     0.102 A 
HETATM    3  C   UNL     1     -37.825  41.396 -55.690  1.00  0.00     0.040 A 
HETATM    4  C   UNL     1     -38.047  40.597 -56.817  1.00  0.00     0.014 A 
HETATM    5  C   UNL     1     -36.980  39.950 -57.459  1.00  0.00    -0.007 A 
HETATM    6  C   UNL     1     -35.685  40.120 -56.944  1.00  0.00     0.051 A 
ENDROOT
BRANCH   5   7
HETATM    7  C   UNL     1     -37.226  39.040 -58.644  1.00  0.00     0.264 C 
HETATM    8  O   UNL     1     -38.588  39.179 -59.074  1.00  0.00    -0.321 OA
HETATM    9  C   UNL     1     -38.842  38.576 -60.276  1.00  0.00     0.087 A 
HETATM   10  C   UNL     1     -37.850  38.335 -61.226  1.00  0.00     0.065 A 
HETATM   11  C   UNL     1     -40.166  38.240 -60.555  1.00  0.00     0.038 A 
HETATM   12  C   UNL     1     -36.479  38.787 -60.933  1.00  0.00     0.256 C 
HETATM   13  C   UNL     1     -38.165  37.736 -62.447  1.00  0.00     0.020 A 
HETATM   14  O   UNL     1     -35.564  38.682 -61.736  1.00  0.00    -0.267 OA
HETATM   15  N   UNL     1     -36.309  39.353 -59.702  1.00  0.00    -0.326 N 
HETATM   16  H   UNL     1     -35.351  39.575 -59.468  1.00  0.00     0.165 HD
HETATM   17  C   UNL     1     -39.487  37.383 -62.718  1.00  0.00     0.001 A 
HETATM   18  C   UNL     1     -40.487  37.638 -61.775  1.00  0.00     0.003 A 
ENDBRANCH   5   7
BRANCH   1  19
HETATM   19  O   UNL     1     -34.202  41.077 -55.303  1.00  0.00    -0.349 OA
BRANCH  19  20
HETATM   20  C   UNL     1     -33.602  39.836 -54.918  1.00  0.00     0.171 C 
HETATM   21  C   UNL     1     -32.342  40.123 -54.121  1.00  0.00     0.034 C 
ENDBRANCH  19  20
ENDBRANCH   1  19
BRANCH   2  22
HETATM   22  O   UNL     1     -36.234  42.331 -54.092  1.00  0.00    -0.344 OA
BRANCH  22  23
HETATM   23  C   UNL     1     -36.777  41.884 -52.850  1.00  0.00     0.214 C 
BRANCH  23  24
HETATM   24  C   UNL     1     -35.710  41.140 -52.081  1.00  0.00    -0.034 A 
HETATM   25  C   UNL     1     -34.643  41.829 -51.486  1.00  0.00     0.009 A 
HETATM   26  C   UNL     1     -33.679  41.139 -50.747  1.00  0.00     0.001 A 
HETATM   27  C   UNL     1     -33.776  39.758 -50.589  1.00  0.00     0.000 A 
HETATM   28  C   UNL     1     -34.834  39.064 -51.170  1.00  0.00     0.001 A 
HETATM   29  C   UNL     1     -35.798  39.751 -51.909  1.00  0.00     0.009 A 
ENDBRANCH  23  24
ENDBRANCH  22  23
ENDBRANCH   2  22
TORSDOF 6
ENDMDL
MODEL 9
REMARK VINA RESULT:      -7.6      2.024      8.672
REMARK  6 active torsions:
REMARK  status: ('A' for Active; 'I' for Inactive)
REMARK    1  A    between atoms: C_2  and  O_3 
REMARK    2  A    between atoms: O_3  and  C_4 
REMARK    3  A    between atoms: C_5  and  O_6 
REMARK    4  A    between atoms: O_6  and  C_7 
REMARK    5  A    between atoms: C_7  and  C_8 
REMARK    6  A    between atoms: C_16  and  C_17 
ROOT
HETATM    1  C   UNL     1     -43.970  56.901 -54.774  1.00  0.00     0.102 A 
HETATM    2  C   UNL     1     -43.485  57.074 -56.076  1.00  0.00     0.102 A 
HETATM    3  C   UNL     1     -42.466  56.241 -56.544  1.00  0.00     0.040 A 
HETATM    4  C   UNL     1     -41.964  55.214 -55.734  1.00  0.00     0.014 A 
HETATM    5  C   UNL     1     -42.469  55.011 -54.441  1.00  0.00    -0.007 A 
HETATM    6  C   UNL     1     -43.489  55.857 -53.978  1.00  0.00     0.051 A 
ENDROOT
BRANCH   5   7
HETATM    7  C   UNL     1     -41.967  53.867 -53.586  1.00  0.00     0.264 C 
HETATM    8  O   UNL     1     -41.334  52.889 -54.424  1.00  0.00    -0.321 OA
HETATM    9  C   UNL     1     -40.647  51.935 -53.723  1.00  0.00     0.087 A 
HETATM   10  C   UNL     1     -40.152  52.152 -52.437  1.00  0.00     0.065 A 
HETATM   11  C   UNL     1     -40.407  50.721 -54.363  1.00  0.00     0.038 A 
HETATM   12  C   UNL     1     -40.347  53.479 -51.828  1.00  0.00     0.256 C 
HETATM   13  C   UNL     1     -39.438  51.153 -51.773  1.00  0.00     0.020 A 
HETATM   14  O   UNL     1     -39.885  53.779 -50.738  1.00  0.00    -0.267 OA
HETATM   15  N   UNL     1     -41.065  54.360 -52.585  1.00  0.00    -0.326 N 
HETATM   16  H   UNL     1     -41.278  55.236 -52.125  1.00  0.00     0.165 HD
HETATM   17  C   UNL     1     -39.214  49.931 -52.407  1.00  0.00     0.001 A 
HETATM   18  C   UNL     1     -39.694  49.717 -53.702  1.00  0.00     0.003 A 
ENDBRANCH   5   7
BRANCH   1  19
HETATM   19  O   UNL     1     -44.996  57.702 -54.344  1.00  0.00    -0.349 OA
BRANCH  19  20
HETATM   20  C   UNL     1     -44.729  58.368 -53.106  1.00  0.00     0.171 C 
HETATM   21  C   UNL     1     -43.827  59.560 -53.372  1.00  0.00     0.034 C 
ENDBRANCH  19  20
ENDBRANCH   1  19
BRANCH   2  22
HETATM   22  O   UNL     1     -44.017  58.107 -56.803  1.00  0.00    -0.344 OA
BRANCH  22  23
HETATM   23  C   UNL     1     -44.120  57.881 -58.209  1.00  0.00     0.214 C 
BRANCH  23  24
HETATM   24  C   UNL     1     -43.247  58.877 -58.937  1.00  0.00    -0.034 A 
HETATM   25  C   UNL     1     -42.896  58.676 -60.279  1.00  0.00     0.009 A 
HETATM   26  C   UNL     1     -42.118  59.619 -60.956  1.00  0.00     0.001 A 
HETATM   27  C   UNL     1     -41.691  60.772 -60.301  1.00  0.00     0.000 A 
HETATM   28  C   UNL     1     -42.039  60.986 -58.970  1.00  0.00     0.001 A 
HETATM   29  C   UNL     1     -42.815  60.045 -58.292  1.00  0.00     0.009 A 
ENDBRANCH  23  24
ENDBRANCH  22  23
ENDBRANCH   2  22
TORSDOF 6
ENDMDL
MODEL 10
REMARK VINA RESULT:      -7.6      2.257      4.307
REMARK  6 active torsions:
REMARK  status: ('A' for Active; 'I' for Inactive)
REMARK    1  A    between atoms: C_2  and  O_3 
REMARK    2  A    between atoms: O_3  and  C_4 
REMARK    3  A    between atoms: C_5  and  O_6 
REMARK    4  A    between atoms: O_6  and  C_7 
REMARK    5  A    between atoms: C_7  and  C_8 
REMARK    6  A    between atoms: C_16  and  C_17 
ROOT
HETATM    1  C   UNL     1     -42.896  56.562 -57.372  1.00  0.00     0.102 A 
HETATM    2  C   UNL     1     -42.744  56.652 -55.983  1.00  0.00     0.102 A 
HETATM    3  C   UNL     1     -42.367  57.871 -55.413  1.00  0.00     0.040 A 
HETATM    4  C   UNL     1     -42.185  59.001 -56.219  1.00  0.00     0.014 A 
HETATM    5  C   UNL     1     -42.370  58.929 -57.607  1.00  0.00    -0.007 A 
HETATM    6  C   UNL     1     -42.743  57.699 -58.171  1.00  0.00     0.051 A 
ENDROOT
BRANCH   5   7
HETATM    7  C   UNL     1     -42.229  60.164 -58.472  1.00  0.00     0.264 C 
HETATM    8  O   UNL     1     -41.000  60.831 -58.150  1.00  0.00    -0.321 OA
HETATM    9  C   UNL     1     -40.673  61.823 -59.034  1.00  0.00     0.087 A 
HETATM   10  C   UNL     1     -41.134  61.845 -60.350  1.00  0.00     0.065 A 
HETATM   11  C   UNL     1     -39.803  62.816 -58.588  1.00  0.00     0.038 A 
HETATM   12  C   UNL     1     -41.978  60.731 -60.813  1.00  0.00     0.256 C 
HETATM   13  C   UNL     1     -40.752  62.868 -61.220  1.00  0.00     0.020 A 
HETATM   14  O   UNL     1     -42.366  60.631 -61.967  1.00  0.00    -0.267 OA
HETATM   15  N   UNL     1     -42.278  59.800 -59.859  1.00  0.00    -0.326 N 
HETATM   16  H   UNL     1     -42.934  59.089 -60.154  1.00  0.00     0.165 HD
HETATM   17  C   UNL     1     -39.896  63.872 -60.767  1.00  0.00     0.001 A 
HETATM   18  C   UNL     1     -39.419  63.843 -59.454  1.00  0.00     0.003 A 
ENDBRANCH   5   7
BRANCH   1  19
HETATM   19  O   UNL     1     -43.303  55.369 -57.912  1.00  0.00    -0.349 OA
BRANCH  19  20
HETATM   20  C   UNL     1     -43.443  55.397 -59.335  1.00  0.00     0.171 C 
HETATM   21  C   UNL     1     -44.549  54.440 -59.742  1.00  0.00     0.034 C 
ENDBRANCH  19  20
ENDBRANCH   1  19
BRANCH   2  22
HETATM   22  O   UNL     1     -42.927  55.499 -55.264  1.00  0.00    -0.344 OA
BRANCH  22  23
HETATM   23  C   UNL     1     -42.559  55.570 -53.886  1.00  0.00     0.214 C 
BRANCH  23  24
HETATM   24  C   UNL     1     -41.654  54.406 -53.555  1.00  0.00    -0.034 A 
HETATM   25  C   UNL     1     -41.163  54.227 -52.254  1.00  0.00     0.009 A 
HETATM   26  C   UNL     1     -40.355  53.129 -51.946  1.00  0.00     0.001 A 
HETATM   27  C   UNL     1     -40.037  52.197 -52.933  1.00  0.00     0.000 A 
HETATM   28  C   UNL     1     -40.525  52.361 -54.228  1.00  0.00     0.001 A 
HETATM   29  C   UNL     1     -41.331  53.457 -54.537  1.00  0.00     0.009 A 
ENDBRANCH  23  24
ENDBRANCH  22  23
ENDBRANCH   2  22
TORSDOF 6
ENDMDL
