MODEL 1
REMARK VINA RESULT:      -8.6      0.000      0.000
REMARK  5 active torsions:
REMARK  status: ('A' for Active; 'I' for Inactive)
REMARK    1  A    between atoms: C_4  and  O_5 
REMARK    2  A    between atoms: O_5  and  C_6 
REMARK    3  A    between atoms: C_6  and  C_7 
REMARK       I    between atoms: C_7  and  N_8 
REMARK    4  A    between atoms: N_8  and  N_9 
REMARK    5  A    between atoms: C_10  and  C_11 
ROOT
HETATM    1  C   UNL     1     -42.458  55.548 -56.249  1.00  0.00     0.261 C 
HETATM    2  N   UNL     1     -41.282  55.675 -55.515  1.00  0.00    -0.246 N 
HETATM    3  O   UNL     1     -43.215  54.580 -56.248  1.00  0.00    -0.269 OA
HETATM    4  H   UNL     1     -40.643  56.414 -55.803  1.00  0.00     0.192 HD
ENDROOT
BRANCH   2   5
HETATM    5  N   UNL     1     -40.714  54.723 -54.701  1.00  0.00    -0.184 NA
HETATM    6  C   UNL     1     -41.174  54.570 -53.500  1.00  0.00     0.153 C 
BRANCH   6   7
HETATM    7  C   UNL     1     -40.625  53.553 -52.618  1.00  0.00     0.018 A 
HETATM    8  C   UNL     1     -40.311  52.206 -53.005  1.00  0.00     0.004 A 
HETATM    9  C   UNL     1     -39.822  51.547 -51.879  1.00  0.00     0.043 A 
HETATM   10  C   UNL     1     -40.387  51.489 -54.220  1.00  0.00     0.014 A 
HETATM   11  C   UNL     1     -39.417  50.207 -51.899  1.00  0.00     0.030 A 
HETATM   12  N   UNL     1     -39.835  52.454 -50.846  1.00  0.00    -0.358 N 
HETATM   13  C   UNL     1     -39.506  49.520 -53.112  1.00  0.00     0.002 A 
HETATM   14  C   UNL     1     -39.983  50.151 -54.259  1.00  0.00     0.001 A 
HETATM   15  H   UNL     1     -39.532  52.246 -49.905  1.00  0.00     0.166 HD
HETATM   16  C   UNL     1     -40.317  53.669 -51.269  1.00  0.00     0.018 A 
HETATM   17  C   UNL     1     -40.442  54.815 -50.329  1.00  0.00     0.069 C 
ENDBRANCH   6   7
ENDBRANCH   2   5
BRANCH   1  18
HETATM   18  C   UNL     1     -42.810  56.815 -57.021  1.00  0.00     0.280 C 
BRANCH  18  19
HETATM   19  O   UNL     1     -42.611  56.645 -58.422  1.00  0.00    -0.342 OA
BRANCH  19  20
HETATM   20  C   UNL     1     -43.760  56.417 -59.134  1.00  0.00     0.069 A 
HETATM   21  C   UNL     1     -44.779  57.356 -59.328  1.00  0.00     0.043 A 
HETATM   22  C   UNL     1     -45.926  57.022 -60.063  1.00  0.00    -0.059 A 
HETATM   23  C   UNL     1     -47.010  58.036 -60.288  1.00  0.00     0.048 C 
HETATM   24  C   UNL     1     -46.025  55.748 -60.633  1.00  0.00     0.007 A 
HETATM   25  C   UNL     1     -45.000  54.818 -60.461  1.00  0.00     0.003 A 
HETATM   26  C   UNL     1     -43.869  55.155 -59.717  1.00  0.00     0.037 A 
ENDBRANCH  19  20
ENDBRANCH  18  19
ENDBRANCH   1  18
TORSDOF 5
ENDMDL
MODEL 2
REMARK VINA RESULT:      -8.4      1.686      2.270
REMARK  5 active torsions:
REMARK  status: ('A' for Active; 'I' for Inactive)
REMARK    1  A    between atoms: C_4  and  O_5 
REMARK    2  A    between atoms: O_5  and  C_6 
REMARK    3  A    between atoms: C_6  and  C_7 
REMARK       I    between atoms: C_7  and  N_8 
REMARK    4  A    between atoms: N_8  and  N_9 
REMARK    5  A    between atoms: C_10  and  C_11 
ROOT
HETATM    1  C   UNL     1     -43.084  57.083 -54.269  1.00  0.00     0.261 C 
HETATM    2  N   UNL     1     -42.629  55.799 -54.555  1.00  0.00    -0.246 N 
HETATM    3  O   UNL     1     -43.174  57.591 -53.154  1.00  0.00    -0.269 OA
HETATM    4  H   UNL     1     -42.844  55.436 -55.482  1.00  0.00     0.192 HD
ENDROOT
BRANCH   2   5
HETATM    5  N   UNL     1     -42.253  54.838 -53.646  1.00  0.00    -0.184 NA
HETATM    6  C   UNL     1     -41.001  54.519 -53.552  1.00  0.00     0.153 C 
BRANCH   6   7
HETATM    7  C   UNL     1     -40.556  53.533 -52.581  1.00  0.00     0.018 A 
HETATM    8  C   UNL     1     -40.231  52.167 -52.882  1.00  0.00     0.004 A 
HETATM    9  C   UNL     1     -39.862  51.550 -51.688  1.00  0.00     0.043 A 
HETATM   10  C   UNL     1     -40.207  51.400 -54.068  1.00  0.00     0.014 A 
HETATM   11  C   UNL     1     -39.481  50.205 -51.615  1.00  0.00     0.030 A 
HETATM   12  N   UNL     1     -39.955  52.500 -50.700  1.00  0.00    -0.358 N 
HETATM   13  C   UNL     1     -39.469  49.468 -52.802  1.00  0.00     0.002 A 
HETATM   14  C   UNL     1     -39.825  50.055 -54.014  1.00  0.00     0.001 A 
HETATM   15  H   UNL     1     -39.744  52.328 -49.727  1.00  0.00     0.166 HD
HETATM   16  C   UNL     1     -40.373  53.703 -51.216  1.00  0.00     0.018 A 
HETATM   17  C   UNL     1     -40.564  54.890 -50.340  1.00  0.00     0.069 C 
ENDBRANCH   6   7
ENDBRANCH   2   5
BRANCH   1  18
HETATM   18  C   UNL     1     -43.385  57.895 -55.525  1.00  0.00     0.280 C 
BRANCH  18  19
HETATM   19  O   UNL     1     -42.249  57.971 -56.381  1.00  0.00    -0.342 OA
BRANCH  19  20
HETATM   20  C   UNL     1     -42.463  57.503 -57.651  1.00  0.00     0.069 A 
HETATM   21  C   UNL     1     -43.228  56.375 -57.969  1.00  0.00     0.043 A 
HETATM   22  C   UNL     1     -43.376  55.966 -59.302  1.00  0.00    -0.059 A 
HETATM   23  C   UNL     1     -44.214  54.769 -59.644  1.00  0.00     0.048 C 
HETATM   24  C   UNL     1     -42.779  56.721 -60.318  1.00  0.00     0.007 A 
HETATM   25  C   UNL     1     -42.035  57.859 -60.006  1.00  0.00     0.003 A 
HETATM   26  C   UNL     1     -41.883  58.250 -58.676  1.00  0.00     0.037 A 
ENDBRANCH  19  20
ENDBRANCH  18  19
ENDBRANCH   1  18
TORSDOF 5
ENDMDL
MODEL 3
REMARK VINA RESULT:      -8.2      1.085      2.879
REMARK  5 active torsions:
REMARK  status: ('A' for Active; 'I' for Inactive)
REMARK    1  A    between atoms: C_4  and  O_5 
REMARK    2  A    between atoms: O_5  and  C_6 
REMARK    3  A    between atoms: C_6  and  C_7 
REMARK       I    between atoms: C_7  and  N_8 
REMARK    4  A    between atoms: N_8  and  N_9 
REMARK    5  A    between atoms: C_10  and  C_11 
ROOT
HETATM    1  C   UNL     1     -42.154  56.882 -55.937  1.00  0.00     0.261 C 
HETATM    2  N   UNL     1     -41.518  55.646 -55.870  1.00  0.00    -0.246 N 
HETATM    3  O   UNL     1     -42.231  57.710 -55.032  1.00  0.00    -0.269 OA
HETATM    4  H   UNL     1     -41.748  54.975 -56.601  1.00  0.00     0.192 HD
ENDROOT
BRANCH   2   5
HETATM    5  N   UNL     1     -40.911  55.092 -54.767  1.00  0.00    -0.184 NA
HETATM    6  C   UNL     1     -41.580  54.259 -54.035  1.00  0.00     0.153 C 
BRANCH   6   7
HETATM    7  C   UNL     1     -40.965  53.624 -52.880  1.00  0.00     0.018 A 
HETATM    8  C   UNL     1     -41.007  54.135 -51.538  1.00  0.00     0.004 A 
HETATM    9  C   UNL     1     -40.295  53.250 -50.730  1.00  0.00     0.043 A 
HETATM   10  C   UNL     1     -41.598  55.267 -50.934  1.00  0.00     0.014 A 
HETATM   11  C   UNL     1     -40.133  53.443 -49.353  1.00  0.00     0.030 A 
HETATM   12  N   UNL     1     -39.839  52.241 -51.543  1.00  0.00    -0.358 N 
HETATM   13  C   UNL     1     -40.724  54.573 -48.781  1.00  0.00     0.002 A 
HETATM   14  C   UNL     1     -41.449  55.473 -49.559  1.00  0.00     0.001 A 
HETATM   15  H   UNL     1     -39.289  51.457 -51.220  1.00  0.00     0.166 HD
HETATM   16  C   UNL     1     -40.231  52.447 -52.844  1.00  0.00     0.018 A 
HETATM   17  C   UNL     1     -39.848  51.496 -53.922  1.00  0.00     0.069 C 
ENDBRANCH   6   7
ENDBRANCH   2   5
BRANCH   1  18
HETATM   18  C   UNL     1     -42.691  57.193 -57.330  1.00  0.00     0.280 C 
BRANCH  18  19
HETATM   19  O   UNL     1     -42.876  56.005 -58.095  1.00  0.00    -0.342 OA
BRANCH  19  20
HETATM   20  C   UNL     1     -43.950  56.039 -58.945  1.00  0.00     0.069 A 
HETATM   21  C   UNL     1     -44.907  57.059 -58.985  1.00  0.00     0.043 A 
HETATM   22  C   UNL     1     -45.981  56.996 -59.884  1.00  0.00    -0.059 A 
HETATM   23  C   UNL     1     -46.995  58.100 -59.940  1.00  0.00     0.048 C 
HETATM   24  C   UNL     1     -46.067  55.916 -60.770  1.00  0.00     0.007 A 
HETATM   25  C   UNL     1     -45.102  54.909 -60.748  1.00  0.00     0.003 A 
HETATM   26  C   UNL     1     -44.044  54.975 -59.842  1.00  0.00     0.037 A 
ENDBRANCH  19  20
ENDBRANCH  18  19
ENDBRANCH   1  18
TORSDOF 5
ENDMDL
MODEL 4
REMARK VINA RESULT:      -8.1      2.321      9.129
REMARK  5 active torsions:
REMARK  status: ('A' for Active; 'I' for Inactive)
REMARK    1  A    between atoms: C_4  and  O_5 
REMARK    2  A    between atoms: O_5  and  C_6 
REMARK    3  A    between atoms: C_6  and  C_7 
REMARK       I    between atoms: C_7  and  N_8 
REMARK    4  A    between atoms: N_8  and  N_9 
REMARK    5  A    between atoms: C_10  and  C_11 
ROOT
HETATM    1  C   UNL     1     -43.188  55.624 -54.058  1.00  0.00     0.261 C 
HETATM    2  N   UNL     1     -42.593  55.610 -55.316  1.00  0.00    -0.246 N 
HETATM    3  O   UNL     1     -44.212  56.227 -53.745  1.00  0.00    -0.269 OA
HETATM    4  H   UNL     1     -41.631  55.279 -55.361  1.00  0.00     0.192 HD
ENDROOT
BRANCH   2   5
HETATM    5  N   UNL     1     -43.000  56.312 -56.427  1.00  0.00    -0.184 NA
HETATM    6  C   UNL     1     -42.890  55.759 -57.593  1.00  0.00     0.153 C 
BRANCH   6   7
HETATM    7  C   UNL     1     -43.340  56.452 -58.790  1.00  0.00     0.018 A 
HETATM    8  C   UNL     1     -42.995  57.801 -59.141  1.00  0.00     0.004 A 
HETATM    9  C   UNL     1     -43.631  58.097 -60.345  1.00  0.00     0.043 A 
HETATM   10  C   UNL     1     -42.187  58.796 -58.547  1.00  0.00     0.014 A 
HETATM   11  C   UNL     1     -43.511  59.339 -60.982  1.00  0.00     0.030 A 
HETATM   12  N   UNL     1     -44.333  56.976 -60.716  1.00  0.00    -0.358 N 
HETATM   13  C   UNL     1     -42.709  60.307 -60.371  1.00  0.00     0.002 A 
HETATM   14  C   UNL     1     -42.054  60.041 -59.171  1.00  0.00     0.001 A 
HETATM   15  H   UNL     1     -44.891  56.908 -61.555  1.00  0.00     0.166 HD
HETATM   16  C   UNL     1     -44.173  55.972 -59.791  1.00  0.00     0.018 A 
HETATM   17  C   UNL     1     -44.847  54.657 -59.960  1.00  0.00     0.069 C 
ENDBRANCH   6   7
ENDBRANCH   2   5
BRANCH   1  18
HETATM   18  C   UNL     1     -42.489  54.701 -53.066  1.00  0.00     0.280 C 
BRANCH  18  19
HETATM   19  O   UNL     1     -41.111  54.536 -53.388  1.00  0.00    -0.342 OA
BRANCH  19  20
HETATM   20  C   UNL     1     -40.602  53.300 -53.084  1.00  0.00     0.069 A 
HETATM   21  C   UNL     1     -40.404  52.268 -54.007  1.00  0.00     0.043 A 
HETATM   22  C   UNL     1     -39.888  51.031 -53.595  1.00  0.00    -0.059 A 
HETATM   23  C   UNL     1     -39.657  49.931 -54.589  1.00  0.00     0.048 C 
HETATM   24  C   UNL     1     -39.538  50.851 -52.251  1.00  0.00     0.007 A 
HETATM   25  C   UNL     1     -39.713  51.886 -51.334  1.00  0.00     0.003 A 
HETATM   26  C   UNL     1     -40.238  53.109 -51.751  1.00  0.00     0.037 A 
ENDBRANCH  19  20
ENDBRANCH  18  19
ENDBRANCH   1  18
TORSDOF 5
ENDMDL
MODEL 5
REMARK VINA RESULT:      -7.9      1.423      1.936
REMARK  5 active torsions:
REMARK  status: ('A' for Active; 'I' for Inactive)
REMARK    1  A    between atoms: C_4  and  O_5 
REMARK    2  A    between atoms: O_5  and  C_6 
REMARK    3  A    between atoms: C_6  and  C_7 
REMARK       I    between atoms: C_7  and  N_8 
REMARK    4  A    between atoms: N_8  and  N_9 
REMARK    5  A    between atoms: C_10  and  C_11 
ROOT
HETATM    1  C   UNL     1     -41.881  57.804 -54.923  1.00  0.00     0.261 C 
HETATM    2  N   UNL     1     -41.649  56.439 -55.059  1.00  0.00    -0.246 N 
HETATM    3  O   UNL     1     -41.486  58.521 -54.007  1.00  0.00    -0.269 OA
HETATM    4  H   UNL     1     -42.239  55.940 -55.723  1.00  0.00     0.192 HD
ENDROOT
BRANCH   2   5
HETATM    5  N   UNL     1     -40.988  55.624 -54.170  1.00  0.00    -0.184 NA
HETATM    6  C   UNL     1     -41.589  54.569 -53.720  1.00  0.00     0.153 C 
BRANCH   6   7
HETATM    7  C   UNL     1     -40.915  53.662 -52.805  1.00  0.00     0.018 A 
HETATM    8  C   UNL     1     -40.485  52.331 -53.130  1.00  0.00     0.004 A 
HETATM    9  C   UNL     1     -39.897  51.789 -51.988  1.00  0.00     0.043 A 
HETATM   10  C   UNL     1     -40.531  51.540 -54.299  1.00  0.00     0.014 A 
HETATM   11  C   UNL     1     -39.364  50.494 -51.951  1.00  0.00     0.030 A 
HETATM   12  N   UNL     1     -39.964  52.749 -51.007  1.00  0.00    -0.358 N 
HETATM   13  C   UNL     1     -39.427  49.732 -53.120  1.00  0.00     0.002 A 
HETATM   14  C   UNL     1     -40.000  50.246 -54.280  1.00  0.00     0.001 A 
HETATM   15  H   UNL     1     -39.610  52.626 -50.069  1.00  0.00     0.166 HD
HETATM   16  C   UNL     1     -40.576  53.886 -51.478  1.00  0.00     0.018 A 
HETATM   17  C   UNL     1     -40.780  55.068 -50.599  1.00  0.00     0.069 C 
ENDBRANCH   6   7
ENDBRANCH   2   5
BRANCH   1  18
HETATM   18  C   UNL     1     -42.621  58.398 -56.117  1.00  0.00     0.280 C 
BRANCH  18  19
HETATM   19  O   UNL     1     -42.392  57.640 -57.302  1.00  0.00    -0.342 OA
BRANCH  19  20
HETATM   20  C   UNL     1     -43.519  57.380 -58.037  1.00  0.00     0.069 A 
HETATM   21  C   UNL     1     -43.597  56.450 -59.079  1.00  0.00     0.043 A 
HETATM   22  C   UNL     1     -44.796  56.265 -59.782  1.00  0.00    -0.059 A 
HETATM   23  C   UNL     1     -44.884  55.253 -60.887  1.00  0.00     0.048 C 
HETATM   24  C   UNL     1     -45.928  56.997 -59.406  1.00  0.00     0.007 A 
HETATM   25  C   UNL     1     -45.859  57.908 -58.352  1.00  0.00     0.003 A 
HETATM   26  C   UNL     1     -44.659  58.094 -57.666  1.00  0.00     0.037 A 
ENDBRANCH  19  20
ENDBRANCH  18  19
ENDBRANCH   1  18
TORSDOF 5
ENDMDL
MODEL 6
REMARK VINA RESULT:      -7.6      6.140      8.358
REMARK  5 active torsions:
REMARK  status: ('A' for Active; 'I' for Inactive)
REMARK    1  A    between atoms: C_4  and  O_5 
REMARK    2  A    between atoms: O_5  and  C_6 
REMARK    3  A    between atoms: C_6  and  C_7 
REMARK       I    between atoms: C_7  and  N_8 
REMARK    4  A    between atoms: N_8  and  N_9 
REMARK    5  A    between atoms: C_10  and  C_11 
ROOT
HETATM    1  C   UNL     1     -44.760  58.568 -50.958  1.00  0.00     0.261 C 
HETATM    2  N   UNL     1     -43.431  58.158 -51.003  1.00  0.00    -0.246 N 
HETATM    3  O   UNL     1     -45.743  57.840 -50.834  1.00  0.00    -0.269 OA
HETATM    4  H   UNL     1     -42.757  58.835 -51.355  1.00  0.00     0.192 HD
ENDROOT
BRANCH   2   5
HETATM    5  N   UNL     1     -42.969  56.863 -50.977  1.00  0.00    -0.184 NA
HETATM    6  C   UNL     1     -41.782  56.611 -51.430  1.00  0.00     0.153 C 
BRANCH   6   7
HETATM    7  C   UNL     1     -41.241  55.262 -51.391  1.00  0.00     0.018 A 
HETATM    8  C   UNL     1     -40.916  54.469 -52.543  1.00  0.00     0.004 A 
HETATM    9  C   UNL     1     -40.440  53.241 -52.088  1.00  0.00     0.043 A 
HETATM   10  C   UNL     1     -40.972  54.691 -53.937  1.00  0.00     0.014 A 
HETATM   11  C   UNL     1     -40.029  52.219 -52.952  1.00  0.00     0.030 A 
HETATM   12  N   UNL     1     -40.472  53.282 -50.714  1.00  0.00    -0.358 N 
HETATM   13  C   UNL     1     -40.098  52.462 -54.326  1.00  0.00     0.002 A 
HETATM   14  C   UNL     1     -40.561  53.682 -54.814  1.00  0.00     0.001 A 
HETATM   15  H   UNL     1     -40.180  52.521 -50.118  1.00  0.00     0.166 HD
HETATM   16  C   UNL     1     -40.953  54.491 -50.273  1.00  0.00     0.018 A 
HETATM   17  C   UNL     1     -41.096  54.777 -48.821  1.00  0.00     0.069 C 
ENDBRANCH   6   7
ENDBRANCH   2   5
BRANCH   1  18
HETATM   18  C   UNL     1     -44.909  60.086 -50.975  1.00  0.00     0.280 C 
BRANCH  18  19
HETATM   19  O   UNL     1     -44.162  60.695 -49.925  1.00  0.00    -0.342 OA
BRANCH  19  20
HETATM   20  C   UNL     1     -44.925  61.338 -48.986  1.00  0.00     0.069 A 
HETATM   21  C   UNL     1     -44.597  61.454 -47.631  1.00  0.00     0.043 A 
HETATM   22  C   UNL     1     -45.452  62.121 -46.743  1.00  0.00    -0.059 A 
HETATM   23  C   UNL     1     -45.089  62.262 -45.294  1.00  0.00     0.048 C 
HETATM   24  C   UNL     1     -46.626  62.705 -47.235  1.00  0.00     0.007 A 
HETATM   25  C   UNL     1     -46.944  62.612 -48.589  1.00  0.00     0.003 A 
HETATM   26  C   UNL     1     -46.093  61.935 -49.462  1.00  0.00     0.037 A 
ENDBRANCH  19  20
ENDBRANCH  18  19
ENDBRANCH   1  18
TORSDOF 5
ENDMDL
MODEL 7
REMARK VINA RESULT:      -7.4      3.044      4.252
REMARK  5 active torsions:
REMARK  status: ('A' for Active; 'I' for Inactive)
REMARK    1  A    between atoms: C_4  and  O_5 
REMARK    2  A    between atoms: O_5  and  C_6 
REMARK    3  A    between atoms: C_6  and  C_7 
REMARK       I    between atoms: C_7  and  N_8 
REMARK    4  A    between atoms: N_8  and  N_9 
REMARK    5  A    between atoms: C_10  and  C_11 
ROOT
HETATM    1  C   UNL     1     -44.289  57.397 -51.502  1.00  0.00     0.261 C 
HETATM    2  N   UNL     1     -43.187  56.798 -52.104  1.00  0.00    -0.246 N 
HETATM    3  O   UNL     1     -44.963  56.927 -50.587  1.00  0.00    -0.269 OA
HETATM    4  H   UNL     1     -42.890  57.186 -52.998  1.00  0.00     0.192 HD
ENDROOT
BRANCH   2   5
HETATM    5  N   UNL     1     -42.680  55.548 -51.836  1.00  0.00    -0.184 NA
HETATM    6  C   UNL     1     -41.406  55.414 -51.648  1.00  0.00     0.153 C 
BRANCH   6   7
HETATM    7  C   UNL     1     -40.833  54.117 -51.328  1.00  0.00     0.018 A 
HETATM    8  C   UNL     1     -40.520  53.094 -52.286  1.00  0.00     0.004 A 
HETATM    9  C   UNL     1     -40.004  52.005 -51.586  1.00  0.00     0.043 A 
HETATM   10  C   UNL     1     -40.617  53.001 -53.692  1.00  0.00     0.014 A 
HETATM   11  C   UNL     1     -39.592  50.824 -52.215  1.00  0.00     0.030 A 
HETATM   12  N   UNL     1     -40.000  52.349 -50.255  1.00  0.00    -0.358 N 
HETATM   13  C   UNL     1     -39.703  50.756 -53.606  1.00  0.00     0.002 A 
HETATM   14  C   UNL     1     -40.207  51.829 -54.337  1.00  0.00     0.001 A 
HETATM   15  H   UNL     1     -39.676  51.744 -49.515  1.00  0.00     0.166 HD
HETATM   16  C   UNL     1     -40.498  53.618 -50.077  1.00  0.00     0.018 A 
HETATM   17  C   UNL     1     -40.610  54.216 -48.720  1.00  0.00     0.069 C 
ENDBRANCH   6   7
ENDBRANCH   2   5
BRANCH   1  18
HETATM   18  C   UNL     1     -44.552  58.806 -52.023  1.00  0.00     0.280 C 
BRANCH  18  19
HETATM   19  O   UNL     1     -45.115  58.782 -53.331  1.00  0.00    -0.342 OA
BRANCH  19  20
HETATM   20  C   UNL     1     -44.194  58.820 -54.346  1.00  0.00     0.069 A 
HETATM   21  C   UNL     1     -44.212  57.991 -55.472  1.00  0.00     0.043 A 
HETATM   22  C   UNL     1     -43.215  58.096 -56.452  1.00  0.00    -0.059 A 
HETATM   23  C   UNL     1     -43.246  57.221 -57.671  1.00  0.00     0.048 C 
HETATM   24  C   UNL     1     -42.218  59.068 -56.309  1.00  0.00     0.007 A 
HETATM   25  C   UNL     1     -42.211  59.912 -55.199  1.00  0.00     0.003 A 
HETATM   26  C   UNL     1     -43.200  59.790 -54.223  1.00  0.00     0.037 A 
ENDBRANCH  19  20
ENDBRANCH  18  19
ENDBRANCH   1  18
TORSDOF 5
ENDMDL
MODEL 8
REMARK VINA RESULT:      -7.3      1.749      2.501
REMARK  5 active torsions:
REMARK  status: ('A' for Active; 'I' for Inactive)
REMARK    1  A    between atoms: C_4  and  O_5 
REMARK    2  A    between atoms: O_5  and  C_6 
REMARK    3  A    between atoms: C_6  and  C_7 
REMARK       I    between atoms: C_7  and  N_8 
REMARK    4  A    between atoms: N_8  and  N_9 
REMARK    5  A    between atoms: C_10  and  C_11 
ROOT
HETATM    1  C   UNL     1     -43.186  57.271 -57.239  1.00  0.00     0.261 C 
HETATM    2  N   UNL     1     -43.281  56.052 -56.574  1.00  0.00    -0.246 N 
HETATM    3  O   UNL     1     -42.437  58.201 -56.948  1.00  0.00    -0.269 OA
HETATM    4  H   UNL     1     -44.107  55.490 -56.771  1.00  0.00     0.192 HD
ENDROOT
BRANCH   2   5
HETATM    5  N   UNL     1     -42.604  55.681 -55.435  1.00  0.00    -0.184 NA
HETATM    6  C   UNL     1     -43.154  54.830 -54.629  1.00  0.00     0.153 C 
BRANCH   6   7
HETATM    7  C   UNL     1     -42.459  54.384 -53.432  1.00  0.00     0.018 A 
HETATM    8  C   UNL     1     -41.488  53.326 -53.387  1.00  0.00     0.004 A 
HETATM    9  C   UNL     1     -41.068  53.197 -52.065  1.00  0.00     0.043 A 
HETATM   10  C   UNL     1     -40.918  52.473 -54.358  1.00  0.00     0.014 A 
HETATM   11  C   UNL     1     -40.117  52.252 -51.659  1.00  0.00     0.030 A 
HETATM   12  N   UNL     1     -41.751  54.137 -51.332  1.00  0.00    -0.358 N 
HETATM   13  C   UNL     1     -39.572  51.417 -52.639  1.00  0.00     0.002 A 
HETATM   14  C   UNL     1     -39.964  51.525 -53.971  1.00  0.00     0.001 A 
HETATM   15  H   UNL     1     -41.642  54.269 -50.337  1.00  0.00     0.166 HD
HETATM   16  C   UNL     1     -42.597  54.863 -52.137  1.00  0.00     0.018 A 
HETATM   17  C   UNL     1     -43.459  55.936 -51.574  1.00  0.00     0.069 C 
ENDBRANCH   6   7
ENDBRANCH   2   5
BRANCH   1  18
HETATM   18  C   UNL     1     -44.058  57.331 -58.488  1.00  0.00     0.280 C 
BRANCH  18  19
HETATM   19  O   UNL     1     -45.411  57.642 -58.165  1.00  0.00    -0.342 OA
BRANCH  19  20
HETATM   20  C   UNL     1     -46.254  57.693 -59.244  1.00  0.00     0.069 A 
HETATM   21  C   UNL     1     -46.820  58.863 -59.762  1.00  0.00     0.043 A 
HETATM   22  C   UNL     1     -47.686  58.811 -60.864  1.00  0.00    -0.059 A 
HETATM   23  C   UNL     1     -48.277  60.068 -61.431  1.00  0.00     0.048 C 
HETATM   24  C   UNL     1     -47.949  57.575 -61.466  1.00  0.00     0.007 A 
HETATM   25  C   UNL     1     -47.368  56.410 -60.967  1.00  0.00     0.003 A 
HETATM   26  C   UNL     1     -46.518  56.471 -59.862  1.00  0.00     0.037 A 
ENDBRANCH  19  20
ENDBRANCH  18  19
ENDBRANCH   1  18
TORSDOF 5
ENDMDL
MODEL 9
REMARK VINA RESULT:      -7.3      4.953      6.309
REMARK  5 active torsions:
REMARK  status: ('A' for Active; 'I' for Inactive)
REMARK    1  A    between atoms: C_4  and  O_5 
REMARK    2  A    between atoms: O_5  and  C_6 
REMARK    3  A    between atoms: C_6  and  C_7 
REMARK       I    between atoms: C_7  and  N_8 
REMARK    4  A    between atoms: N_8  and  N_9 
REMARK    5  A    between atoms: C_10  and  C_11 
ROOT
HETATM    1  C   UNL     1     -44.561  57.669 -51.730  1.00  0.00     0.261 C 
HETATM    2  N   UNL     1     -43.508  57.045 -52.392  1.00  0.00    -0.246 N 
HETATM    3  O   UNL     1     -45.125  57.262 -50.717  1.00  0.00    -0.269 OA
HETATM    4  H   UNL     1     -43.314  57.364 -53.340  1.00  0.00     0.192 HD
ENDROOT
BRANCH   2   5
HETATM    5  N   UNL     1     -42.940  55.833 -52.078  1.00  0.00    -0.184 NA
HETATM    6  C   UNL     1     -41.684  55.790 -51.765  1.00  0.00     0.153 C 
BRANCH   6   7
HETATM    7  C   UNL     1     -41.052  54.535 -51.392  1.00  0.00     0.018 A 
HETATM    8  C   UNL     1     -40.629  53.519 -52.315  1.00  0.00     0.004 A 
HETATM    9  C   UNL     1     -40.086  52.474 -51.569  1.00  0.00     0.043 A 
HETATM   10  C   UNL     1     -40.647  53.399 -53.722  1.00  0.00     0.014 A 
HETATM   11  C   UNL     1     -39.572  51.311 -52.155  1.00  0.00     0.030 A 
HETATM   12  N   UNL     1     -40.173  52.837 -50.247  1.00  0.00    -0.358 N 
HETATM   13  C   UNL     1     -39.606  51.215 -53.548  1.00  0.00     0.002 A 
HETATM   14  C   UNL     1     -40.134  52.245 -54.324  1.00  0.00     0.001 A 
HETATM   15  H   UNL     1     -39.852  52.264 -49.480  1.00  0.00     0.166 HD
HETATM   16  C   UNL     1     -40.753  54.076 -50.117  1.00  0.00     0.018 A 
HETATM   17  C   UNL     1     -40.971  54.686 -48.778  1.00  0.00     0.069 C 
ENDBRANCH   6   7
ENDBRANCH   2   5
BRANCH   1  18
HETATM   18  C   UNL     1     -44.917  59.024 -52.332  1.00  0.00     0.280 C 
BRANCH  18  19
HETATM   19  O   UNL     1     -43.790  59.625 -52.964  1.00  0.00    -0.342 OA
BRANCH  19  20
HETATM   20  C   UNL     1     -43.622  60.955 -52.678  1.00  0.00     0.069 A 
HETATM   21  C   UNL     1     -43.549  61.493 -51.389  1.00  0.00     0.043 A 
HETATM   22  C   UNL     1     -43.390  62.873 -51.199  1.00  0.00    -0.059 A 
HETATM   23  C   UNL     1     -43.290  63.447 -49.816  1.00  0.00     0.048 C 
HETATM   24  C   UNL     1     -43.269  63.706 -52.317  1.00  0.00     0.007 A 
HETATM   25  C   UNL     1     -43.319  63.170 -53.604  1.00  0.00     0.003 A 
HETATM   26  C   UNL     1     -43.490  61.797 -53.782  1.00  0.00     0.037 A 
ENDBRANCH  19  20
ENDBRANCH  18  19
ENDBRANCH   1  18
TORSDOF 5
ENDMDL
MODEL 10
REMARK VINA RESULT:      -7.2     14.725     19.065
REMARK  5 active torsions:
REMARK  status: ('A' for Active; 'I' for Inactive)
REMARK    1  A    between atoms: C_4  and  O_5 
REMARK    2  A    between atoms: O_5  and  C_6 
REMARK    3  A    between atoms: C_6  and  C_7 
REMARK       I    between atoms: C_7  and  N_8 
REMARK    4  A    between atoms: N_8  and  N_9 
REMARK    5  A    between atoms: C_10  and  C_11 
ROOT
HETATM    1  C   UNL     1     -33.214  39.533 -50.314  1.00  0.00     0.261 C 
HETATM    2  N   UNL     1     -33.927  40.581 -50.890  1.00  0.00    -0.246 N 
HETATM    3  O   UNL     1     -33.304  38.343 -50.610  1.00  0.00    -0.269 OA
HETATM    4  H   UNL     1     -33.930  41.463 -50.380  1.00  0.00     0.192 HD
ENDROOT
BRANCH   2   5
HETATM    5  N   UNL     1     -34.906  40.480 -51.851  1.00  0.00    -0.184 NA
HETATM    6  C   UNL     1     -35.303  41.554 -52.456  1.00  0.00     0.153 C 
BRANCH   6   7
HETATM    7  C   UNL     1     -36.311  41.488 -53.502  1.00  0.00     0.018 A 
HETATM    8  C   UNL     1     -36.073  41.746 -54.894  1.00  0.00     0.004 A 
HETATM    9  C   UNL     1     -37.287  41.594 -55.563  1.00  0.00     0.043 A 
HETATM   10  C   UNL     1     -34.929  42.085 -55.651  1.00  0.00     0.014 A 
HETATM   11  C   UNL     1     -37.419  41.773 -56.946  1.00  0.00     0.030 A 
HETATM   12  N   UNL     1     -38.226  41.255 -54.619  1.00  0.00    -0.358 N 
HETATM   13  C   UNL     1     -36.273  42.111 -57.670  1.00  0.00     0.002 A 
HETATM   14  C   UNL     1     -35.043  42.264 -57.033  1.00  0.00     0.001 A 
HETATM   15  H   UNL     1     -39.199  41.083 -54.825  1.00  0.00     0.166 HD
HETATM   16  C   UNL     1     -37.659  41.188 -53.369  1.00  0.00     0.018 A 
HETATM   17  C   UNL     1     -38.477  40.851 -52.173  1.00  0.00     0.069 C 
ENDBRANCH   6   7
ENDBRANCH   2   5
BRANCH   1  18
HETATM   18  C   UNL     1     -32.180  40.011 -49.301  1.00  0.00     0.280 C 
BRANCH  18  19
HETATM   19  O   UNL     1     -31.502  38.916 -48.692  1.00  0.00    -0.342 OA
BRANCH  19  20
HETATM   20  C   UNL     1     -31.467  38.962 -47.322  1.00  0.00     0.069 A 
HETATM   21  C   UNL     1     -30.649  39.813 -46.571  1.00  0.00     0.043 A 
HETATM   22  C   UNL     1     -30.675  39.775 -45.170  1.00  0.00    -0.059 A 
HETATM   23  C   UNL     1     -29.813  40.703 -44.365  1.00  0.00     0.048 C 
HETATM   24  C   UNL     1     -31.557  38.898 -44.527  1.00  0.00     0.007 A 
HETATM   25  C   UNL     1     -32.390  38.065 -45.273  1.00  0.00     0.003 A 
HETATM   26  C   UNL     1     -32.348  38.102 -46.667  1.00  0.00     0.037 A 
ENDBRANCH  19  20
ENDBRANCH  18  19
ENDBRANCH   1  18
TORSDOF 5
ENDMDL
