MODEL 1
REMARK VINA RESULT:      -7.8      0.000      0.000
REMARK  8 active torsions:
REMARK  status: ('A' for Active; 'I' for Inactive)
REMARK    1  A    between atoms: C_2  and  C_3 
REMARK    2  A    between atoms: C_3  and  N_4 
REMARK    3  A    between atoms: C_7  and  C_8 
REMARK       I    between atoms: C_8  and  N_9 
REMARK    4  A    between atoms: N_9  and  N_10 
REMARK       I    between atoms: N_10  and  C_11 
REMARK    5  A    between atoms: C_11  and  C_12 
REMARK    6  A    between atoms: C_12  and  O_13 
REMARK    7  A    between atoms: O_13  and  C_14 
REMARK    8  A    between atoms: C_23  and  C_24 
ROOT
HETATM    1  C   UNL     1     -43.259  55.945 -56.194  1.00  0.00     0.273 C 
HETATM    2  N   UNL     1     -44.083  55.985 -55.085  1.00  0.00    -0.263 N 
HETATM    3  O   UNL     1     -42.372  55.109 -56.340  1.00  0.00    -0.266 OA
HETATM    4  H   UNL     1     -44.613  56.830 -54.876  1.00  0.00     0.190 HD
ENDROOT
BRANCH   2   5
HETATM    5  N   UNL     1     -43.761  55.171 -53.987  1.00  0.00    -0.265 N 
HETATM    6  C   UNL     1     -43.098  55.757 -52.927  1.00  0.00     0.260 C 
HETATM    7  O   UNL     1     -42.941  56.974 -52.834  1.00  0.00    -0.269 OA
HETATM    8  H   UNL     1     -43.612  54.178 -54.177  1.00  0.00     0.190 HD
BRANCH   6   9
HETATM    9  C   UNL     1     -42.599  54.781 -51.865  1.00  0.00     0.280 C 
BRANCH   9  10
HETATM   10  O   UNL     1     -41.182  54.648 -51.898  1.00  0.00    -0.342 OA
BRANCH  10  11
HETATM   11  C   UNL     1     -40.691  53.464 -52.379  1.00  0.00     0.069 A 
HETATM   12  C   UNL     1     -40.892  53.255 -53.744  1.00  0.00     0.037 A 
HETATM   13  C   UNL     1     -40.452  52.080 -54.358  1.00  0.00     0.009 A 
HETATM   14  C   UNL     1     -39.798  51.095 -53.612  1.00  0.00    -0.062 A 
HETATM   15  C   UNL     1     -39.319  49.827 -54.253  1.00  0.00     0.048 C 
HETATM   16  C   UNL     1     -39.581  51.315 -52.247  1.00  0.00     0.009 A 
HETATM   17  C   UNL     1     -40.022  52.493 -51.633  1.00  0.00     0.037 A 
ENDBRANCH  10  11
ENDBRANCH   9  10
ENDBRANCH   6   9
ENDBRANCH   2   5
BRANCH   1  18
HETATM   18  C   UNL     1     -43.580  56.961 -57.169  1.00  0.00     0.077 A 
HETATM   19  C   UNL     1     -43.849  58.314 -56.870  1.00  0.00     0.158 A 
HETATM   20  N   UNL     1     -44.108  59.044 -57.951  1.00  0.00    -0.183 NA
HETATM   21  N   UNL     1     -44.025  58.161 -58.967  1.00  0.00    -0.268 N 
HETATM   22  C   UNL     1     -43.685  56.887 -58.551  1.00  0.00     0.052 A 
BRANCH  21  23
HETATM   23  C   UNL     1     -44.312  58.606 -60.331  1.00  0.00     0.106 C 
HETATM   24  C   UNL     1     -43.251  59.559 -60.900  1.00  0.00     0.034 C 
BRANCH  23  25
HETATM   25  C   UNL     1     -45.738  59.175 -60.460  1.00  0.00     0.022 C 
HETATM   26  C   UNL     1     -46.859  58.170 -60.222  1.00  0.00     0.007 C 
ENDBRANCH  23  25
ENDBRANCH  21  23
BRANCH  22  27
HETATM   27  C   UNL     1     -43.467  55.701 -59.491  1.00  0.00     0.038 A 
HETATM   28  C   UNL     1     -44.374  54.493 -59.401  1.00  0.00     0.011 A 
HETATM   29  C   UNL     1     -44.458  55.392 -60.588  1.00  0.00     0.011 A 
ENDBRANCH  22  27
ENDBRANCH   1  18
TORSDOF 8
ENDMDL
MODEL 2
REMARK VINA RESULT:      -7.4      5.364      9.859
REMARK  8 active torsions:
REMARK  status: ('A' for Active; 'I' for Inactive)
REMARK    1  A    between atoms: C_2  and  C_3 
REMARK    2  A    between atoms: C_3  and  N_4 
REMARK    3  A    between atoms: C_7  and  C_8 
REMARK       I    between atoms: C_8  and  N_9 
REMARK    4  A    between atoms: N_9  and  N_10 
REMARK       I    between atoms: N_10  and  C_11 
REMARK    5  A    between atoms: C_11  and  C_12 
REMARK    6  A    between atoms: C_12  and  O_13 
REMARK    7  A    between atoms: O_13  and  C_14 
REMARK    8  A    between atoms: C_23  and  C_24 
ROOT
HETATM    1  C   UNL     1     -41.556  56.910 -51.490  1.00  0.00     0.273 C 
HETATM    2  N   UNL     1     -42.922  57.121 -51.469  1.00  0.00    -0.263 N 
HETATM    3  O   UNL     1     -40.753  57.667 -50.951  1.00  0.00    -0.266 OA
HETATM    4  H   UNL     1     -43.521  56.636 -52.135  1.00  0.00     0.190 HD
ENDROOT
BRANCH   2   5
HETATM    5  N   UNL     1     -43.397  58.356 -50.997  1.00  0.00    -0.265 N 
HETATM    6  C   UNL     1     -44.754  58.477 -50.773  1.00  0.00     0.260 C 
HETATM    7  O   UNL     1     -45.520  57.514 -50.802  1.00  0.00    -0.269 OA
HETATM    8  H   UNL     1     -42.861  59.186 -51.256  1.00  0.00     0.190 HD
BRANCH   6   9
HETATM    9  C   UNL     1     -45.228  59.894 -50.461  1.00  0.00     0.280 C 
BRANCH   9  10
HETATM   10  O   UNL     1     -45.896  59.960 -49.205  1.00  0.00    -0.342 OA
BRANCH  10  11
HETATM   11  C   UNL     1     -45.614  61.045 -48.420  1.00  0.00     0.069 A 
HETATM   12  C   UNL     1     -45.930  60.891 -47.069  1.00  0.00     0.037 A 
HETATM   13  C   UNL     1     -45.705  61.929 -46.161  1.00  0.00     0.009 A 
HETATM   14  C   UNL     1     -45.155  63.139 -46.594  1.00  0.00    -0.062 A 
HETATM   15  C   UNL     1     -44.906  64.264 -45.635  1.00  0.00     0.048 C 
HETATM   16  C   UNL     1     -44.821  63.284 -47.945  1.00  0.00     0.009 A 
HETATM   17  C   UNL     1     -45.047  62.243 -48.854  1.00  0.00     0.037 A 
ENDBRANCH  10  11
ENDBRANCH   9  10
ENDBRANCH   6   9
ENDBRANCH   2   5
BRANCH   1  18
HETATM   18  C   UNL     1     -41.186  55.692 -52.172  1.00  0.00     0.077 A 
HETATM   19  C   UNL     1     -40.940  55.584 -53.558  1.00  0.00     0.158 A 
HETATM   20  N   UNL     1     -40.608  54.352 -53.932  1.00  0.00    -0.183 NA
HETATM   21  N   UNL     1     -40.652  53.641 -52.787  1.00  0.00    -0.268 N 
HETATM   22  C   UNL     1     -40.975  54.410 -51.685  1.00  0.00     0.052 A 
BRANCH  21  23
HETATM   23  C   UNL     1     -40.392  52.201 -52.824  1.00  0.00     0.106 C 
HETATM   24  C   UNL     1     -39.121  51.789 -52.068  1.00  0.00     0.034 C 
BRANCH  23  25
HETATM   25  C   UNL     1     -40.421  51.651 -54.264  1.00  0.00     0.022 C 
HETATM   26  C   UNL     1     -40.094  50.169 -54.395  1.00  0.00     0.007 C 
ENDBRANCH  23  25
ENDBRANCH  21  23
BRANCH  22  27
HETATM   27  C   UNL     1     -41.044  53.880 -50.252  1.00  0.00     0.038 A 
HETATM   28  C   UNL     1     -39.904  54.150 -49.294  1.00  0.00     0.011 A 
HETATM   29  C   UNL     1     -41.218  54.824 -49.086  1.00  0.00     0.011 A 
ENDBRANCH  22  27
ENDBRANCH   1  18
TORSDOF 8
ENDMDL
MODEL 3
REMARK VINA RESULT:      -7.2      5.784      9.640
REMARK  8 active torsions:
REMARK  status: ('A' for Active; 'I' for Inactive)
REMARK    1  A    between atoms: C_2  and  C_3 
REMARK    2  A    between atoms: C_3  and  N_4 
REMARK    3  A    between atoms: C_7  and  C_8 
REMARK       I    between atoms: C_8  and  N_9 
REMARK    4  A    between atoms: N_9  and  N_10 
REMARK       I    between atoms: N_10  and  C_11 
REMARK    5  A    between atoms: C_11  and  C_12 
REMARK    6  A    between atoms: C_12  and  O_13 
REMARK    7  A    between atoms: O_13  and  C_14 
REMARK    8  A    between atoms: C_23  and  C_24 
ROOT
HETATM    1  C   UNL     1     -44.026  56.989 -51.337  1.00  0.00     0.273 C 
HETATM    2  N   UNL     1     -43.822  58.345 -51.506  1.00  0.00    -0.263 N 
HETATM    3  O   UNL     1     -44.790  56.527 -50.494  1.00  0.00    -0.266 OA
HETATM    4  H   UNL     1     -43.003  58.675 -52.016  1.00  0.00     0.190 HD
ENDROOT
BRANCH   2   5
HETATM    5  N   UNL     1     -44.345  59.222 -50.543  1.00  0.00    -0.265 N 
HETATM    6  C   UNL     1     -45.391  60.040 -50.921  1.00  0.00     0.260 C 
HETATM    7  O   UNL     1     -45.984  59.906 -51.991  1.00  0.00    -0.269 OA
HETATM    8  H   UNL     1     -43.704  59.542 -49.814  1.00  0.00     0.190 HD
BRANCH   6   9
HETATM    9  C   UNL     1     -45.773  61.106 -49.898  1.00  0.00     0.280 C 
BRANCH   9  10
HETATM   10  O   UNL     1     -45.926  60.553 -48.595  1.00  0.00    -0.342 OA
BRANCH  10  11
HETATM   11  C   UNL     1     -45.654  61.386 -47.543  1.00  0.00     0.069 A 
HETATM   12  C   UNL     1     -45.191  60.747 -46.392  1.00  0.00     0.037 A 
HETATM   13  C   UNL     1     -44.889  61.480 -45.241  1.00  0.00     0.009 A 
HETATM   14  C   UNL     1     -45.044  62.869 -45.229  1.00  0.00    -0.062 A 
HETATM   15  C   UNL     1     -44.726  63.674 -44.003  1.00  0.00     0.048 C 
HETATM   16  C   UNL     1     -45.491  63.510 -46.390  1.00  0.00     0.009 A 
HETATM   17  C   UNL     1     -45.792  62.774 -47.542  1.00  0.00     0.037 A 
ENDBRANCH  10  11
ENDBRANCH   9  10
ENDBRANCH   6   9
ENDBRANCH   2   5
BRANCH   1  18
HETATM   18  C   UNL     1     -43.280  56.185 -52.278  1.00  0.00     0.077 A 
HETATM   19  C   UNL     1     -43.700  55.880 -53.591  1.00  0.00     0.158 A 
HETATM   20  N   UNL     1     -42.825  55.129 -54.254  1.00  0.00    -0.183 NA
HETATM   21  N   UNL     1     -41.831  54.926 -53.366  1.00  0.00    -0.268 N 
HETATM   22  C   UNL     1     -42.046  55.564 -52.158  1.00  0.00     0.052 A 
BRANCH  21  23
HETATM   23  C   UNL     1     -40.698  54.078 -53.737  1.00  0.00     0.106 C 
HETATM   24  C   UNL     1     -40.040  54.480 -55.064  1.00  0.00     0.034 C 
BRANCH  23  25
HETATM   25  C   UNL     1     -41.065  52.581 -53.696  1.00  0.00     0.022 C 
HETATM   26  C   UNL     1     -39.879  51.625 -53.688  1.00  0.00     0.007 C 
ENDBRANCH  23  25
ENDBRANCH  21  23
BRANCH  22  27
HETATM   27  C   UNL     1     -41.060  55.553 -50.988  1.00  0.00     0.038 A 
HETATM   28  C   UNL     1     -41.535  55.153 -49.608  1.00  0.00     0.011 A 
HETATM   29  C   UNL     1     -40.619  54.251 -50.363  1.00  0.00     0.011 A 
ENDBRANCH  22  27
ENDBRANCH   1  18
TORSDOF 8
ENDMDL
MODEL 4
REMARK VINA RESULT:      -7.2      5.365      6.453
REMARK  8 active torsions:
REMARK  status: ('A' for Active; 'I' for Inactive)
REMARK    1  A    between atoms: C_2  and  C_3 
REMARK    2  A    between atoms: C_3  and  N_4 
REMARK    3  A    between atoms: C_7  and  C_8 
REMARK       I    between atoms: C_8  and  N_9 
REMARK    4  A    between atoms: N_9  and  N_10 
REMARK       I    between atoms: N_10  and  C_11 
REMARK    5  A    between atoms: C_11  and  C_12 
REMARK    6  A    between atoms: C_12  and  O_13 
REMARK    7  A    between atoms: O_13  and  C_14 
REMARK    8  A    between atoms: C_23  and  C_24 
ROOT
HETATM    1  C   UNL     1     -43.339  56.866 -51.637  1.00  0.00     0.273 C 
HETATM    2  N   UNL     1     -43.440  56.196 -50.433  1.00  0.00    -0.263 N 
HETATM    3  O   UNL     1     -42.892  56.347 -52.657  1.00  0.00    -0.266 OA
HETATM    4  H   UNL     1     -43.559  56.722 -49.568  1.00  0.00     0.190 HD
ENDROOT
BRANCH   2   5
HETATM    5  N   UNL     1     -42.815  54.945 -50.313  1.00  0.00    -0.265 N 
HETATM    6  C   UNL     1     -41.627  54.885 -49.611  1.00  0.00     0.260 C 
HETATM    7  O   UNL     1     -41.198  55.832 -48.951  1.00  0.00    -0.269 OA
HETATM    8  H   UNL     1     -42.980  54.272 -51.065  1.00  0.00     0.190 HD
BRANCH   6   9
HETATM    9  C   UNL     1     -40.900  53.546 -49.693  1.00  0.00     0.280 C 
BRANCH   9  10
HETATM   10  O   UNL     1     -39.811  53.594 -50.609  1.00  0.00    -0.342 OA
BRANCH  10  11
HETATM   11  C   UNL     1     -39.886  52.757 -51.690  1.00  0.00     0.069 A 
HETATM   12  C   UNL     1     -39.520  51.435 -51.435  1.00  0.00     0.037 A 
HETATM   13  C   UNL     1     -39.538  50.480 -52.455  1.00  0.00     0.009 A 
HETATM   14  C   UNL     1     -39.929  50.838 -53.749  1.00  0.00    -0.062 A 
HETATM   15  C   UNL     1     -39.954  49.828 -54.858  1.00  0.00     0.048 C 
HETATM   16  C   UNL     1     -40.313  52.160 -53.998  1.00  0.00     0.009 A 
HETATM   17  C   UNL     1     -40.294  53.115 -52.975  1.00  0.00     0.037 A 
ENDBRANCH  10  11
ENDBRANCH   9  10
ENDBRANCH   6   9
ENDBRANCH   2   5
BRANCH   1  18
HETATM   18  C   UNL     1     -43.851  58.215 -51.575  1.00  0.00     0.077 A 
HETATM   19  C   UNL     1     -45.218  58.559 -51.509  1.00  0.00     0.158 A 
HETATM   20  N   UNL     1     -45.421  59.873 -51.452  1.00  0.00    -0.183 NA
HETATM   21  N   UNL     1     -44.179  60.396 -51.498  1.00  0.00    -0.268 N 
HETATM   22  C   UNL     1     -43.188  59.434 -51.551  1.00  0.00     0.052 A 
BRANCH  21  23
HETATM   23  C   UNL     1     -44.012  61.850 -51.513  1.00  0.00     0.106 C 
HETATM   24  C   UNL     1     -43.246  62.366 -52.739  1.00  0.00     0.034 C 
BRANCH  23  25
HETATM   25  C   UNL     1     -43.419  62.371 -50.190  1.00  0.00     0.022 C 
HETATM   26  C   UNL     1     -42.843  63.781 -50.251  1.00  0.00     0.007 C 
ENDBRANCH  23  25
ENDBRANCH  21  23
BRANCH  22  27
HETATM   27  C   UNL     1     -41.689  59.738 -51.556  1.00  0.00     0.038 A 
HETATM   28  C   UNL     1     -40.943  59.865 -50.246  1.00  0.00     0.011 A 
HETATM   29  C   UNL     1     -40.687  58.691 -51.129  1.00  0.00     0.011 A 
ENDBRANCH  22  27
ENDBRANCH   1  18
TORSDOF 8
ENDMDL
MODEL 5
REMARK VINA RESULT:      -7.0      3.203      9.034
REMARK  8 active torsions:
REMARK  status: ('A' for Active; 'I' for Inactive)
REMARK    1  A    between atoms: C_2  and  C_3 
REMARK    2  A    between atoms: C_3  and  N_4 
REMARK    3  A    between atoms: C_7  and  C_8 
REMARK       I    between atoms: C_8  and  N_9 
REMARK    4  A    between atoms: N_9  and  N_10 
REMARK       I    between atoms: N_10  and  C_11 
REMARK    5  A    between atoms: C_11  and  C_12 
REMARK    6  A    between atoms: C_12  and  O_13 
REMARK    7  A    between atoms: O_13  and  C_14 
REMARK    8  A    between atoms: C_23  and  C_24 
ROOT
HETATM    1  C   UNL     1     -43.042  56.969 -56.632  1.00  0.00     0.273 C 
HETATM    2  N   UNL     1     -42.114  57.038 -57.654  1.00  0.00    -0.263 N 
HETATM    3  O   UNL     1     -44.055  57.662 -56.599  1.00  0.00    -0.266 OA
HETATM    4  H   UNL     1     -41.179  56.656 -57.518  1.00  0.00     0.190 HD
ENDROOT
BRANCH   2   5
HETATM    5  N   UNL     1     -42.224  58.085 -58.583  1.00  0.00    -0.265 N 
HETATM    6  C   UNL     1     -42.067  57.776 -59.919  1.00  0.00     0.260 C 
HETATM    7  O   UNL     1     -42.013  56.618 -60.331  1.00  0.00    -0.269 OA
HETATM    8  H   UNL     1     -41.969  59.020 -58.257  1.00  0.00     0.190 HD
BRANCH   6   9
HETATM    9  C   UNL     1     -41.993  58.982 -60.852  1.00  0.00     0.280 C 
BRANCH   9  10
HETATM   10  O   UNL     1     -42.466  60.167 -60.219  1.00  0.00    -0.342 OA
BRANCH  10  11
HETATM   11  C   UNL     1     -41.540  61.148 -59.989  1.00  0.00     0.069 A 
HETATM   12  C   UNL     1     -41.110  61.828 -61.129  1.00  0.00     0.037 A 
HETATM   13  C   UNL     1     -40.155  62.844 -61.037  1.00  0.00     0.009 A 
HETATM   14  C   UNL     1     -39.620  63.198 -59.794  1.00  0.00    -0.062 A 
HETATM   15  C   UNL     1     -38.594  64.285 -59.674  1.00  0.00     0.048 C 
HETATM   16  C   UNL     1     -40.067  62.528 -58.650  1.00  0.00     0.009 A 
HETATM   17  C   UNL     1     -41.023  61.510 -58.745  1.00  0.00     0.037 A 
ENDBRANCH  10  11
ENDBRANCH   9  10
ENDBRANCH   6   9
ENDBRANCH   2   5
BRANCH   1  18
HETATM   18  C   UNL     1     -42.711  55.974 -55.639  1.00  0.00     0.077 A 
HETATM   19  C   UNL     1     -42.730  54.579 -55.855  1.00  0.00     0.158 A 
HETATM   20  N   UNL     1     -42.376  53.882 -54.779  1.00  0.00    -0.183 NA
HETATM   21  N   UNL     1     -42.139  54.824 -53.844  1.00  0.00    -0.268 N 
HETATM   22  C   UNL     1     -42.305  56.112 -54.319  1.00  0.00     0.052 A 
BRANCH  21  23
HETATM   23  C   UNL     1     -41.774  54.416 -52.488  1.00  0.00     0.106 C 
HETATM   24  C   UNL     1     -40.642  53.379 -52.444  1.00  0.00     0.034 C 
BRANCH  23  25
HETATM   25  C   UNL     1     -43.004  53.973 -51.672  1.00  0.00     0.022 C 
HETATM   26  C   UNL     1     -43.618  55.054 -50.791  1.00  0.00     0.007 C 
ENDBRANCH  23  25
ENDBRANCH  21  23
BRANCH  22  27
HETATM   27  C   UNL     1     -42.052  57.376 -53.497  1.00  0.00     0.038 A 
HETATM   28  C   UNL     1     -40.636  57.870 -53.293  1.00  0.00     0.011 A 
HETATM   29  C   UNL     1     -41.571  58.645 -54.159  1.00  0.00     0.011 A 
ENDBRANCH  22  27
ENDBRANCH   1  18
TORSDOF 8
ENDMDL
MODEL 6
REMARK VINA RESULT:      -6.9      1.630      2.316
REMARK  8 active torsions:
REMARK  status: ('A' for Active; 'I' for Inactive)
REMARK    1  A    between atoms: C_2  and  C_3 
REMARK    2  A    between atoms: C_3  and  N_4 
REMARK    3  A    between atoms: C_7  and  C_8 
REMARK       I    between atoms: C_8  and  N_9 
REMARK    4  A    between atoms: N_9  and  N_10 
REMARK       I    between atoms: N_10  and  C_11 
REMARK    5  A    between atoms: C_11  and  C_12 
REMARK    6  A    between atoms: C_12  and  O_13 
REMARK    7  A    between atoms: O_13  and  C_14 
REMARK    8  A    between atoms: C_23  and  C_24 
ROOT
HETATM    1  C   UNL     1     -44.044  57.940 -56.215  1.00  0.00     0.273 C 
HETATM    2  N   UNL     1     -43.693  56.635 -55.924  1.00  0.00    -0.263 N 
HETATM    3  O   UNL     1     -43.542  58.910 -55.654  1.00  0.00    -0.266 OA
HETATM    4  H   UNL     1     -44.304  55.870 -56.206  1.00  0.00     0.190 HD
ENDROOT
BRANCH   2   5
HETATM    5  N   UNL     1     -42.888  56.398 -54.798  1.00  0.00    -0.265 N 
HETATM    6  C   UNL     1     -43.177  55.292 -54.024  1.00  0.00     0.260 C 
HETATM    7  O   UNL     1     -43.982  54.429 -54.375  1.00  0.00    -0.269 OA
HETATM    8  H   UNL     1     -42.462  57.215 -54.355  1.00  0.00     0.190 HD
BRANCH   6   9
HETATM    9  C   UNL     1     -42.403  55.207 -52.712  1.00  0.00     0.280 C 
BRANCH   9  10
HETATM   10  O   UNL     1     -41.012  54.998 -52.934  1.00  0.00    -0.342 OA
BRANCH  10  11
HETATM   11  C   UNL     1     -40.589  53.696 -52.971  1.00  0.00     0.069 A 
HETATM   12  C   UNL     1     -40.578  53.118 -54.241  1.00  0.00     0.037 A 
HETATM   13  C   UNL     1     -40.180  51.790 -54.417  1.00  0.00     0.009 A 
HETATM   14  C   UNL     1     -39.783  51.021 -53.319  1.00  0.00    -0.062 A 
HETATM   15  C   UNL     1     -39.353  49.594 -53.487  1.00  0.00     0.048 C 
HETATM   16  C   UNL     1     -39.777  51.609 -52.049  1.00  0.00     0.009 A 
HETATM   17  C   UNL     1     -40.175  52.940 -51.875  1.00  0.00     0.037 A 
ENDBRANCH  10  11
ENDBRANCH   9  10
ENDBRANCH   6   9
ENDBRANCH   2   5
BRANCH   1  18
HETATM   18  C   UNL     1     -45.024  58.036 -57.272  1.00  0.00     0.077 A 
HETATM   19  C   UNL     1     -46.390  58.341 -57.082  1.00  0.00     0.158 A 
HETATM   20  N   UNL     1     -47.077  58.376 -58.220  1.00  0.00    -0.183 NA
HETATM   21  N   UNL     1     -46.161  58.075 -59.163  1.00  0.00    -0.268 N 
HETATM   22  C   UNL     1     -44.893  57.882 -58.644  1.00  0.00     0.052 A 
BRANCH  21  23
HETATM   23  C   UNL     1     -46.578  57.965 -60.561  1.00  0.00     0.106 C 
HETATM   24  C   UNL     1     -47.425  59.151 -61.043  1.00  0.00     0.034 C 
BRANCH  23  25
HETATM   25  C   UNL     1     -47.250  56.609 -60.853  1.00  0.00     0.022 C 
HETATM   26  C   UNL     1     -48.270  56.624 -61.985  1.00  0.00     0.007 C 
ENDBRANCH  23  25
ENDBRANCH  21  23
BRANCH  22  27
HETATM   27  C   UNL     1     -43.652  57.583 -59.486  1.00  0.00     0.038 A 
HETATM   28  C   UNL     1     -43.033  58.677 -60.328  1.00  0.00     0.011 A 
HETATM   29  C   UNL     1     -42.312  58.177 -59.123  1.00  0.00     0.011 A 
ENDBRANCH  22  27
ENDBRANCH   1  18
TORSDOF 8
ENDMDL
MODEL 7
REMARK VINA RESULT:      -6.9     15.349     19.323
REMARK  8 active torsions:
REMARK  status: ('A' for Active; 'I' for Inactive)
REMARK    1  A    between atoms: C_2  and  C_3 
REMARK    2  A    between atoms: C_3  and  N_4 
REMARK    3  A    between atoms: C_7  and  C_8 
REMARK       I    between atoms: C_8  and  N_9 
REMARK    4  A    between atoms: N_9  and  N_10 
REMARK       I    between atoms: N_10  and  C_11 
REMARK    5  A    between atoms: C_11  and  C_12 
REMARK    6  A    between atoms: C_12  and  O_13 
REMARK    7  A    between atoms: O_13  and  C_14 
REMARK    8  A    between atoms: C_23  and  C_24 
ROOT
HETATM    1  C   UNL     1     -33.935  39.821 -53.512  1.00  0.00     0.273 C 
HETATM    2  N   UNL     1     -33.817  41.158 -53.840  1.00  0.00    -0.263 N 
HETATM    3  O   UNL     1     -34.471  38.996 -54.246  1.00  0.00    -0.266 OA
HETATM    4  H   UNL     1     -33.615  41.844 -53.113  1.00  0.00     0.190 HD
ENDROOT
BRANCH   2   5
HETATM    5  N   UNL     1     -34.522  41.634 -54.958  1.00  0.00    -0.265 N 
HETATM    6  C   UNL     1     -35.729  42.266 -54.733  1.00  0.00     0.260 C 
HETATM    7  O   UNL     1     -36.115  42.579 -53.607  1.00  0.00    -0.269 OA
HETATM    8  H   UNL     1     -34.380  41.136 -55.839  1.00  0.00     0.190 HD
BRANCH   6   9
HETATM    9  C   UNL     1     -36.536  42.573 -55.991  1.00  0.00     0.280 C 
BRANCH   9  10
HETATM   10  O   UNL     1     -37.589  41.633 -56.182  1.00  0.00    -0.342 OA
BRANCH  10  11
HETATM   11  C   UNL     1     -37.637  41.010 -57.400  1.00  0.00     0.069 A 
HETATM   12  C   UNL     1     -37.213  41.790 -58.477  1.00  0.00     0.037 A 
HETATM   13  C   UNL     1     -37.226  41.278 -59.777  1.00  0.00     0.009 A 
HETATM   14  C   UNL     1     -37.660  39.971 -60.017  1.00  0.00    -0.062 A 
HETATM   15  C   UNL     1     -37.682  39.405 -61.406  1.00  0.00     0.048 C 
HETATM   16  C   UNL     1     -38.067  39.185 -58.933  1.00  0.00     0.009 A 
HETATM   17  C   UNL     1     -38.054  39.699 -57.632  1.00  0.00     0.037 A 
ENDBRANCH  10  11
ENDBRANCH   9  10
ENDBRANCH   6   9
ENDBRANCH   2   5
BRANCH   1  18
HETATM   18  C   UNL     1     -33.326  39.498 -52.242  1.00  0.00     0.077 A 
HETATM   19  C   UNL     1     -32.069  38.876 -52.083  1.00  0.00     0.158 A 
HETATM   20  N   UNL     1     -31.735  38.698 -50.808  1.00  0.00    -0.183 NA
HETATM   21  N   UNL     1     -32.787  39.191 -50.124  1.00  0.00    -0.268 N 
HETATM   22  C   UNL     1     -33.771  39.711 -50.945  1.00  0.00     0.052 A 
BRANCH  21  23
HETATM   23  C   UNL     1     -32.796  39.111 -48.663  1.00  0.00     0.106 C 
HETATM   24  C   UNL     1     -31.473  39.547 -48.018  1.00  0.00     0.034 C 
BRANCH  23  25
HETATM   25  C   UNL     1     -33.261  37.728 -48.168  1.00  0.00     0.022 C 
HETATM   26  C   UNL     1     -33.781  37.695 -46.737  1.00  0.00     0.007 C 
ENDBRANCH  23  25
ENDBRANCH  21  23
BRANCH  22  27
HETATM   27  C   UNL     1     -35.049  40.384 -50.443  1.00  0.00     0.038 A 
HETATM   28  C   UNL     1     -36.366  40.109 -51.134  1.00  0.00     0.011 A 
HETATM   29  C   UNL     1     -36.129  39.580 -49.760  1.00  0.00     0.011 A 
ENDBRANCH  22  27
ENDBRANCH   1  18
TORSDOF 8
ENDMDL
MODEL 8
REMARK VINA RESULT:      -6.8      4.307      6.923
REMARK  8 active torsions:
REMARK  status: ('A' for Active; 'I' for Inactive)
REMARK    1  A    between atoms: C_2  and  C_3 
REMARK    2  A    between atoms: C_3  and  N_4 
REMARK    3  A    between atoms: C_7  and  C_8 
REMARK       I    between atoms: C_8  and  N_9 
REMARK    4  A    between atoms: N_9  and  N_10 
REMARK       I    between atoms: N_10  and  C_11 
REMARK    5  A    between atoms: C_11  and  C_12 
REMARK    6  A    between atoms: C_12  and  O_13 
REMARK    7  A    between atoms: O_13  and  C_14 
REMARK    8  A    between atoms: C_23  and  C_24 
ROOT
HETATM    1  C   UNL     1     -43.276  58.197 -52.954  1.00  0.00     0.273 C 
HETATM    2  N   UNL     1     -42.956  56.915 -52.553  1.00  0.00    -0.263 N 
HETATM    3  O   UNL     1     -43.096  58.607 -54.098  1.00  0.00    -0.266 OA
HETATM    4  H   UNL     1     -42.869  56.699 -51.560  1.00  0.00     0.190 HD
ENDROOT
BRANCH   2   5
HETATM    5  N   UNL     1     -42.202  56.113 -53.426  1.00  0.00    -0.265 N 
HETATM    6  C   UNL     1     -42.872  55.147 -54.149  1.00  0.00     0.260 C 
HETATM    7  O   UNL     1     -44.100  55.081 -54.190  1.00  0.00    -0.269 OA
HETATM    8  H   UNL     1     -41.222  55.958 -53.179  1.00  0.00     0.190 HD
BRANCH   6   9
HETATM    9  C   UNL     1     -41.973  54.182 -54.917  1.00  0.00     0.280 C 
BRANCH   9  10
HETATM   10  O   UNL     1     -40.659  54.138 -54.368  1.00  0.00    -0.342 OA
BRANCH  10  11
HETATM   11  C   UNL     1     -40.346  53.032 -53.625  1.00  0.00     0.069 A 
HETATM   12  C   UNL     1     -40.257  53.254 -52.249  1.00  0.00     0.037 A 
HETATM   13  C   UNL     1     -39.930  52.212 -51.378  1.00  0.00     0.009 A 
HETATM   14  C   UNL     1     -39.691  50.927 -51.873  1.00  0.00    -0.062 A 
HETATM   15  C   UNL     1     -39.338  49.795 -50.954  1.00  0.00     0.048 C 
HETATM   16  C   UNL     1     -39.799  50.703 -53.250  1.00  0.00     0.009 A 
HETATM   17  C   UNL     1     -40.126  51.747 -54.122  1.00  0.00     0.037 A 
ENDBRANCH  10  11
ENDBRANCH   9  10
ENDBRANCH   6   9
ENDBRANCH   2   5
BRANCH   1  18
HETATM   18  C   UNL     1     -43.879  58.982 -51.901  1.00  0.00     0.077 A 
HETATM   19  C   UNL     1     -45.252  58.972 -51.570  1.00  0.00     0.158 A 
HETATM   20  N   UNL     1     -45.547  59.779 -50.555  1.00  0.00    -0.183 NA
HETATM   21  N   UNL     1     -44.363  60.336 -50.227  1.00  0.00    -0.268 N 
HETATM   22  C   UNL     1     -43.313  59.870 -50.998  1.00  0.00     0.052 A 
BRANCH  21  23
HETATM   23  C   UNL     1     -44.311  61.340 -49.164  1.00  0.00     0.106 C 
HETATM   24  C   UNL     1     -45.247  61.035 -47.987  1.00  0.00     0.034 C 
BRANCH  23  25
HETATM   25  C   UNL     1     -44.509  62.766 -49.715  1.00  0.00     0.022 C 
HETATM   26  C   UNL     1     -45.875  63.381 -49.439  1.00  0.00     0.007 C 
ENDBRANCH  23  25
ENDBRANCH  21  23
BRANCH  22  27
HETATM   27  C   UNL     1     -41.854  60.285 -50.811  1.00  0.00     0.038 A 
HETATM   28  C   UNL     1     -40.952  59.479 -49.902  1.00  0.00     0.011 A 
HETATM   29  C   UNL     1     -40.733  59.446 -51.376  1.00  0.00     0.011 A 
ENDBRANCH  22  27
ENDBRANCH   1  18
TORSDOF 8
ENDMDL
MODEL 9
REMARK VINA RESULT:      -6.7      5.529      9.583
REMARK  8 active torsions:
REMARK  status: ('A' for Active; 'I' for Inactive)
REMARK    1  A    between atoms: C_2  and  C_3 
REMARK    2  A    between atoms: C_3  and  N_4 
REMARK    3  A    between atoms: C_7  and  C_8 
REMARK       I    between atoms: C_8  and  N_9 
REMARK    4  A    between atoms: N_9  and  N_10 
REMARK       I    between atoms: N_10  and  C_11 
REMARK    5  A    between atoms: C_11  and  C_12 
REMARK    6  A    between atoms: C_12  and  O_13 
REMARK    7  A    between atoms: O_13  and  C_14 
REMARK    8  A    between atoms: C_23  and  C_24 
ROOT
HETATM    1  C   UNL     1     -43.096  57.039 -51.294  1.00  0.00     0.273 C 
HETATM    2  N   UNL     1     -42.229  58.008 -50.828  1.00  0.00    -0.263 N 
HETATM    3  O   UNL     1     -44.279  57.259 -51.536  1.00  0.00    -0.266 OA
HETATM    4  H   UNL     1     -41.347  57.735 -50.393  1.00  0.00     0.190 HD
ENDROOT
BRANCH   2   5
HETATM    5  N   UNL     1     -42.766  59.237 -50.413  1.00  0.00    -0.265 N 
HETATM    6  C   UNL     1     -42.496  60.349 -51.187  1.00  0.00     0.260 C 
HETATM    7  O   UNL     1     -41.964  60.273 -52.295  1.00  0.00    -0.269 OA
HETATM    8  H   UNL     1     -42.923  59.358 -49.411  1.00  0.00     0.190 HD
BRANCH   6   9
HETATM    9  C   UNL     1     -42.932  61.677 -50.575  1.00  0.00     0.280 C 
BRANCH   9  10
HETATM   10  O   UNL     1     -44.303  61.654 -50.192  1.00  0.00    -0.342 OA
BRANCH  10  11
HETATM   11  C   UNL     1     -44.589  62.077 -48.921  1.00  0.00     0.069 A 
HETATM   12  C   UNL     1     -44.565  63.461 -48.744  1.00  0.00     0.037 A 
HETATM   13  C   UNL     1     -44.825  64.025 -47.492  1.00  0.00     0.009 A 
HETATM   14  C   UNL     1     -45.118  63.206 -46.397  1.00  0.00    -0.062 A 
HETATM   15  C   UNL     1     -45.399  63.791 -45.045  1.00  0.00     0.048 C 
HETATM   16  C   UNL     1     -45.159  61.819 -46.582  1.00  0.00     0.009 A 
HETATM   17  C   UNL     1     -44.899  61.257 -47.836  1.00  0.00     0.037 A 
ENDBRANCH  10  11
ENDBRANCH   9  10
ENDBRANCH   6   9
ENDBRANCH   2   5
BRANCH   1  18
HETATM   18  C   UNL     1     -42.452  55.762 -51.504  1.00  0.00     0.077 A 
HETATM   19  C   UNL     1     -42.641  54.619 -50.697  1.00  0.00     0.158 A 
HETATM   20  N   UNL     1     -41.937  53.569 -51.110  1.00  0.00    -0.183 NA
HETATM   21  N   UNL     1     -41.268  54.030 -52.187  1.00  0.00    -0.268 N 
HETATM   22  C   UNL     1     -41.562  55.348 -52.484  1.00  0.00     0.052 A 
BRANCH  21  23
HETATM   23  C   UNL     1     -40.332  53.147 -52.883  1.00  0.00     0.106 C 
HETATM   24  C   UNL     1     -40.940  52.453 -54.110  1.00  0.00     0.034 C 
BRANCH  23  25
HETATM   25  C   UNL     1     -39.662  52.148 -51.918  1.00  0.00     0.022 C 
HETATM   26  C   UNL     1     -39.558  50.720 -52.438  1.00  0.00     0.007 C 
ENDBRANCH  23  25
ENDBRANCH  21  23
BRANCH  22  27
HETATM   27  C   UNL     1     -40.992  56.111 -53.680  1.00  0.00     0.038 A 
HETATM   28  C   UNL     1     -41.601  55.922 -55.053  1.00  0.00     0.011 A 
HETATM   29  C   UNL     1     -41.782  57.218 -54.337  1.00  0.00     0.011 A 
ENDBRANCH  22  27
ENDBRANCH   1  18
TORSDOF 8
ENDMDL
MODEL 10
REMARK VINA RESULT:      -6.7      2.101      9.346
REMARK  8 active torsions:
REMARK  status: ('A' for Active; 'I' for Inactive)
REMARK    1  A    between atoms: C_2  and  C_3 
REMARK    2  A    between atoms: C_3  and  N_4 
REMARK    3  A    between atoms: C_7  and  C_8 
REMARK       I    between atoms: C_8  and  N_9 
REMARK    4  A    between atoms: N_9  and  N_10 
REMARK       I    between atoms: N_10  and  C_11 
REMARK    5  A    between atoms: C_11  and  C_12 
REMARK    6  A    between atoms: C_12  and  O_13 
REMARK    7  A    between atoms: O_13  and  C_14 
REMARK    8  A    between atoms: C_23  and  C_24 
ROOT
HETATM    1  C   UNL     1     -42.948  55.096 -54.797  1.00  0.00     0.273 C 
HETATM    2  N   UNL     1     -42.355  55.996 -55.661  1.00  0.00    -0.263 N 
HETATM    3  O   UNL     1     -44.164  54.966 -54.695  1.00  0.00    -0.266 OA
HETATM    4  H   UNL     1     -41.380  56.262 -55.528  1.00  0.00     0.190 HD
ENDROOT
BRANCH   2   5
HETATM    5  N   UNL     1     -43.172  56.946 -56.296  1.00  0.00    -0.265 N 
HETATM    6  C   UNL     1     -43.400  56.793 -57.649  1.00  0.00     0.260 C 
HETATM    7  O   UNL     1     -43.069  55.783 -58.268  1.00  0.00    -0.269 OA
HETATM    8  H   UNL     1     -43.185  57.885 -55.894  1.00  0.00     0.190 HD
BRANCH   6   9
HETATM    9  C   UNL     1     -44.120  57.963 -58.313  1.00  0.00     0.280 C 
BRANCH   9  10
HETATM   10  O   UNL     1     -45.529  57.896 -58.114  1.00  0.00    -0.342 OA
BRANCH  10  11
HETATM   11  C   UNL     1     -46.299  57.762 -59.238  1.00  0.00     0.069 A 
HETATM   12  C   UNL     1     -46.388  56.462 -59.738  1.00  0.00     0.037 A 
HETATM   13  C   UNL     1     -47.132  56.190 -60.890  1.00  0.00     0.009 A 
HETATM   14  C   UNL     1     -47.802  57.220 -61.556  1.00  0.00    -0.062 A 
HETATM   15  C   UNL     1     -48.604  56.948 -62.794  1.00  0.00     0.048 C 
HETATM   16  C   UNL     1     -47.726  58.520 -61.042  1.00  0.00     0.009 A 
HETATM   17  C   UNL     1     -46.981  58.790 -59.889  1.00  0.00     0.037 A 
ENDBRANCH  10  11
ENDBRANCH   9  10
ENDBRANCH   6   9
ENDBRANCH   2   5
BRANCH   1  18
HETATM   18  C   UNL     1     -41.987  54.305 -54.063  1.00  0.00     0.077 A 
HETATM   19  C   UNL     1     -40.836  53.708 -54.622  1.00  0.00     0.158 A 
HETATM   20  N   UNL     1     -40.112  53.039 -53.728  1.00  0.00    -0.183 NA
HETATM   21  N   UNL     1     -40.801  53.183 -52.578  1.00  0.00    -0.268 N 
HETATM   22  C   UNL     1     -41.935  53.962 -52.720  1.00  0.00     0.052 A 
BRANCH  21  23
HETATM   23  C   UNL     1     -40.322  52.519 -51.366  1.00  0.00     0.106 C 
HETATM   24  C   UNL     1     -39.544  53.448 -50.425  1.00  0.00     0.034 C 
BRANCH  23  25
HETATM   25  C   UNL     1     -39.543  51.229 -51.689  1.00  0.00     0.022 C 
HETATM   26  C   UNL     1     -39.772  50.076 -50.720  1.00  0.00     0.007 C 
ENDBRANCH  23  25
ENDBRANCH  21  23
BRANCH  22  27
HETATM   27  C   UNL     1     -42.874  54.336 -51.572  1.00  0.00     0.038 A 
HETATM   28  C   UNL     1     -42.420  55.324 -50.520  1.00  0.00     0.011 A 
HETATM   29  C   UNL     1     -43.481  55.717 -51.491  1.00  0.00     0.011 A 
ENDBRANCH  22  27
ENDBRANCH   1  18
TORSDOF 8
ENDMDL
