MODEL 1
REMARK VINA RESULT:      -7.6      0.000      0.000
REMARK  6 active torsions:
REMARK  status: ('A' for Active; 'I' for Inactive)
REMARK    1  A    between atoms: O_2  and  C_3 
REMARK    2  A    between atoms: C_3  and  C_4 
REMARK    3  A    between atoms: C_4  and  N_5 
REMARK       I    between atoms: N_5  and  C_6 
REMARK    4  A    between atoms: C_6  and  C_7 
REMARK    5  A    between atoms: C_12  and  C_13 
REMARK    6  A    between atoms: C_21  and  C_22 
ROOT
HETATM    1  C   UNL     1     -44.302  58.510 -51.032  1.00  0.00     0.170 A 
HETATM    2  N   UNL     1     -44.328  57.156 -51.101  1.00  0.00    -0.163 NA
HETATM    3  N   UNL     1     -43.188  56.841 -51.734  1.00  0.00    -0.238 N 
HETATM    4  C   UNL     1     -42.481  57.929 -52.171  1.00  0.00     0.145 A 
HETATM    5  N   UNL     1     -41.355  57.774 -52.917  1.00  0.00    -0.365 N 
HETATM    6  C   UNL     1     -41.101  56.504 -53.603  1.00  0.00     0.118 C 
HETATM    7  C   UNL     1     -41.394  55.385 -52.587  1.00  0.00     0.066 C 
HETATM    8  C   UNL     1     -42.839  55.466 -52.052  1.00  0.00     0.221 C 
HETATM    9  C   UNL     1     -43.158  59.029 -51.699  1.00  0.00     0.115 A 
HETATM   10 CL   UNL     1     -42.721  60.654 -51.917  1.00  0.00    -0.077 Cl
HETATM   11  H   UNL     1     -40.908  58.594 -53.327  1.00  0.00     0.162 HD
ENDROOT
BRANCH   1  12
HETATM   12  C   UNL     1     -45.376  59.251 -50.351  1.00  0.00     0.273 C 
HETATM   13  N   UNL     1     -44.909  60.145 -49.411  1.00  0.00    -0.353 N 
HETATM   14  H   UNL     1     -43.916  60.088 -49.199  1.00  0.00     0.162 HD
HETATM   15  O   UNL     1     -46.570  59.091 -50.581  1.00  0.00    -0.266 OA
BRANCH  13  16
HETATM   16  C   UNL     1     -45.788  60.888 -48.533  1.00  0.00     0.149 C 
BRANCH  16  17
HETATM   17  C   UNL     1     -45.804  60.330 -47.109  1.00  0.00     0.186 C 
BRANCH  17  18
HETATM   18  O   UNL     1     -46.579  59.126 -47.084  1.00  0.00    -0.394 OA
HETATM   19  C   UNL     1     -46.947  58.773 -45.757  1.00  0.00     0.201 C 
ENDBRANCH  17  18
ENDBRANCH  16  17
ENDBRANCH  13  16
ENDBRANCH   1  12
BRANCH   8  20
HETATM   20  C   UNL     1     -42.981  54.559 -50.848  1.00  0.00     0.409 C 
HETATM   21  F   UNL     1     -42.428  55.089 -49.734  1.00  0.00    -0.169 F 
HETATM   22  F   UNL     1     -44.259  54.229 -50.571  1.00  0.00    -0.169 F 
HETATM   23  F   UNL     1     -42.330  53.387 -51.083  1.00  0.00    -0.169 F 
ENDBRANCH   8  20
BRANCH   6  24
HETATM   24  C   UNL     1     -41.853  56.394 -54.931  1.00  0.00    -0.035 A 
HETATM   25  C   UNL     1     -42.249  57.535 -55.656  1.00  0.00     0.011 A 
HETATM   26  C   UNL     1     -42.908  57.426 -56.885  1.00  0.00     0.024 A 
HETATM   27  C   UNL     1     -43.171  56.170 -57.420  1.00  0.00     0.034 A 
HETATM   28 CL   UNL     1     -43.981  56.031 -58.930  1.00  0.00    -0.084 Cl
HETATM   29  C   UNL     1     -42.770  55.026 -56.740  1.00  0.00     0.024 A 
HETATM   30  C   UNL     1     -42.105  55.137 -55.513  1.00  0.00     0.011 A 
ENDBRANCH   6  24
TORSDOF 6
ENDMDL
MODEL 2
REMARK VINA RESULT:      -7.4      4.299      7.677
REMARK  6 active torsions:
REMARK  status: ('A' for Active; 'I' for Inactive)
REMARK    1  A    between atoms: O_2  and  C_3 
REMARK    2  A    between atoms: C_3  and  C_4 
REMARK    3  A    between atoms: C_4  and  N_5 
REMARK       I    between atoms: N_5  and  C_6 
REMARK    4  A    between atoms: C_6  and  C_7 
REMARK    5  A    between atoms: C_12  and  C_13 
REMARK    6  A    between atoms: C_21  and  C_22 
ROOT
HETATM    1  C   UNL     1     -43.084  56.274 -56.308  1.00  0.00     0.170 A 
HETATM    2  N   UNL     1     -42.105  55.488 -55.794  1.00  0.00    -0.163 NA
HETATM    3  N   UNL     1     -42.464  55.322 -54.511  1.00  0.00    -0.238 N 
HETATM    4  C   UNL     1     -43.565  56.049 -54.148  1.00  0.00     0.145 A 
HETATM    5  N   UNL     1     -43.993  56.065 -52.857  1.00  0.00    -0.365 N 
HETATM    6  C   UNL     1     -43.086  55.660 -51.781  1.00  0.00     0.118 C 
HETATM    7  C   UNL     1     -42.399  54.362 -52.244  1.00  0.00     0.066 C 
HETATM    8  C   UNL     1     -41.650  54.560 -53.579  1.00  0.00     0.221 C 
HETATM    9  C   UNL     1     -44.015  56.650 -55.300  1.00  0.00     0.115 A 
HETATM   10 CL   UNL     1     -45.372  57.657 -55.451  1.00  0.00    -0.077 Cl
HETATM   11  H   UNL     1     -44.744  56.700 -52.586  1.00  0.00     0.162 HD
ENDROOT
BRANCH   1  12
HETATM   12  C   UNL     1     -43.079  56.649 -57.731  1.00  0.00     0.273 C 
HETATM   13  N   UNL     1     -44.000  55.949 -58.481  1.00  0.00    -0.353 N 
HETATM   14  H   UNL     1     -44.462  55.176 -58.009  1.00  0.00     0.162 HD
HETATM   15  O   UNL     1     -42.329  57.491 -58.216  1.00  0.00    -0.266 OA
BRANCH  13  16
HETATM   16  C   UNL     1     -44.084  56.062 -59.922  1.00  0.00     0.149 C 
BRANCH  16  17
HETATM   17  C   UNL     1     -44.840  54.894 -60.559  1.00  0.00     0.186 C 
BRANCH  17  18
HETATM   18  O   UNL     1     -45.851  55.409 -61.433  1.00  0.00    -0.394 OA
HETATM   19  C   UNL     1     -46.821  56.163 -60.719  1.00  0.00     0.201 C 
ENDBRANCH  17  18
ENDBRANCH  16  17
ENDBRANCH  13  16
ENDBRANCH   1  12
BRANCH   8  20
HETATM   20  C   UNL     1     -41.263  53.210 -54.144  1.00  0.00     0.409 C 
HETATM   21  F   UNL     1     -42.299  52.589 -54.750  1.00  0.00    -0.169 F 
HETATM   22  F   UNL     1     -40.233  53.266 -55.014  1.00  0.00    -0.169 F 
HETATM   23  F   UNL     1     -40.861  52.393 -53.132  1.00  0.00    -0.169 F 
ENDBRANCH   8  20
BRANCH   6  24
HETATM   24  C   UNL     1     -42.139  56.784 -51.356  1.00  0.00    -0.035 A 
HETATM   25  C   UNL     1     -40.987  56.532 -50.585  1.00  0.00     0.011 A 
HETATM   26  C   UNL     1     -40.109  57.561 -50.228  1.00  0.00     0.024 A 
HETATM   27  C   UNL     1     -40.361  58.861 -50.646  1.00  0.00     0.034 A 
HETATM   28 CL   UNL     1     -39.285  60.130 -50.208  1.00  0.00    -0.084 Cl
HETATM   29  C   UNL     1     -41.476  59.138 -51.428  1.00  0.00     0.024 A 
HETATM   30  C   UNL     1     -42.350  58.106 -51.791  1.00  0.00     0.011 A 
ENDBRANCH   6  24
TORSDOF 6
ENDMDL
MODEL 3
REMARK VINA RESULT:      -7.0      4.199      6.697
REMARK  6 active torsions:
REMARK  status: ('A' for Active; 'I' for Inactive)
REMARK    1  A    between atoms: O_2  and  C_3 
REMARK    2  A    between atoms: C_3  and  C_4 
REMARK    3  A    between atoms: C_4  and  N_5 
REMARK       I    between atoms: N_5  and  C_6 
REMARK    4  A    between atoms: C_6  and  C_7 
REMARK    5  A    between atoms: C_12  and  C_13 
REMARK    6  A    between atoms: C_21  and  C_22 
ROOT
HETATM    1  C   UNL     1     -41.536  55.489 -50.762  1.00  0.00     0.170 A 
HETATM    2  N   UNL     1     -41.075  56.734 -51.037  1.00  0.00    -0.163 NA
HETATM    3  N   UNL     1     -42.178  57.499 -51.023  1.00  0.00    -0.238 N 
HETATM    4  C   UNL     1     -43.338  56.791 -50.858  1.00  0.00     0.145 A 
HETATM    5  N   UNL     1     -44.547  57.411 -50.921  1.00  0.00    -0.365 N 
HETATM    6  C   UNL     1     -44.661  58.726 -51.557  1.00  0.00     0.118 C 
HETATM    7  C   UNL     1     -43.496  59.580 -51.024  1.00  0.00     0.066 C 
HETATM    8  C   UNL     1     -42.130  58.922 -51.314  1.00  0.00     0.221 C 
HETATM    9  C   UNL     1     -42.955  55.487 -50.649  1.00  0.00     0.115 A 
HETATM   10 CL   UNL     1     -43.980  54.167 -50.361  1.00  0.00    -0.077 Cl
HETATM   11  H   UNL     1     -45.399  56.851 -50.910  1.00  0.00     0.162 HD
ENDROOT
BRANCH   1  12
HETATM   12  C   UNL     1     -40.610  54.353 -50.638  1.00  0.00     0.273 C 
HETATM   13  N   UNL     1     -40.590  53.542 -51.754  1.00  0.00    -0.353 N 
HETATM   14  H   UNL     1     -41.302  53.734 -52.454  1.00  0.00     0.162 HD
HETATM   15  O   UNL     1     -39.925  54.132 -49.644  1.00  0.00    -0.266 OA
BRANCH  13  16
HETATM   16  C   UNL     1     -39.850  52.299 -51.806  1.00  0.00     0.149 C 
BRANCH  16  17
HETATM   17  C   UNL     1     -39.629  51.807 -53.237  1.00  0.00     0.186 C 
BRANCH  17  18
HETATM   18  O   UNL     1     -39.626  50.375 -53.247  1.00  0.00    -0.394 OA
HETATM   19  C   UNL     1     -40.057  49.863 -54.501  1.00  0.00     0.201 C 
ENDBRANCH  17  18
ENDBRANCH  16  17
ENDBRANCH  13  16
ENDBRANCH   1  12
BRANCH   8  20
HETATM   20  C   UNL     1     -41.054  59.623 -50.513  1.00  0.00     0.409 C 
HETATM   21  F   UNL     1     -40.924  59.114 -49.268  1.00  0.00    -0.169 F 
HETATM   22  F   UNL     1     -39.843  59.606 -51.107  1.00  0.00    -0.169 F 
HETATM   23  F   UNL     1     -41.382  60.936 -50.362  1.00  0.00    -0.169 F 
ENDBRANCH   8  20
BRANCH   6  24
HETATM   24  C   UNL     1     -44.761  58.636 -53.081  1.00  0.00    -0.035 A 
HETATM   25  C   UNL     1     -44.614  57.412 -53.762  1.00  0.00     0.011 A 
HETATM   26  C   UNL     1     -44.739  57.333 -55.154  1.00  0.00     0.024 A 
HETATM   27  C   UNL     1     -45.026  58.476 -55.889  1.00  0.00     0.034 A 
HETATM   28 CL   UNL     1     -45.178  58.384 -57.599  1.00  0.00    -0.084 Cl
HETATM   29  C   UNL     1     -45.201  59.695 -55.242  1.00  0.00     0.024 A 
HETATM   30  C   UNL     1     -45.082  59.771 -53.849  1.00  0.00     0.011 A 
ENDBRANCH   6  24
TORSDOF 6
ENDMDL
MODEL 4
REMARK VINA RESULT:      -7.0      4.322      7.261
REMARK  6 active torsions:
REMARK  status: ('A' for Active; 'I' for Inactive)
REMARK    1  A    between atoms: O_2  and  C_3 
REMARK    2  A    between atoms: C_3  and  C_4 
REMARK    3  A    between atoms: C_4  and  N_5 
REMARK       I    between atoms: N_5  and  C_6 
REMARK    4  A    between atoms: C_6  and  C_7 
REMARK    5  A    between atoms: C_12  and  C_13 
REMARK    6  A    between atoms: C_21  and  C_22 
ROOT
HETATM    1  C   UNL     1     -43.163  56.463 -56.459  1.00  0.00     0.170 A 
HETATM    2  N   UNL     1     -42.210  55.645 -55.949  1.00  0.00    -0.163 NA
HETATM    3  N   UNL     1     -42.593  55.455 -54.676  1.00  0.00    -0.238 N 
HETATM    4  C   UNL     1     -43.685  56.196 -54.313  1.00  0.00     0.145 A 
HETATM    5  N   UNL     1     -44.135  56.190 -53.030  1.00  0.00    -0.365 N 
HETATM    6  C   UNL     1     -43.254  55.740 -51.949  1.00  0.00     0.118 C 
HETATM    7  C   UNL     1     -42.586  54.440 -52.432  1.00  0.00     0.066 C 
HETATM    8  C   UNL     1     -41.810  54.655 -53.749  1.00  0.00     0.221 C 
HETATM    9  C   UNL     1     -44.103  56.833 -55.458  1.00  0.00     0.115 A 
HETATM   10 CL   UNL     1     -45.437  57.871 -55.607  1.00  0.00    -0.077 Cl
HETATM   11  H   UNL     1     -44.877  56.833 -52.755  1.00  0.00     0.162 HD
ENDROOT
BRANCH   1  12
HETATM   12  C   UNL     1     -43.127  56.872 -57.872  1.00  0.00     0.273 C 
HETATM   13  N   UNL     1     -42.009  57.610 -58.197  1.00  0.00    -0.353 N 
HETATM   14  H   UNL     1     -41.428  57.903 -57.415  1.00  0.00     0.162 HD
HETATM   15  O   UNL     1     -44.002  56.598 -58.688  1.00  0.00    -0.266 OA
BRANCH  13  16
HETATM   16  C   UNL     1     -41.826  58.224 -59.495  1.00  0.00     0.149 C 
BRANCH  16  17
HETATM   17  C   UNL     1     -42.115  59.726 -59.480  1.00  0.00     0.186 C 
BRANCH  17  18
HETATM   18  O   UNL     1     -41.837  60.246 -58.175  1.00  0.00    -0.394 OA
HETATM   19  C   UNL     1     -41.077  61.445 -58.245  1.00  0.00     0.201 C 
ENDBRANCH  17  18
ENDBRANCH  16  17
ENDBRANCH  13  16
ENDBRANCH   1  12
BRANCH   8  20
HETATM   20  C   UNL     1     -41.441  53.311 -54.341  1.00  0.00     0.409 C 
HETATM   21  F   UNL     1     -42.466  52.746 -55.015  1.00  0.00    -0.169 F 
HETATM   22  F   UNL     1     -40.370  53.359 -55.159  1.00  0.00    -0.169 F 
HETATM   23  F   UNL     1     -41.114  52.449 -53.340  1.00  0.00    -0.169 F 
ENDBRANCH   8  20
BRANCH   6  24
HETATM   24  C   UNL     1     -42.292  56.834 -51.481  1.00  0.00    -0.035 A 
HETATM   25  C   UNL     1     -41.216  56.555 -50.616  1.00  0.00     0.011 A 
HETATM   26  C   UNL     1     -40.322  57.555 -50.218  1.00  0.00     0.024 A 
HETATM   27  C   UNL     1     -40.480  58.853 -50.690  1.00  0.00     0.034 A 
HETATM   28 CL   UNL     1     -39.385  60.085 -50.203  1.00  0.00    -0.084 Cl
HETATM   29  C   UNL     1     -41.518  59.154 -51.565  1.00  0.00     0.024 A 
HETATM   30  C   UNL     1     -42.408  58.151 -51.967  1.00  0.00     0.011 A 
ENDBRANCH   6  24
TORSDOF 6
ENDMDL
MODEL 5
REMARK VINA RESULT:      -7.0      4.203      6.390
REMARK  6 active torsions:
REMARK  status: ('A' for Active; 'I' for Inactive)
REMARK    1  A    between atoms: O_2  and  C_3 
REMARK    2  A    between atoms: C_3  and  C_4 
REMARK    3  A    between atoms: C_4  and  N_5 
REMARK       I    between atoms: N_5  and  C_6 
REMARK    4  A    between atoms: C_6  and  C_7 
REMARK    5  A    between atoms: C_12  and  C_13 
REMARK    6  A    between atoms: C_21  and  C_22 
ROOT
HETATM    1  C   UNL     1     -41.497  55.029 -51.448  1.00  0.00     0.170 A 
HETATM    2  N   UNL     1     -40.971  56.186 -51.922  1.00  0.00    -0.163 NA
HETATM    3  N   UNL     1     -42.026  56.832 -52.444  1.00  0.00    -0.238 N 
HETATM    4  C   UNL     1     -43.184  56.102 -52.425  1.00  0.00     0.145 A 
HETATM    5  N   UNL     1     -44.317  56.579 -53.007  1.00  0.00    -0.365 N 
HETATM    6  C   UNL     1     -44.233  57.657 -53.996  1.00  0.00     0.118 C 
HETATM    7  C   UNL     1     -43.278  58.717 -53.417  1.00  0.00     0.066 C 
HETATM    8  C   UNL     1     -41.889  58.120 -53.102  1.00  0.00     0.221 C 
HETATM    9  C   UNL     1     -42.885  54.941 -51.752  1.00  0.00     0.115 A 
HETATM   10 CL   UNL     1     -43.953  53.669 -51.407  1.00  0.00    -0.077 Cl
HETATM   11  H   UNL     1     -45.135  55.974 -53.082  1.00  0.00     0.162 HD
ENDROOT
BRANCH   1  12
HETATM   12  C   UNL     1     -40.654  54.051 -50.745  1.00  0.00     0.273 C 
HETATM   13  N   UNL     1     -40.573  52.836 -51.392  1.00  0.00    -0.353 N 
HETATM   14  H   UNL     1     -41.203  52.711 -52.181  1.00  0.00     0.162 HD
HETATM   15  O   UNL     1     -40.081  54.277 -49.683  1.00  0.00    -0.266 OA
BRANCH  13  16
HETATM   16  C   UNL     1     -39.904  51.686 -50.820  1.00  0.00     0.149 C 
BRANCH  16  17
HETATM   17  C   UNL     1     -39.523  50.645 -51.874  1.00  0.00     0.186 C 
BRANCH  17  18
HETATM   18  O   UNL     1     -39.571  51.249 -53.172  1.00  0.00    -0.394 OA
HETATM   19  C   UNL     1     -39.886  50.294 -54.177  1.00  0.00     0.201 C 
ENDBRANCH  17  18
ENDBRANCH  16  17
ENDBRANCH  13  16
ENDBRANCH   1  12
BRANCH   8  20
HETATM   20  C   UNL     1     -41.100  59.100 -52.260  1.00  0.00     0.409 C 
HETATM   21  F   UNL     1     -41.276  58.900 -50.935  1.00  0.00    -0.169 F 
HETATM   22  F   UNL     1     -39.776  59.088 -52.519  1.00  0.00    -0.169 F 
HETATM   23  F   UNL     1     -41.525  60.367 -52.519  1.00  0.00    -0.169 F 
ENDBRANCH   8  20
BRANCH   6  24
HETATM   24  C   UNL     1     -43.872  57.147 -55.392  1.00  0.00    -0.035 A 
HETATM   25  C   UNL     1     -43.265  55.891 -55.589  1.00  0.00     0.011 A 
HETATM   26  C   UNL     1     -42.967  55.418 -56.872  1.00  0.00     0.024 A 
HETATM   27  C   UNL     1     -43.285  56.188 -57.984  1.00  0.00     0.034 A 
HETATM   28 CL   UNL     1     -42.920  55.611 -59.562  1.00  0.00    -0.084 Cl
HETATM   29  C   UNL     1     -43.907  57.420 -57.823  1.00  0.00     0.024 A 
HETATM   30  C   UNL     1     -44.210  57.890 -56.539  1.00  0.00     0.011 A 
ENDBRANCH   6  24
TORSDOF 6
ENDMDL
MODEL 6
REMARK VINA RESULT:      -6.9      3.883      6.698
REMARK  6 active torsions:
REMARK  status: ('A' for Active; 'I' for Inactive)
REMARK    1  A    between atoms: O_2  and  C_3 
REMARK    2  A    between atoms: C_3  and  C_4 
REMARK    3  A    between atoms: C_4  and  N_5 
REMARK       I    between atoms: N_5  and  C_6 
REMARK    4  A    between atoms: C_6  and  C_7 
REMARK    5  A    between atoms: C_12  and  C_13 
REMARK    6  A    between atoms: C_21  and  C_22 
ROOT
HETATM    1  C   UNL     1     -44.393  58.051 -55.801  1.00  0.00     0.170 A 
HETATM    2  N   UNL     1     -44.720  57.533 -54.591  1.00  0.00    -0.163 NA
HETATM    3  N   UNL     1     -43.551  57.477 -53.935  1.00  0.00    -0.238 N 
HETATM    4  C   UNL     1     -42.472  57.833 -54.699  1.00  0.00     0.145 A 
HETATM    5  N   UNL     1     -41.208  57.734 -54.209  1.00  0.00    -0.365 N 
HETATM    6  C   UNL     1     -40.940  56.883 -53.047  1.00  0.00     0.118 C 
HETATM    7  C   UNL     1     -42.039  57.185 -52.012  1.00  0.00     0.066 C 
HETATM    8  C   UNL     1     -43.448  56.935 -52.590  1.00  0.00     0.221 C 
HETATM    9  C   UNL     1     -42.988  58.248 -55.905  1.00  0.00     0.115 A 
HETATM   10 CL   UNL     1     -42.108  58.827 -57.235  1.00  0.00    -0.077 Cl
HETATM   11  H   UNL     1     -40.415  57.896 -54.830  1.00  0.00     0.162 HD
ENDROOT
BRANCH   1  12
HETATM   12  C   UNL     1     -45.429  58.320 -56.810  1.00  0.00     0.273 C 
HETATM   13  N   UNL     1     -45.370  57.466 -57.891  1.00  0.00    -0.353 N 
HETATM   14  H   UNL     1     -44.553  56.862 -57.935  1.00  0.00     0.162 HD
HETATM   15  O   UNL     1     -46.262  59.215 -56.716  1.00  0.00    -0.266 OA
BRANCH  13  16
HETATM   16  C   UNL     1     -46.208  57.624 -59.061  1.00  0.00     0.149 C 
BRANCH  16  17
HETATM   17  C   UNL     1     -46.436  56.306 -59.803  1.00  0.00     0.186 C 
BRANCH  17  18
HETATM   18  O   UNL     1     -45.524  56.222 -60.904  1.00  0.00    -0.394 OA
HETATM   19  C   UNL     1     -44.991  54.911 -61.037  1.00  0.00     0.201 C 
ENDBRANCH  17  18
ENDBRANCH  16  17
ENDBRANCH  13  16
ENDBRANCH   1  12
BRANCH   8  20
HETATM   20  C   UNL     1     -44.486  57.532 -51.664  1.00  0.00     0.409 C 
HETATM   21  F   UNL     1     -44.854  56.678 -50.683  1.00  0.00    -0.169 F 
HETATM   22  F   UNL     1     -44.095  58.690 -51.093  1.00  0.00    -0.169 F 
HETATM   23  F   UNL     1     -45.614  57.819 -52.370  1.00  0.00    -0.169 F 
ENDBRANCH   8  20
BRANCH   6  24
HETATM   24  C   UNL     1     -40.783  55.408 -53.422  1.00  0.00    -0.035 A 
HETATM   25  C   UNL     1     -40.427  55.008 -54.725  1.00  0.00     0.011 A 
HETATM   26  C   UNL     1     -40.255  53.659 -55.052  1.00  0.00     0.024 A 
HETATM   27  C   UNL     1     -40.423  52.683 -54.077  1.00  0.00     0.034 A 
HETATM   28 CL   UNL     1     -40.214  51.024 -54.474  1.00  0.00    -0.084 Cl
HETATM   29  C   UNL     1     -40.750  53.048 -52.775  1.00  0.00     0.024 A 
HETATM   30  C   UNL     1     -40.916  54.400 -52.448  1.00  0.00     0.011 A 
ENDBRANCH   6  24
TORSDOF 6
ENDMDL
MODEL 7
REMARK VINA RESULT:      -6.7      1.076      2.092
REMARK  6 active torsions:
REMARK  status: ('A' for Active; 'I' for Inactive)
REMARK    1  A    between atoms: O_2  and  C_3 
REMARK    2  A    between atoms: C_3  and  C_4 
REMARK    3  A    between atoms: C_4  and  N_5 
REMARK       I    between atoms: N_5  and  C_6 
REMARK    4  A    between atoms: C_6  and  C_7 
REMARK    5  A    between atoms: C_12  and  C_13 
REMARK    6  A    between atoms: C_21  and  C_22 
ROOT
HETATM    1  C   UNL     1     -44.216  58.350 -51.163  1.00  0.00     0.170 A 
HETATM    2  N   UNL     1     -44.254  56.999 -51.275  1.00  0.00    -0.163 NA
HETATM    3  N   UNL     1     -43.118  56.696 -51.924  1.00  0.00    -0.238 N 
HETATM    4  C   UNL     1     -42.405  57.792 -52.329  1.00  0.00     0.145 A 
HETATM    5  N   UNL     1     -41.283  57.652 -53.084  1.00  0.00    -0.365 N 
HETATM    6  C   UNL     1     -41.043  56.404 -53.813  1.00  0.00     0.118 C 
HETATM    7  C   UNL     1     -41.340  55.254 -52.832  1.00  0.00     0.066 C 
HETATM    8  C   UNL     1     -42.782  55.329 -52.288  1.00  0.00     0.221 C 
HETATM    9  C   UNL     1     -43.070  58.882 -51.818  1.00  0.00     0.115 A 
HETATM   10 CL   UNL     1     -42.621  60.509 -51.985  1.00  0.00    -0.077 Cl
HETATM   11  H   UNL     1     -40.831  58.481 -53.469  1.00  0.00     0.162 HD
ENDROOT
BRANCH   1  12
HETATM   12  C   UNL     1     -45.280  59.077 -50.454  1.00  0.00     0.273 C 
HETATM   13  N   UNL     1     -44.803  60.076 -49.632  1.00  0.00    -0.353 N 
HETATM   14  H   UNL     1     -43.794  60.100 -49.502  1.00  0.00     0.162 HD
HETATM   15  O   UNL     1     -46.475  58.823 -50.565  1.00  0.00    -0.266 OA
BRANCH  13  16
HETATM   16  C   UNL     1     -45.658  60.835 -48.743  1.00  0.00     0.149 C 
BRANCH  16  17
HETATM   17  C   UNL     1     -45.970  62.232 -49.280  1.00  0.00     0.186 C 
BRANCH  17  18
HETATM   18  O   UNL     1     -45.002  62.581 -50.276  1.00  0.00    -0.394 OA
HETATM   19  C   UNL     1     -45.621  63.130 -51.432  1.00  0.00     0.201 C 
ENDBRANCH  17  18
ENDBRANCH  16  17
ENDBRANCH  13  16
ENDBRANCH   1  12
BRANCH   8  20
HETATM   20  C   UNL     1     -42.927  54.385 -51.114  1.00  0.00     0.409 C 
HETATM   21  F   UNL     1     -42.083  53.331 -51.193  1.00  0.00    -0.169 F 
HETATM   22  F   UNL     1     -42.749  54.981 -49.917  1.00  0.00    -0.169 F 
HETATM   23  F   UNL     1     -44.187  53.870 -51.097  1.00  0.00    -0.169 F 
ENDBRANCH   8  20
BRANCH   6  24
HETATM   24  C   UNL     1     -41.801  56.343 -55.140  1.00  0.00    -0.035 A 
HETATM   25  C   UNL     1     -42.154  55.116 -55.737  1.00  0.00     0.011 A 
HETATM   26  C   UNL     1     -42.875  55.070 -56.934  1.00  0.00     0.024 A 
HETATM   27  C   UNL     1     -43.268  56.250 -57.553  1.00  0.00     0.034 A 
HETATM   28 CL   UNL     1     -44.153  56.198 -59.026  1.00  0.00    -0.084 Cl
HETATM   29  C   UNL     1     -42.955  57.476 -56.976  1.00  0.00     0.024 A 
HETATM   30  C   UNL     1     -42.239  57.521 -55.773  1.00  0.00     0.011 A 
ENDBRANCH   6  24
TORSDOF 6
ENDMDL
MODEL 8
REMARK VINA RESULT:      -6.5      4.053      6.260
REMARK  6 active torsions:
REMARK  status: ('A' for Active; 'I' for Inactive)
REMARK    1  A    between atoms: O_2  and  C_3 
REMARK    2  A    between atoms: C_3  and  C_4 
REMARK    3  A    between atoms: C_4  and  N_5 
REMARK       I    between atoms: N_5  and  C_6 
REMARK    4  A    between atoms: C_6  and  C_7 
REMARK    5  A    between atoms: C_12  and  C_13 
REMARK    6  A    between atoms: C_21  and  C_22 
ROOT
HETATM    1  C   UNL     1     -42.008  55.348 -53.304  1.00  0.00     0.170 A 
HETATM    2  N   UNL     1     -42.156  56.531 -52.657  1.00  0.00    -0.163 NA
HETATM    3  N   UNL     1     -43.171  57.128 -53.301  1.00  0.00    -0.238 N 
HETATM    4  C   UNL     1     -43.613  56.435 -54.396  1.00  0.00     0.145 A 
HETATM    5  N   UNL     1     -44.569  56.956 -55.210  1.00  0.00    -0.365 N 
HETATM    6  C   UNL     1     -44.847  58.394 -55.183  1.00  0.00     0.118 C 
HETATM    7  C   UNL     1     -44.932  58.803 -53.701  1.00  0.00     0.066 C 
HETATM    8  C   UNL     1     -43.633  58.458 -52.942  1.00  0.00     0.221 C 
HETATM    9  C   UNL     1     -42.904  55.256 -54.405  1.00  0.00     0.115 A 
HETATM   10 CL   UNL     1     -43.056  53.995 -55.529  1.00  0.00    -0.077 Cl
HETATM   11  H   UNL     1     -44.803  56.477 -56.080  1.00  0.00     0.162 HD
ENDROOT
BRANCH   1  12
HETATM   12  C   UNL     1     -41.008  54.366 -52.857  1.00  0.00     0.273 C 
HETATM   13  N   UNL     1     -40.873  54.311 -51.486  1.00  0.00    -0.353 N 
HETATM   14  H   UNL     1     -41.359  55.035 -50.963  1.00  0.00     0.162 HD
HETATM   15  O   UNL     1     -40.346  53.666 -53.618  1.00  0.00    -0.266 OA
BRANCH  13  16
HETATM   16  C   UNL     1     -39.861  53.510 -50.830  1.00  0.00     0.149 C 
BRANCH  16  17
HETATM   17  C   UNL     1     -40.339  52.089 -50.532  1.00  0.00     0.186 C 
BRANCH  17  18
HETATM   18  O   UNL     1     -39.644  51.170 -51.382  1.00  0.00    -0.394 OA
HETATM   19  C   UNL     1     -39.622  49.862 -50.826  1.00  0.00     0.201 C 
ENDBRANCH  17  18
ENDBRANCH  16  17
ENDBRANCH  13  16
ENDBRANCH   1  12
BRANCH   8  20
HETATM   20  C   UNL     1     -43.873  58.586 -51.452  1.00  0.00     0.409 C 
HETATM   21  F   UNL     1     -44.411  57.467 -50.919  1.00  0.00    -0.169 F 
HETATM   22  F   UNL     1     -42.762  58.897 -50.753  1.00  0.00    -0.169 F 
HETATM   23  F   UNL     1     -44.760  59.591 -51.219  1.00  0.00    -0.169 F 
ENDBRANCH   8  20
BRANCH   6  24
HETATM   24  C   UNL     1     -43.858  59.200 -56.028  1.00  0.00    -0.035 A 
HETATM   25  C   UNL     1     -43.694  60.588 -55.854  1.00  0.00     0.011 A 
HETATM   26  C   UNL     1     -42.764  61.312 -56.608  1.00  0.00     0.024 A 
HETATM   27  C   UNL     1     -41.971  60.657 -57.543  1.00  0.00     0.034 A 
HETATM   28 CL   UNL     1     -40.828  61.543 -58.473  1.00  0.00    -0.084 Cl
HETATM   29  C   UNL     1     -42.093  59.284 -57.720  1.00  0.00     0.024 A 
HETATM   30  C   UNL     1     -43.019  58.559 -56.959  1.00  0.00     0.011 A 
ENDBRANCH   6  24
TORSDOF 6
ENDMDL
MODEL 9
REMARK VINA RESULT:      -6.4      4.242      6.814
REMARK  6 active torsions:
REMARK  status: ('A' for Active; 'I' for Inactive)
REMARK    1  A    between atoms: O_2  and  C_3 
REMARK    2  A    between atoms: C_3  and  C_4 
REMARK    3  A    between atoms: C_4  and  N_5 
REMARK       I    between atoms: N_5  and  C_6 
REMARK    4  A    between atoms: C_6  and  C_7 
REMARK    5  A    between atoms: C_12  and  C_13 
REMARK    6  A    between atoms: C_21  and  C_22 
ROOT
HETATM    1  C   UNL     1     -41.607  55.445 -53.510  1.00  0.00     0.170 A 
HETATM    2  N   UNL     1     -41.112  56.546 -52.893  1.00  0.00    -0.163 NA
HETATM    3  N   UNL     1     -42.206  57.221 -52.506  1.00  0.00    -0.238 N 
HETATM    4  C   UNL     1     -43.379  56.663 -52.937  1.00  0.00     0.145 A 
HETATM    5  N   UNL     1     -44.568  57.282 -52.712  1.00  0.00    -0.365 N 
HETATM    6  C   UNL     1     -44.599  58.710 -52.384  1.00  0.00     0.118 C 
HETATM    7  C   UNL     1     -43.508  58.944 -51.322  1.00  0.00     0.066 C 
HETATM    8  C   UNL     1     -42.118  58.504 -51.829  1.00  0.00     0.221 C 
HETATM    9  C   UNL     1     -43.028  55.488 -53.561  1.00  0.00     0.115 A 
HETATM   10 CL   UNL     1     -44.085  54.366 -54.270  1.00  0.00    -0.077 Cl
HETATM   11  H   UNL     1     -45.417  56.909 -53.138  1.00  0.00     0.162 HD
ENDROOT
BRANCH   1  12
HETATM   12  C   UNL     1     -40.707  54.410 -54.041  1.00  0.00     0.273 C 
HETATM   13  N   UNL     1     -40.826  53.199 -53.393  1.00  0.00    -0.353 N 
HETATM   14  H   UNL     1     -41.401  53.200 -52.553  1.00  0.00     0.162 HD
HETATM   15  O   UNL     1     -39.917  54.595 -54.962  1.00  0.00    -0.266 OA
BRANCH  13  16
HETATM   16  C   UNL     1     -39.952  52.076 -53.662  1.00  0.00     0.149 C 
BRANCH  16  17
HETATM   17  C   UNL     1     -39.317  51.510 -52.392  1.00  0.00     0.186 C 
BRANCH  17  18
HETATM   18  O   UNL     1     -39.640  50.119 -52.283  1.00  0.00    -0.394 OA
HETATM   19  C   UNL     1     -39.581  49.676 -50.933  1.00  0.00     0.201 C 
ENDBRANCH  17  18
ENDBRANCH  16  17
ENDBRANCH  13  16
ENDBRANCH   1  12
BRANCH   8  20
HETATM   20  C   UNL     1     -41.150  58.460 -50.667  1.00  0.00     0.409 C 
HETATM   21  F   UNL     1     -41.268  57.327 -49.939  1.00  0.00    -0.169 F 
HETATM   22  F   UNL     1     -39.859  58.595 -51.035  1.00  0.00    -0.169 F 
HETATM   23  F   UNL     1     -41.411  59.493 -49.819  1.00  0.00    -0.169 F 
ENDBRANCH   8  20
BRANCH   6  24
HETATM   24  C   UNL     1     -44.506  59.600 -53.624  1.00  0.00    -0.035 A 
HETATM   25  C   UNL     1     -45.008  59.186 -54.874  1.00  0.00     0.011 A 
HETATM   26  C   UNL     1     -44.948  60.019 -55.996  1.00  0.00     0.024 A 
HETATM   27  C   UNL     1     -44.395  61.288 -55.886  1.00  0.00     0.034 A 
HETATM   28 CL   UNL     1     -44.318  62.315 -57.263  1.00  0.00    -0.084 Cl
HETATM   29  C   UNL     1     -43.913  61.735 -54.661  1.00  0.00     0.024 A 
HETATM   30  C   UNL     1     -43.980  60.903 -53.537  1.00  0.00     0.011 A 
ENDBRANCH   6  24
TORSDOF 6
ENDMDL
MODEL 10
REMARK VINA RESULT:      -6.4     18.597     21.311
REMARK  6 active torsions:
REMARK  status: ('A' for Active; 'I' for Inactive)
REMARK    1  A    between atoms: O_2  and  C_3 
REMARK    2  A    between atoms: C_3  and  C_4 
REMARK    3  A    between atoms: C_4  and  N_5 
REMARK       I    between atoms: N_5  and  C_6 
REMARK    4  A    between atoms: C_6  and  C_7 
REMARK    5  A    between atoms: C_12  and  C_13 
REMARK    6  A    between atoms: C_21  and  C_22 
ROOT
HETATM    1  C   UNL     1     -34.221  38.917 -57.201  1.00  0.00     0.170 A 
HETATM    2  N   UNL     1     -35.550  39.008 -56.945  1.00  0.00    -0.163 NA
HETATM    3  N   UNL     1     -35.665  40.130 -56.217  1.00  0.00    -0.238 N 
HETATM    4  C   UNL     1     -34.465  40.707 -55.902  1.00  0.00     0.145 A 
HETATM    5  N   UNL     1     -34.408  41.794 -55.086  1.00  0.00    -0.365 N 
HETATM    6  C   UNL     1     -35.543  42.116 -54.217  1.00  0.00     0.118 C 
HETATM    7  C   UNL     1     -36.812  41.989 -55.080  1.00  0.00     0.066 C 
HETATM    8  C   UNL     1     -36.944  40.579 -55.694  1.00  0.00     0.221 C 
HETATM    9  C   UNL     1     -33.508  39.967 -56.556  1.00  0.00     0.115 A 
HETATM   10 CL   UNL     1     -31.834  40.242 -56.545  1.00  0.00    -0.077 Cl
HETATM   11  H   UNL     1     -33.501  42.139 -54.773  1.00  0.00     0.162 HD
ENDROOT
BRANCH   1  12
HETATM   12  C   UNL     1     -33.686  37.827 -58.031  1.00  0.00     0.273 C 
HETATM   13  N   UNL     1     -34.268  37.758 -59.280  1.00  0.00    -0.353 N 
HETATM   14  H   UNL     1     -35.076  38.357 -59.426  1.00  0.00     0.162 HD
HETATM   15  O   UNL     1     -32.817  37.045 -57.659  1.00  0.00    -0.266 OA
BRANCH  13  16
HETATM   16  C   UNL     1     -33.989  36.689 -60.215  1.00  0.00     0.149 C 
BRANCH  16  17
HETATM   17  C   UNL     1     -33.199  37.168 -61.434  1.00  0.00     0.186 C 
BRANCH  17  18
HETATM   18  O   UNL     1     -33.943  38.190 -62.106  1.00  0.00    -0.394 OA
HETATM   19  C   UNL     1     -35.005  37.641 -62.874  1.00  0.00     0.201 C 
ENDBRANCH  17  18
ENDBRANCH  16  17
ENDBRANCH  13  16
ENDBRANCH   1  12
BRANCH   8  20
HETATM   20  C   UNL     1     -38.014  40.594 -56.764  1.00  0.00     0.409 C 
HETATM   21  F   UNL     1     -37.669  41.355 -57.827  1.00  0.00    -0.169 F 
HETATM   22  F   UNL     1     -38.346  39.365 -57.212  1.00  0.00    -0.169 F 
HETATM   23  F   UNL     1     -39.156  41.133 -56.258  1.00  0.00    -0.169 F 
ENDBRANCH   8  20
BRANCH   6  24
HETATM   24  C   UNL     1     -35.546  41.295 -52.926  1.00  0.00    -0.035 A 
HETATM   25  C   UNL     1     -34.350  40.909 -52.290  1.00  0.00     0.011 A 
HETATM   26  C   UNL     1     -34.362  40.186 -51.093  1.00  0.00     0.024 A 
HETATM   27  C   UNL     1     -35.573  39.846 -50.502  1.00  0.00     0.034 A 
HETATM   28 CL   UNL     1     -35.592  38.956 -49.030  1.00  0.00    -0.084 Cl
HETATM   29  C   UNL     1     -36.770  40.234 -51.092  1.00  0.00     0.024 A 
HETATM   30  C   UNL     1     -36.756  40.964 -52.287  1.00  0.00     0.011 A 
ENDBRANCH   6  24
TORSDOF 6
ENDMDL
