MODEL 1
REMARK VINA RESULT:      -8.5      0.000      0.000
REMARK  6 active torsions:
REMARK  status: ('A' for Active; 'I' for Inactive)
REMARK    1  A    between atoms: C_4  and  C_5 
REMARK    2  A    between atoms: C_6  and  C_7 
REMARK    3  A    between atoms: C_7  and  C_8 
REMARK    4  A    between atoms: C_8  and  C_9 
REMARK       I    between atoms: C_9  and  N_10 
REMARK    5  A    between atoms: N_10  and  C_11 
REMARK    6  A    between atoms: C_18  and  C_19 
REMARK       I    between atoms: C_19  and  N_20 
ROOT
HETATM    1  C   UNL     1     -41.890  55.689 -53.566  1.00  0.00     0.035 A 
HETATM    2  C   UNL     1     -41.860  56.715 -54.521  1.00  0.00     0.046 A 
HETATM    3  C   UNL     1     -42.393  56.485 -55.809  1.00  0.00     0.030 A 
HETATM    4  C   UNL     1     -42.921  55.234 -56.102  1.00  0.00     0.063 A 
HETATM    5  N   UNL     1     -43.340  55.311 -57.400  1.00  0.00    -0.277 N 
HETATM    6  H   UNL     1     -43.772  54.577 -57.950  1.00  0.00     0.189 HD
HETATM    7  N   UNL     1     -43.149  56.508 -57.977  1.00  0.00    -0.168 NA
HETATM    8  C   UNL     1     -42.567  57.247 -57.004  1.00  0.00     0.156 A 
HETATM    9  C   UNL     1     -42.966  54.189 -55.177  1.00  0.00     0.034 A 
HETATM   10  C   UNL     1     -42.447  54.447 -53.903  1.00  0.00     0.032 A 
ENDROOT
BRANCH   1  11
HETATM   11  N   UNL     1     -41.404  55.826 -52.247  1.00  0.00    -0.327 N 
HETATM   12  C   UNL     1     -42.141  55.906 -51.081  1.00  0.00     0.222 C 
HETATM   13  O   UNL     1     -43.365  55.903 -50.993  1.00  0.00    -0.273 OA
HETATM   14  H   UNL     1     -40.401  55.912 -52.160  1.00  0.00     0.169 HD
BRANCH  12  15
HETATM   15  C   UNL     1     -41.289  55.950 -49.819  1.00  0.00     0.107 C 
BRANCH  15  16
HETATM   16  C   UNL     1     -40.850  54.589 -49.278  1.00  0.00     0.036 C 
BRANCH  16  17
HETATM   17  C   UNL     1     -40.785  53.421 -50.225  1.00  0.00    -0.025 C 
HETATM   18  C   UNL     1     -39.739  53.032 -50.972  1.00  0.00     0.007 C 
BRANCH  18  19
HETATM   19  C   UNL     1     -39.781  51.880 -51.884  1.00  0.00    -0.036 A 
HETATM   20  C   UNL     1     -39.993  52.106 -53.250  1.00  0.00     0.011 A 
HETATM   21  C   UNL     1     -40.016  51.038 -54.152  1.00  0.00     0.001 A 
HETATM   22  C   UNL     1     -39.817  49.736 -53.697  1.00  0.00     0.000 A 
HETATM   23  C   UNL     1     -39.588  49.501 -52.343  1.00  0.00     0.001 A 
HETATM   24  C   UNL     1     -39.565  50.568 -51.441  1.00  0.00     0.011 A 
ENDBRANCH  18  19
ENDBRANCH  16  17
ENDBRANCH  15  16
ENDBRANCH  12  15
ENDBRANCH   1  11
BRANCH   8  25
HETATM   25  C   UNL     1     -42.205  58.652 -57.234  1.00  0.00     0.270 C 
HETATM   26  N   UNL     1     -41.870  58.937 -58.530  1.00  0.00    -0.365 N 
HETATM   27  H   UNL     1     -41.906  58.191 -59.215  1.00  0.00     0.159 HD
HETATM   28  H   UNL     1     -41.625  59.879 -58.787  1.00  0.00     0.159 HD
HETATM   29  O   UNL     1     -42.198  59.524 -56.372  1.00  0.00    -0.266 OA
ENDBRANCH   8  25
TORSDOF 6
ENDMDL
MODEL 2
REMARK VINA RESULT:      -8.2      2.430      3.559
REMARK  6 active torsions:
REMARK  status: ('A' for Active; 'I' for Inactive)
REMARK    1  A    between atoms: C_4  and  C_5 
REMARK    2  A    between atoms: C_6  and  C_7 
REMARK    3  A    between atoms: C_7  and  C_8 
REMARK    4  A    between atoms: C_8  and  C_9 
REMARK       I    between atoms: C_9  and  N_10 
REMARK    5  A    between atoms: N_10  and  C_11 
REMARK    6  A    between atoms: C_18  and  C_19 
REMARK       I    between atoms: C_19  and  N_20 
ROOT
HETATM    1  C   UNL     1     -42.585  56.935 -56.151  1.00  0.00     0.035 A 
HETATM    2  C   UNL     1     -43.186  56.085 -57.090  1.00  0.00     0.046 A 
HETATM    3  C   UNL     1     -43.226  56.465 -58.450  1.00  0.00     0.030 A 
HETATM    4  C   UNL     1     -42.679  57.687 -58.821  1.00  0.00     0.063 A 
HETATM    5  N   UNL     1     -42.875  57.779 -60.170  1.00  0.00    -0.277 N 
HETATM    6  H   UNL     1     -42.606  58.544 -60.779  1.00  0.00     0.189 HD
HETATM    7  N   UNL     1     -43.485  56.716 -60.718  1.00  0.00    -0.168 NA
HETATM    8  C   UNL     1     -43.706  55.893 -59.667  1.00  0.00     0.156 A 
HETATM    9  C   UNL     1     -42.074  58.559 -57.914  1.00  0.00     0.034 A 
HETATM   10  C   UNL     1     -42.033  58.152 -56.575  1.00  0.00     0.032 A 
ENDROOT
BRANCH   1  11
HETATM   11  N   UNL     1     -42.475  56.636 -54.775  1.00  0.00    -0.327 N 
HETATM   12  C   UNL     1     -43.500  56.499 -53.858  1.00  0.00     0.222 C 
HETATM   13  O   UNL     1     -44.698  56.646 -54.080  1.00  0.00    -0.273 OA
HETATM   14  H   UNL     1     -41.532  56.552 -54.423  1.00  0.00     0.169 HD
BRANCH  12  15
HETATM   15  C   UNL     1     -43.030  56.075 -52.474  1.00  0.00     0.107 C 
BRANCH  15  16
HETATM   16  C   UNL     1     -41.535  55.781 -52.351  1.00  0.00     0.036 C 
BRANCH  16  17
HETATM   17  C   UNL     1     -41.078  54.348 -52.338  1.00  0.00    -0.025 C 
HETATM   18  C   UNL     1     -40.666  53.612 -53.384  1.00  0.00     0.007 C 
BRANCH  18  19
HETATM   19  C   UNL     1     -40.252  52.206 -53.270  1.00  0.00    -0.036 A 
HETATM   20  C   UNL     1     -39.780  51.738 -52.037  1.00  0.00     0.011 A 
HETATM   21  C   UNL     1     -39.400  50.402 -51.883  1.00  0.00     0.001 A 
HETATM   22  C   UNL     1     -39.497  49.520 -52.957  1.00  0.00     0.000 A 
HETATM   23  C   UNL     1     -39.982  49.970 -54.184  1.00  0.00     0.001 A 
HETATM   24  C   UNL     1     -40.362  51.306 -54.338  1.00  0.00     0.011 A 
ENDBRANCH  18  19
ENDBRANCH  16  17
ENDBRANCH  15  16
ENDBRANCH  12  15
ENDBRANCH   1  11
BRANCH   8  25
HETATM   25  C   UNL     1     -44.355  54.587 -59.851  1.00  0.00     0.270 C 
HETATM   26  N   UNL     1     -44.983  54.441 -61.058  1.00  0.00    -0.365 N 
HETATM   27  H   UNL     1     -44.948  55.209 -61.719  1.00  0.00     0.159 HD
HETATM   28  H   UNL     1     -45.440  53.572 -61.282  1.00  0.00     0.159 HD
HETATM   29  O   UNL     1     -44.351  53.680 -59.026  1.00  0.00    -0.266 OA
ENDBRANCH   8  25
TORSDOF 6
ENDMDL
MODEL 3
REMARK VINA RESULT:      -8.1      1.666      2.772
REMARK  6 active torsions:
REMARK  status: ('A' for Active; 'I' for Inactive)
REMARK    1  A    between atoms: C_4  and  C_5 
REMARK    2  A    between atoms: C_6  and  C_7 
REMARK    3  A    between atoms: C_7  and  C_8 
REMARK    4  A    between atoms: C_8  and  C_9 
REMARK       I    between atoms: C_9  and  N_10 
REMARK    5  A    between atoms: N_10  and  C_11 
REMARK    6  A    between atoms: C_18  and  C_19 
REMARK       I    between atoms: C_19  and  N_20 
ROOT
HETATM    1  C   UNL     1     -41.347  57.198 -52.153  1.00  0.00     0.035 A 
HETATM    2  C   UNL     1     -41.863  56.587 -53.304  1.00  0.00     0.046 A 
HETATM    3  C   UNL     1     -42.074  57.359 -54.469  1.00  0.00     0.030 A 
HETATM    4  C   UNL     1     -41.778  58.716 -54.436  1.00  0.00     0.063 A 
HETATM    5  N   UNL     1     -42.092  59.187 -55.680  1.00  0.00    -0.277 N 
HETATM    6  H   UNL     1     -42.009  60.140 -56.014  1.00  0.00     0.189 HD
HETATM    7  N   UNL     1     -42.549  58.254 -56.529  1.00  0.00    -0.168 NA
HETATM    8  C   UNL     1     -42.541  57.116 -55.796  1.00  0.00     0.156 A 
HETATM    9  C   UNL     1     -41.265  59.358 -53.307  1.00  0.00     0.034 A 
HETATM   10  C   UNL     1     -41.049  58.568 -52.172  1.00  0.00     0.032 A 
ENDROOT
BRANCH   1  11
HETATM   11  N   UNL     1     -41.080  56.510 -50.949  1.00  0.00    -0.327 N 
HETATM   12  C   UNL     1     -41.958  55.748 -50.201  1.00  0.00     0.222 C 
HETATM   13  O   UNL     1     -43.146  55.562 -50.443  1.00  0.00    -0.273 OA
HETATM   14  H   UNL     1     -40.146  56.625 -50.580  1.00  0.00     0.169 HD
BRANCH  12  15
HETATM   15  C   UNL     1     -41.310  55.064 -49.005  1.00  0.00     0.107 C 
BRANCH  15  16
HETATM   16  C   UNL     1     -39.960  54.400 -49.283  1.00  0.00     0.036 C 
BRANCH  16  17
HETATM   17  C   UNL     1     -39.916  53.210 -50.204  1.00  0.00    -0.025 C 
HETATM   18  C   UNL     1     -39.845  53.218 -51.545  1.00  0.00     0.007 C 
BRANCH  18  19
HETATM   19  C   UNL     1     -39.823  51.994 -52.360  1.00  0.00    -0.036 A 
HETATM   20  C   UNL     1     -39.582  50.766 -51.730  1.00  0.00     0.011 A 
HETATM   21  C   UNL     1     -39.576  49.579 -52.467  1.00  0.00     0.001 A 
HETATM   22  C   UNL     1     -39.821  49.607 -53.838  1.00  0.00     0.000 A 
HETATM   23  C   UNL     1     -40.080  50.820 -54.473  1.00  0.00     0.001 A 
HETATM   24  C   UNL     1     -40.086  52.008 -53.736  1.00  0.00     0.011 A 
ENDBRANCH  18  19
ENDBRANCH  16  17
ENDBRANCH  15  16
ENDBRANCH  12  15
ENDBRANCH   1  11
BRANCH   8  25
HETATM   25  C   UNL     1     -42.965  55.836 -56.379  1.00  0.00     0.270 C 
HETATM   26  N   UNL     1     -43.661  55.033 -55.516  1.00  0.00    -0.365 N 
HETATM   27  H   UNL     1     -43.837  55.370 -54.577  1.00  0.00     0.159 HD
HETATM   28  H   UNL     1     -44.008  54.142 -55.832  1.00  0.00     0.159 HD
HETATM   29  O   UNL     1     -42.744  55.483 -57.532  1.00  0.00    -0.266 OA
ENDBRANCH   8  25
TORSDOF 6
ENDMDL
MODEL 4
REMARK VINA RESULT:      -7.8      3.177      4.291
REMARK  6 active torsions:
REMARK  status: ('A' for Active; 'I' for Inactive)
REMARK    1  A    between atoms: C_4  and  C_5 
REMARK    2  A    between atoms: C_6  and  C_7 
REMARK    3  A    between atoms: C_7  and  C_8 
REMARK    4  A    between atoms: C_8  and  C_9 
REMARK       I    between atoms: C_9  and  N_10 
REMARK    5  A    between atoms: N_10  and  C_11 
REMARK    6  A    between atoms: C_18  and  C_19 
REMARK       I    between atoms: C_19  and  N_20 
ROOT
HETATM    1  C   UNL     1     -43.503  56.293 -58.225  1.00  0.00     0.035 A 
HETATM    2  C   UNL     1     -44.424  57.326 -58.453  1.00  0.00     0.046 A 
HETATM    3  C   UNL     1     -45.425  57.162 -59.437  1.00  0.00     0.030 A 
HETATM    4  C   UNL     1     -45.460  55.981 -60.168  1.00  0.00     0.063 A 
HETATM    5  N   UNL     1     -46.509  56.119 -61.033  1.00  0.00    -0.277 N 
HETATM    6  H   UNL     1     -46.826  55.450 -61.724  1.00  0.00     0.189 HD
HETATM    7  N   UNL     1     -47.175  57.279 -60.919  1.00  0.00    -0.168 NA
HETATM    8  C   UNL     1     -46.519  57.934 -59.934  1.00  0.00     0.156 A 
HETATM    9  C   UNL     1     -44.559  54.934 -59.969  1.00  0.00     0.034 A 
HETATM   10  C   UNL     1     -43.587  55.114 -58.978  1.00  0.00     0.032 A 
ENDROOT
BRANCH   1  11
HETATM   11  N   UNL     1     -42.481  56.351 -57.252  1.00  0.00    -0.327 N 
HETATM   12  C   UNL     1     -42.615  56.235 -55.881  1.00  0.00     0.222 C 
HETATM   13  O   UNL     1     -43.665  56.090 -55.264  1.00  0.00    -0.273 OA
HETATM   14  H   UNL     1     -41.553  56.536 -57.607  1.00  0.00     0.169 HD
BRANCH  12  15
HETATM   15  C   UNL     1     -41.289  56.246 -55.134  1.00  0.00     0.107 C 
BRANCH  15  16
HETATM   16  C   UNL     1     -41.371  55.886 -53.649  1.00  0.00     0.036 C 
BRANCH  16  17
HETATM   17  C   UNL     1     -40.968  54.502 -53.217  1.00  0.00    -0.025 C 
HETATM   18  C   UNL     1     -40.609  53.473 -54.002  1.00  0.00     0.007 C 
BRANCH  18  19
HETATM   19  C   UNL     1     -40.245  52.147 -53.482  1.00  0.00    -0.036 A 
HETATM   20  C   UNL     1     -40.233  51.056 -54.360  1.00  0.00     0.011 A 
HETATM   21  C   UNL     1     -39.871  49.784 -53.908  1.00  0.00     0.001 A 
HETATM   22  C   UNL     1     -39.507  49.594 -52.577  1.00  0.00     0.000 A 
HETATM   23  C   UNL     1     -39.499  50.675 -51.697  1.00  0.00     0.001 A 
HETATM   24  C   UNL     1     -39.861  51.947 -52.149  1.00  0.00     0.011 A 
ENDBRANCH  18  19
ENDBRANCH  16  17
ENDBRANCH  15  16
ENDBRANCH  12  15
ENDBRANCH   1  11
BRANCH   8  25
HETATM   25  C   UNL     1     -46.955  59.264 -59.487  1.00  0.00     0.270 C 
HETATM   26  N   UNL     1     -46.270  60.299 -60.064  1.00  0.00    -0.365 N 
HETATM   27  H   UNL     1     -45.547  60.084 -60.741  1.00  0.00     0.159 HD
HETATM   28  H   UNL     1     -46.511  61.249 -59.832  1.00  0.00     0.159 HD
HETATM   29  O   UNL     1     -47.853  59.473 -58.678  1.00  0.00    -0.266 OA
ENDBRANCH   8  25
TORSDOF 6
ENDMDL
MODEL 5
REMARK VINA RESULT:      -7.7      2.479      3.387
REMARK  6 active torsions:
REMARK  status: ('A' for Active; 'I' for Inactive)
REMARK    1  A    between atoms: C_4  and  C_5 
REMARK    2  A    between atoms: C_6  and  C_7 
REMARK    3  A    between atoms: C_7  and  C_8 
REMARK    4  A    between atoms: C_8  and  C_9 
REMARK       I    between atoms: C_9  and  N_10 
REMARK    5  A    between atoms: N_10  and  C_11 
REMARK    6  A    between atoms: C_18  and  C_19 
REMARK       I    between atoms: C_19  and  N_20 
ROOT
HETATM    1  C   UNL     1     -44.089  57.864 -55.554  1.00  0.00     0.035 A 
HETATM    2  C   UNL     1     -43.504  57.441 -56.756  1.00  0.00     0.046 A 
HETATM    3  C   UNL     1     -44.053  57.869 -57.986  1.00  0.00     0.030 A 
HETATM    4  C   UNL     1     -45.174  58.689 -57.971  1.00  0.00     0.063 A 
HETATM    5  N   UNL     1     -45.472  58.921 -59.285  1.00  0.00    -0.277 N 
HETATM    6  H   UNL     1     -46.236  59.477 -59.651  1.00  0.00     0.189 HD
HETATM    7  N   UNL     1     -44.635  58.339 -60.157  1.00  0.00    -0.168 NA
HETATM    8  C   UNL     1     -43.748  57.687 -59.369  1.00  0.00     0.156 A 
HETATM    9  C   UNL     1     -45.782  59.128 -56.794  1.00  0.00     0.034 A 
HETATM   10  C   UNL     1     -45.210  58.704 -55.589  1.00  0.00     0.032 A 
ENDROOT
BRANCH   1  11
HETATM   11  N   UNL     1     -43.604  57.510 -54.275  1.00  0.00    -0.327 N 
HETATM   12  C   UNL     1     -43.541  56.247 -53.717  1.00  0.00     0.222 C 
HETATM   13  O   UNL     1     -43.931  55.205 -54.233  1.00  0.00    -0.273 OA
HETATM   14  H   UNL     1     -43.304  58.281 -53.696  1.00  0.00     0.169 HD
BRANCH  12  15
HETATM   15  C   UNL     1     -42.866  56.213 -52.353  1.00  0.00     0.107 C 
BRANCH  15  16
HETATM   16  C   UNL     1     -41.372  55.888 -52.369  1.00  0.00     0.036 C 
BRANCH  16  17
HETATM   17  C   UNL     1     -40.946  54.445 -52.347  1.00  0.00    -0.025 C 
HETATM   18  C   UNL     1     -40.634  53.669 -53.398  1.00  0.00     0.007 C 
BRANCH  18  19
HETATM   19  C   UNL     1     -40.243  52.258 -53.273  1.00  0.00    -0.036 A 
HETATM   20  C   UNL     1     -39.864  51.770 -52.015  1.00  0.00     0.011 A 
HETATM   21  C   UNL     1     -39.508  50.429 -51.851  1.00  0.00     0.001 A 
HETATM   22  C   UNL     1     -39.536  49.561 -52.940  1.00  0.00     0.000 A 
HETATM   23  C   UNL     1     -39.927  50.031 -54.192  1.00  0.00     0.001 A 
HETATM   24  C   UNL     1     -40.284  51.371 -54.357  1.00  0.00     0.011 A 
ENDBRANCH  18  19
ENDBRANCH  16  17
ENDBRANCH  15  16
ENDBRANCH  12  15
ENDBRANCH   1  11
BRANCH   8  25
HETATM   25  C   UNL     1     -42.637  56.922 -59.951  1.00  0.00     0.270 C 
HETATM   26  N   UNL     1     -41.638  57.699 -60.473  1.00  0.00    -0.365 N 
HETATM   27  H   UNL     1     -41.727  58.707 -60.413  1.00  0.00     0.159 HD
HETATM   28  H   UNL     1     -40.826  57.263 -60.878  1.00  0.00     0.159 HD
HETATM   29  O   UNL     1     -42.567  55.699 -59.981  1.00  0.00    -0.266 OA
ENDBRANCH   8  25
TORSDOF 6
ENDMDL
MODEL 6
REMARK VINA RESULT:      -7.5      2.769      7.289
REMARK  6 active torsions:
REMARK  status: ('A' for Active; 'I' for Inactive)
REMARK    1  A    between atoms: C_4  and  C_5 
REMARK    2  A    between atoms: C_6  and  C_7 
REMARK    3  A    between atoms: C_7  and  C_8 
REMARK    4  A    between atoms: C_8  and  C_9 
REMARK       I    between atoms: C_9  and  N_10 
REMARK    5  A    between atoms: N_10  and  C_11 
REMARK    6  A    between atoms: C_18  and  C_19 
REMARK       I    between atoms: C_19  and  N_20 
ROOT
HETATM    1  C   UNL     1     -40.803  54.385 -54.270  1.00  0.00     0.035 A 
HETATM    2  C   UNL     1     -41.002  54.596 -52.898  1.00  0.00     0.046 A 
HETATM    3  C   UNL     1     -40.650  53.582 -51.979  1.00  0.00     0.030 A 
HETATM    4  C   UNL     1     -40.129  52.389 -52.464  1.00  0.00     0.063 A 
HETATM    5  N   UNL     1     -39.902  51.616 -51.360  1.00  0.00    -0.277 N 
HETATM    6  H   UNL     1     -39.528  50.674 -51.337  1.00  0.00     0.189 HD
HETATM    7  N   UNL     1     -40.211  52.205 -50.195  1.00  0.00    -0.168 NA
HETATM    8  C   UNL     1     -40.673  53.424 -50.560  1.00  0.00     0.156 A 
HETATM    9  C   UNL     1     -39.919  52.144 -53.822  1.00  0.00     0.034 A 
HETATM   10  C   UNL     1     -40.260  53.170 -54.711  1.00  0.00     0.032 A 
ENDROOT
BRANCH   1  11
HETATM   11  N   UNL     1     -41.102  55.342 -55.265  1.00  0.00    -0.327 N 
HETATM   12  C   UNL     1     -42.344  55.669 -55.775  1.00  0.00     0.222 C 
HETATM   13  O   UNL     1     -43.414  55.153 -55.468  1.00  0.00    -0.273 OA
HETATM   14  H   UNL     1     -40.303  55.810 -55.671  1.00  0.00     0.169 HD
BRANCH  12  15
HETATM   15  C   UNL     1     -42.314  56.821 -56.770  1.00  0.00     0.107 C 
BRANCH  15  16
HETATM   16  C   UNL     1     -42.604  58.202 -56.183  1.00  0.00     0.036 C 
BRANCH  16  17
HETATM   17  C   UNL     1     -42.052  58.541 -54.825  1.00  0.00    -0.025 C 
HETATM   18  C   UNL     1     -42.715  58.578 -53.658  1.00  0.00     0.007 C 
BRANCH  18  19
HETATM   19  C   UNL     1     -42.085  58.938 -52.380  1.00  0.00    -0.036 A 
HETATM   20  C   UNL     1     -41.015  58.165 -51.912  1.00  0.00     0.011 A 
HETATM   21  C   UNL     1     -40.374  58.489 -50.713  1.00  0.00     0.001 A 
HETATM   22  C   UNL     1     -40.790  59.596 -49.977  1.00  0.00     0.000 A 
HETATM   23  C   UNL     1     -41.842  60.384 -50.441  1.00  0.00     0.001 A 
HETATM   24  C   UNL     1     -42.483  60.059 -51.640  1.00  0.00     0.011 A 
ENDBRANCH  18  19
ENDBRANCH  16  17
ENDBRANCH  15  16
ENDBRANCH  12  15
ENDBRANCH   1  11
BRANCH   8  25
HETATM   25  C   UNL     1     -41.109  54.402 -49.554  1.00  0.00     0.270 C 
HETATM   26  N   UNL     1     -40.586  54.191 -48.307  1.00  0.00    -0.365 N 
HETATM   27  H   UNL     1     -39.950  53.413 -48.173  1.00  0.00     0.159 HD
HETATM   28  H   UNL     1     -40.815  54.822 -47.556  1.00  0.00     0.159 HD
HETATM   29  O   UNL     1     -41.866  55.342 -49.772  1.00  0.00    -0.266 OA
ENDBRANCH   8  25
TORSDOF 6
ENDMDL
MODEL 7
REMARK VINA RESULT:      -7.4      1.992      2.806
REMARK  6 active torsions:
REMARK  status: ('A' for Active; 'I' for Inactive)
REMARK    1  A    between atoms: C_4  and  C_5 
REMARK    2  A    between atoms: C_6  and  C_7 
REMARK    3  A    between atoms: C_7  and  C_8 
REMARK    4  A    between atoms: C_8  and  C_9 
REMARK       I    between atoms: C_9  and  N_10 
REMARK    5  A    between atoms: N_10  and  C_11 
REMARK    6  A    between atoms: C_18  and  C_19 
REMARK       I    between atoms: C_19  and  N_20 
ROOT
HETATM    1  C   UNL     1     -42.529  57.044 -55.876  1.00  0.00     0.035 A 
HETATM    2  C   UNL     1     -42.656  57.874 -56.999  1.00  0.00     0.046 A 
HETATM    3  C   UNL     1     -42.919  57.300 -58.264  1.00  0.00     0.030 A 
HETATM    4  C   UNL     1     -43.030  55.919 -58.364  1.00  0.00     0.063 A 
HETATM    5  N   UNL     1     -43.268  55.668 -59.686  1.00  0.00    -0.277 N 
HETATM    6  H   UNL     1     -43.397  54.764 -60.125  1.00  0.00     0.189 HD
HETATM    7  N   UNL     1     -43.342  56.765 -60.456  1.00  0.00    -0.168 NA
HETATM    8  C   UNL     1     -43.132  57.784 -59.591  1.00  0.00     0.156 A 
HETATM    9  C   UNL     1     -42.907  55.063 -57.268  1.00  0.00     0.034 A 
HETATM   10  C   UNL     1     -42.663  55.656 -56.024  1.00  0.00     0.032 A 
ENDROOT
BRANCH   1  11
HETATM   11  N   UNL     1     -42.289  57.520 -54.568  1.00  0.00    -0.327 N 
HETATM   12  C   UNL     1     -43.178  57.565 -53.511  1.00  0.00     0.222 C 
HETATM   13  O   UNL     1     -44.355  57.221 -53.536  1.00  0.00    -0.273 OA
HETATM   14  H   UNL     1     -41.369  57.905 -54.408  1.00  0.00     0.169 HD
BRANCH  12  15
HETATM   15  C   UNL     1     -42.556  58.049 -52.208  1.00  0.00     0.107 C 
BRANCH  15  16
HETATM   16  C   UNL     1     -42.091  56.948 -51.255  1.00  0.00     0.036 C 
BRANCH  16  17
HETATM   17  C   UNL     1     -41.364  55.759 -51.823  1.00  0.00    -0.025 C 
HETATM   18  C   UNL     1     -41.834  54.510 -51.974  1.00  0.00     0.007 C 
BRANCH  18  19
HETATM   19  C   UNL     1     -41.035  53.407 -52.528  1.00  0.00    -0.036 A 
HETATM   20  C   UNL     1     -40.173  52.703 -51.678  1.00  0.00     0.011 A 
HETATM   21  C   UNL     1     -39.414  51.634 -52.162  1.00  0.00     0.001 A 
HETATM   22  C   UNL     1     -39.519  51.252 -53.498  1.00  0.00     0.000 A 
HETATM   23  C   UNL     1     -40.386  51.934 -54.349  1.00  0.00     0.001 A 
HETATM   24  C   UNL     1     -41.144  53.003 -53.865  1.00  0.00     0.011 A 
ENDBRANCH  18  19
ENDBRANCH  16  17
ENDBRANCH  15  16
ENDBRANCH  12  15
ENDBRANCH   1  11
BRANCH   8  25
HETATM   25  C   UNL     1     -43.150  59.180 -60.046  1.00  0.00     0.270 C 
HETATM   26  N   UNL     1     -41.956  59.832 -59.895  1.00  0.00    -0.365 N 
HETATM   27  H   UNL     1     -41.171  59.322 -59.507  1.00  0.00     0.159 HD
HETATM   28  H   UNL     1     -41.867  60.789 -60.196  1.00  0.00     0.159 HD
HETATM   29  O   UNL     1     -44.123  59.748 -60.530  1.00  0.00    -0.266 OA
ENDBRANCH   8  25
TORSDOF 6
ENDMDL
MODEL 8
REMARK VINA RESULT:      -7.4      1.895      3.225
REMARK  6 active torsions:
REMARK  status: ('A' for Active; 'I' for Inactive)
REMARK    1  A    between atoms: C_4  and  C_5 
REMARK    2  A    between atoms: C_6  and  C_7 
REMARK    3  A    between atoms: C_7  and  C_8 
REMARK    4  A    between atoms: C_8  and  C_9 
REMARK       I    between atoms: C_9  and  N_10 
REMARK    5  A    between atoms: N_10  and  C_11 
REMARK    6  A    between atoms: C_18  and  C_19 
REMARK       I    between atoms: C_19  and  N_20 
ROOT
HETATM    1  C   UNL     1     -42.250  58.137 -54.635  1.00  0.00     0.035 A 
HETATM    2  C   UNL     1     -42.483  57.412 -55.812  1.00  0.00     0.046 A 
HETATM    3  C   UNL     1     -42.448  58.077 -57.058  1.00  0.00     0.030 A 
HETATM    4  C   UNL     1     -42.199  59.443 -57.082  1.00  0.00     0.063 A 
HETATM    5  N   UNL     1     -42.239  59.797 -58.402  1.00  0.00    -0.277 N 
HETATM    6  H   UNL     1     -42.106  60.723 -58.793  1.00  0.00     0.189 HD
HETATM    7  N   UNL     1     -42.474  58.779 -59.244  1.00  0.00    -0.168 NA
HETATM    8  C   UNL     1     -42.603  57.707 -58.429  1.00  0.00     0.156 A 
HETATM    9  C   UNL     1     -41.965  60.196 -55.931  1.00  0.00     0.034 A 
HETATM   10  C   UNL     1     -41.988  59.511 -54.710  1.00  0.00     0.032 A 
ENDROOT
BRANCH   1  11
HETATM   11  N   UNL     1     -42.242  57.561 -53.345  1.00  0.00    -0.327 N 
HETATM   12  C   UNL     1     -43.210  57.674 -52.365  1.00  0.00     0.222 C 
HETATM   13  O   UNL     1     -44.244  58.329 -52.438  1.00  0.00    -0.273 OA
HETATM   14  H   UNL     1     -41.410  57.038 -53.108  1.00  0.00     0.169 HD
BRANCH  12  15
HETATM   15  C   UNL     1     -42.925  56.839 -51.124  1.00  0.00     0.107 C 
BRANCH  15  16
HETATM   16  C   UNL     1     -43.553  55.445 -51.113  1.00  0.00     0.036 C 
BRANCH  16  17
HETATM   17  C   UNL     1     -42.727  54.276 -51.578  1.00  0.00    -0.025 C 
HETATM   18  C   UNL     1     -41.577  54.312 -52.269  1.00  0.00     0.007 C 
BRANCH  18  19
HETATM   19  C   UNL     1     -40.850  53.106 -52.692  1.00  0.00    -0.036 A 
HETATM   20  C   UNL     1     -40.091  52.407 -51.745  1.00  0.00     0.011 A 
HETATM   21  C   UNL     1     -39.404  51.244 -52.103  1.00  0.00     0.001 A 
HETATM   22  C   UNL     1     -39.479  50.763 -53.408  1.00  0.00     0.000 A 
HETATM   23  C   UNL     1     -40.245  51.440 -54.355  1.00  0.00     0.001 A 
HETATM   24  C   UNL     1     -40.932  52.603 -53.997  1.00  0.00     0.011 A 
ENDBRANCH  18  19
ENDBRANCH  16  17
ENDBRANCH  15  16
ENDBRANCH  12  15
ENDBRANCH   1  11
BRANCH   8  25
HETATM   25  C   UNL     1     -42.856  56.367 -58.974  1.00  0.00     0.270 C 
HETATM   26  N   UNL     1     -43.692  55.601 -58.207  1.00  0.00    -0.365 N 
HETATM   27  H   UNL     1     -44.071  56.001 -57.357  1.00  0.00     0.159 HD
HETATM   28  H   UNL     1     -43.938  54.672 -58.511  1.00  0.00     0.159 HD
HETATM   29  O   UNL     1     -42.388  55.936 -60.023  1.00  0.00    -0.266 OA
ENDBRANCH   8  25
TORSDOF 6
ENDMDL
MODEL 9
REMARK VINA RESULT:      -7.3      3.211      5.383
REMARK  6 active torsions:
REMARK  status: ('A' for Active; 'I' for Inactive)
REMARK    1  A    between atoms: C_4  and  C_5 
REMARK    2  A    between atoms: C_6  and  C_7 
REMARK    3  A    between atoms: C_7  and  C_8 
REMARK    4  A    between atoms: C_8  and  C_9 
REMARK       I    between atoms: C_9  and  N_10 
REMARK    5  A    between atoms: N_10  and  C_11 
REMARK    6  A    between atoms: C_18  and  C_19 
REMARK       I    between atoms: C_19  and  N_20 
ROOT
HETATM    1  C   UNL     1     -42.134  57.531 -52.916  1.00  0.00     0.035 A 
HETATM    2  C   UNL     1     -43.308  57.975 -52.290  1.00  0.00     0.046 A 
HETATM    3  C   UNL     1     -43.272  59.135 -51.484  1.00  0.00     0.030 A 
HETATM    4  C   UNL     1     -42.063  59.799 -51.319  1.00  0.00     0.063 A 
HETATM    5  N   UNL     1     -42.337  60.854 -50.494  1.00  0.00    -0.277 N 
HETATM    6  H   UNL     1     -41.686  61.552 -50.154  1.00  0.00     0.189 HD
HETATM    7  N   UNL     1     -43.623  60.949 -50.121  1.00  0.00    -0.168 NA
HETATM    8  C   UNL     1     -44.215  59.894 -50.727  1.00  0.00     0.156 A 
HETATM    9  C   UNL     1     -40.876  59.384 -51.925  1.00  0.00     0.034 A 
HETATM   10  C   UNL     1     -40.941  58.242 -52.731  1.00  0.00     0.032 A 
ENDROOT
BRANCH   1  11
HETATM   11  N   UNL     1     -42.071  56.397 -53.757  1.00  0.00    -0.327 N 
HETATM   12  C   UNL     1     -42.114  56.369 -55.138  1.00  0.00     0.222 C 
HETATM   13  O   UNL     1     -42.246  57.337 -55.880  1.00  0.00    -0.273 OA
HETATM   14  H   UNL     1     -42.028  55.506 -53.282  1.00  0.00     0.169 HD
BRANCH  12  15
HETATM   15  C   UNL     1     -41.921  54.979 -55.728  1.00  0.00     0.107 C 
BRANCH  15  16
HETATM   16  C   UNL     1     -40.489  54.443 -55.686  1.00  0.00     0.036 C 
BRANCH  16  17
HETATM   17  C   UNL     1     -40.111  53.477 -54.596  1.00  0.00    -0.025 C 
HETATM   18  C   UNL     1     -40.736  52.336 -54.262  1.00  0.00     0.007 C 
BRANCH  18  19
HETATM   19  C   UNL     1     -40.294  51.465 -53.163  1.00  0.00    -0.036 A 
HETATM   20  C   UNL     1     -39.923  50.146 -53.454  1.00  0.00     0.011 A 
HETATM   21  C   UNL     1     -39.475  49.293 -52.442  1.00  0.00     0.001 A 
HETATM   22  C   UNL     1     -39.384  49.755 -51.130  1.00  0.00     0.000 A 
HETATM   23  C   UNL     1     -39.734  51.071 -50.831  1.00  0.00     0.001 A 
HETATM   24  C   UNL     1     -40.182  51.923 -51.844  1.00  0.00     0.011 A 
ENDBRANCH  18  19
ENDBRANCH  16  17
ENDBRANCH  15  16
ENDBRANCH  12  15
ENDBRANCH   1  11
BRANCH   8  25
HETATM   25  C   UNL     1     -45.656  59.647 -50.580  1.00  0.00     0.270 C 
HETATM   26  N   UNL     1     -46.409  60.089 -51.634  1.00  0.00    -0.365 N 
HETATM   27  H   UNL     1     -45.937  60.527 -52.416  1.00  0.00     0.159 HD
HETATM   28  H   UNL     1     -47.406  59.947 -51.630  1.00  0.00     0.159 HD
HETATM   29  O   UNL     1     -46.177  59.091 -49.619  1.00  0.00    -0.266 OA
ENDBRANCH   8  25
TORSDOF 6
ENDMDL
MODEL 10
REMARK VINA RESULT:      -7.3      3.450      7.557
REMARK  6 active torsions:
REMARK  status: ('A' for Active; 'I' for Inactive)
REMARK    1  A    between atoms: C_4  and  C_5 
REMARK    2  A    between atoms: C_6  and  C_7 
REMARK    3  A    between atoms: C_7  and  C_8 
REMARK    4  A    between atoms: C_8  and  C_9 
REMARK       I    between atoms: C_9  and  N_10 
REMARK    5  A    between atoms: N_10  and  C_11 
REMARK    6  A    between atoms: C_18  and  C_19 
REMARK       I    between atoms: C_19  and  N_20 
ROOT
HETATM    1  C   UNL     1     -40.932  54.387 -53.782  1.00  0.00     0.035 A 
HETATM    2  C   UNL     1     -40.563  53.041 -53.922  1.00  0.00     0.046 A 
HETATM    3  C   UNL     1     -40.244  52.283 -52.772  1.00  0.00     0.030 A 
HETATM    4  C   UNL     1     -40.289  52.900 -51.529  1.00  0.00     0.063 A 
HETATM    5  N   UNL     1     -39.925  51.936 -50.631  1.00  0.00    -0.277 N 
HETATM    6  H   UNL     1     -39.842  52.033 -49.626  1.00  0.00     0.189 HD
HETATM    7  N   UNL     1     -39.666  50.737 -51.176  1.00  0.00    -0.168 NA
HETATM    8  C   UNL     1     -39.862  50.934 -52.501  1.00  0.00     0.156 A 
HETATM    9  C   UNL     1     -40.649  54.237 -51.353  1.00  0.00     0.034 A 
HETATM   10  C   UNL     1     -40.976  54.962 -52.505  1.00  0.00     0.032 A 
ENDROOT
BRANCH   1  11
HETATM   11  N   UNL     1     -41.289  55.221 -54.864  1.00  0.00    -0.327 N 
HETATM   12  C   UNL     1     -42.506  55.280 -55.517  1.00  0.00     0.222 C 
HETATM   13  O   UNL     1     -43.489  54.584 -55.285  1.00  0.00    -0.273 OA
HETATM   14  H   UNL     1     -40.552  55.814 -55.218  1.00  0.00     0.169 HD
BRANCH  12  15
HETATM   15  C   UNL     1     -42.579  56.367 -56.580  1.00  0.00     0.107 C 
BRANCH  15  16
HETATM   16  C   UNL     1     -43.107  57.719 -56.099  1.00  0.00     0.036 C 
BRANCH  16  17
HETATM   17  C   UNL     1     -42.796  58.158 -54.694  1.00  0.00    -0.025 C 
HETATM   18  C   UNL     1     -41.668  58.735 -54.248  1.00  0.00     0.007 C 
BRANCH  18  19
HETATM   19  C   UNL     1     -41.454  59.114 -52.844  1.00  0.00    -0.036 A 
HETATM   20  C   UNL     1     -40.238  58.785 -52.233  1.00  0.00     0.011 A 
HETATM   21  C   UNL     1     -39.987  59.148 -50.907  1.00  0.00     0.001 A 
HETATM   22  C   UNL     1     -40.946  59.854 -50.184  1.00  0.00     0.000 A 
HETATM   23  C   UNL     1     -42.153  60.203 -50.787  1.00  0.00     0.001 A 
HETATM   24  C   UNL     1     -42.404  59.839 -52.112  1.00  0.00     0.011 A 
ENDBRANCH  18  19
ENDBRANCH  16  17
ENDBRANCH  15  16
ENDBRANCH  12  15
ENDBRANCH   1  11
BRANCH   8  25
HETATM   25  C   UNL     1     -39.691  49.838 -53.463  1.00  0.00     0.270 C 
HETATM   26  N   UNL     1     -40.612  49.836 -54.476  1.00  0.00    -0.365 N 
HETATM   27  H   UNL     1     -41.311  50.569 -54.496  1.00  0.00     0.159 HD
HETATM   28  H   UNL     1     -40.564  49.131 -55.194  1.00  0.00     0.159 HD
HETATM   29  O   UNL     1     -38.812  48.984 -53.406  1.00  0.00    -0.266 OA
ENDBRANCH   8  25
TORSDOF 6
ENDMDL
