MODEL 1
REMARK VINA RESULT:      -9.3      0.000      0.000
REMARK  6 active torsions:
REMARK  status: ('A' for Active; 'I' for Inactive)
REMARK    1  A    between atoms: C_5  and  N_6 
REMARK    2  A    between atoms: C_17  and  C_29 
REMARK    3  A    between atoms: C_17  and  N_18 
REMARK       I    between atoms: N_18  and  C_19 
REMARK    4  A    between atoms: C_19  and  C_20 
REMARK    5  A    between atoms: C_20  and  C_21 
REMARK    6  A    between atoms: C_21  and  C_22 
ROOT
HETATM    1  N   UNL     1     -44.199  59.902 -50.583  1.00  0.00    -0.248 N 
HETATM    2  C   UNL     1     -45.379  59.334 -51.121  1.00  0.00     0.335 A 
HETATM    3  O   UNL     1     -46.531  59.733 -50.952  1.00  0.00    -0.246 OA
HETATM    4  N   UNL     1     -45.199  58.256 -51.966  1.00  0.00    -0.274 N 
HETATM    5  C   UNL     1     -44.014  57.744 -52.407  1.00  0.00     0.262 A 
HETATM    6  O   UNL     1     -43.925  56.849 -53.235  1.00  0.00    -0.267 OA
HETATM    7  C   UNL     1     -42.847  58.339 -51.796  1.00  0.00     0.101 A 
HETATM    8  C   UNL     1     -42.983  59.345 -50.933  1.00  0.00     0.134 A 
HETATM    9  N   UNL     1     -41.754  59.651 -50.434  1.00  0.00    -0.309 N 
HETATM   10  C   UNL     1     -40.762  58.828 -50.959  1.00  0.00     0.266 A 
HETATM   11  O   UNL     1     -39.591  58.843 -50.616  1.00  0.00    -0.270 OA
HETATM   12  C   UNL     1     -41.426  57.915 -52.006  1.00  0.00     0.249 A 
HETATM   13  H   UNL     1     -46.043  57.880 -52.374  1.00  0.00     0.173 HD
HETATM   14  H   UNL     1     -41.576  60.274 -49.656  1.00  0.00     0.170 HD
ENDROOT
BRANCH  12  15
HETATM   15  C   UNL     1     -40.876  58.399 -53.354  1.00  0.00     0.426 C 
HETATM   16  F   UNL     1     -41.086  57.504 -54.350  1.00  0.00    -0.167 F 
HETATM   17  F   UNL     1     -41.422  59.574 -53.741  1.00  0.00    -0.167 F 
HETATM   18  F   UNL     1     -39.537  58.603 -53.289  1.00  0.00    -0.167 F 
ENDBRANCH  12  15
BRANCH  12  19
HETATM   19  N   UNL     1     -41.226  56.470 -51.767  1.00  0.00    -0.332 N 
HETATM   20  C   UNL     1     -41.355  55.904 -50.526  1.00  0.00     0.219 C 
HETATM   21  O   UNL     1     -41.567  56.582 -49.522  1.00  0.00    -0.274 OA
HETATM   22  H   UNL     1     -41.445  55.876 -52.562  1.00  0.00     0.164 HD
BRANCH  20  23
HETATM   23  C   UNL     1     -41.310  54.388 -50.442  1.00  0.00     0.107 C 
BRANCH  23  24
HETATM   24  C   UNL     1     -40.000  53.710 -50.855  1.00  0.00     0.047 C 
BRANCH  24  25
HETATM   25  C   UNL     1     -40.072  52.776 -52.044  1.00  0.00    -0.058 A 
HETATM   26  C   UNL     1     -40.680  53.217 -53.229  1.00  0.00     0.007 A 
HETATM   27  C   UNL     1     -40.754  52.383 -54.347  1.00  0.00     0.001 A 
HETATM   28  C   UNL     1     -40.215  51.101 -54.298  1.00  0.00     0.000 A 
HETATM   29  C   UNL     1     -39.592  50.657 -53.136  1.00  0.00     0.001 A 
HETATM   30  C   UNL     1     -39.509  51.493 -52.020  1.00  0.00     0.007 A 
ENDBRANCH  24  25
ENDBRANCH  23  24
ENDBRANCH  20  23
ENDBRANCH  12  19
BRANCH   1  31
HETATM   31  C   UNL     1     -44.318  61.073 -49.749  1.00  0.00     0.045 A 
HETATM   32  C   UNL     1     -44.766  60.979 -48.424  1.00  0.00     0.031 A 
HETATM   33  C   UNL     1     -44.895  62.116 -47.619  1.00  0.00     0.009 A 
HETATM   34  C   UNL     1     -44.593  63.382 -48.124  1.00  0.00    -0.062 A 
HETATM   35  C   UNL     1     -44.712  64.600 -47.256  1.00  0.00     0.048 C 
HETATM   36  C   UNL     1     -44.136  63.489 -49.439  1.00  0.00     0.009 A 
HETATM   37  C   UNL     1     -44.009  62.350 -50.244  1.00  0.00     0.031 A 
ENDBRANCH   1  31
TORSDOF 6
ENDMDL
MODEL 2
REMARK VINA RESULT:      -8.9      2.441      3.605
REMARK  6 active torsions:
REMARK  status: ('A' for Active; 'I' for Inactive)
REMARK    1  A    between atoms: C_5  and  N_6 
REMARK    2  A    between atoms: C_17  and  C_29 
REMARK    3  A    between atoms: C_17  and  N_18 
REMARK       I    between atoms: N_18  and  C_19 
REMARK    4  A    between atoms: C_19  and  C_20 
REMARK    5  A    between atoms: C_20  and  C_21 
REMARK    6  A    between atoms: C_21  and  C_22 
ROOT
HETATM    1  N   UNL     1     -43.452  59.728 -52.590  1.00  0.00    -0.248 N 
HETATM    2  C   UNL     1     -42.460  60.249 -53.456  1.00  0.00     0.335 A 
HETATM    3  O   UNL     1     -42.458  61.358 -53.988  1.00  0.00    -0.246 OA
HETATM    4  N   UNL     1     -41.361  59.441 -53.671  1.00  0.00    -0.274 N 
HETATM    5  C   UNL     1     -41.087  58.247 -53.070  1.00  0.00     0.262 A 
HETATM    6  O   UNL     1     -40.045  57.628 -53.230  1.00  0.00    -0.267 OA
HETATM    7  C   UNL     1     -42.150  57.749 -52.227  1.00  0.00     0.101 A 
HETATM    8  C   UNL     1     -43.251  58.475 -52.040  1.00  0.00     0.134 A 
HETATM    9  N   UNL     1     -44.126  57.744 -51.296  1.00  0.00    -0.309 N 
HETATM   10  C   UNL     1     -43.614  56.488 -50.981  1.00  0.00     0.266 A 
HETATM   11  O   UNL     1     -44.230  55.613 -50.393  1.00  0.00    -0.270 OA
HETATM   12  C   UNL     1     -42.175  56.426 -51.525  1.00  0.00     0.249 A 
HETATM   13  H   UNL     1     -40.642  59.835 -54.260  1.00  0.00     0.173 HD
HETATM   14  H   UNL     1     -45.094  57.986 -51.124  1.00  0.00     0.170 HD
ENDROOT
BRANCH  12  15
HETATM   15  C   UNL     1     -41.283  56.422 -50.277  1.00  0.00     0.426 C 
HETATM   16  F   UNL     1     -41.011  57.672 -49.831  1.00  0.00    -0.167 F 
HETATM   17  F   UNL     1     -41.836  55.735 -49.251  1.00  0.00    -0.167 F 
HETATM   18  F   UNL     1     -40.090  55.831 -50.533  1.00  0.00    -0.167 F 
ENDBRANCH  12  15
BRANCH  12  19
HETATM   19  N   UNL     1     -41.921  55.295 -52.441  1.00  0.00    -0.332 N 
HETATM   20  C   UNL     1     -42.733  55.013 -53.508  1.00  0.00     0.219 C 
HETATM   21  O   UNL     1     -43.771  55.640 -53.717  1.00  0.00    -0.274 OA
HETATM   22  H   UNL     1     -40.941  55.041 -52.537  1.00  0.00     0.164 HD
BRANCH  20  23
HETATM   23  C   UNL     1     -42.264  53.944 -54.479  1.00  0.00     0.107 C 
BRANCH  23  24
HETATM   24  C   UNL     1     -40.767  53.619 -54.482  1.00  0.00     0.047 C 
BRANCH  24  25
HETATM   25  C   UNL     1     -40.353  52.351 -53.766  1.00  0.00    -0.058 A 
HETATM   26  C   UNL     1     -40.330  51.138 -54.473  1.00  0.00     0.007 A 
HETATM   27  C   UNL     1     -39.944  49.953 -53.844  1.00  0.00     0.001 A 
HETATM   28  C   UNL     1     -39.569  49.964 -52.503  1.00  0.00     0.000 A 
HETATM   29  C   UNL     1     -39.568  51.162 -51.796  1.00  0.00     0.001 A 
HETATM   30  C   UNL     1     -39.945  52.350 -52.425  1.00  0.00     0.007 A 
ENDBRANCH  24  25
ENDBRANCH  23  24
ENDBRANCH  20  23
ENDBRANCH  12  19
BRANCH   1  31
HETATM   31  C   UNL     1     -44.591  60.554 -52.272  1.00  0.00     0.045 A 
HETATM   32  C   UNL     1     -44.607  61.359 -51.124  1.00  0.00     0.031 A 
HETATM   33  C   UNL     1     -45.716  62.151 -50.809  1.00  0.00     0.009 A 
HETATM   34  C   UNL     1     -46.848  62.146 -51.627  1.00  0.00    -0.062 A 
HETATM   35  C   UNL     1     -48.030  63.010 -51.300  1.00  0.00     0.048 C 
HETATM   36  C   UNL     1     -46.841  61.357 -52.779  1.00  0.00     0.009 A 
HETATM   37  C   UNL     1     -45.730  60.565 -53.092  1.00  0.00     0.031 A 
ENDBRANCH   1  31
TORSDOF 6
ENDMDL
MODEL 3
REMARK VINA RESULT:      -8.8      6.106      8.029
REMARK  6 active torsions:
REMARK  status: ('A' for Active; 'I' for Inactive)
REMARK    1  A    between atoms: C_5  and  N_6 
REMARK    2  A    between atoms: C_17  and  C_29 
REMARK    3  A    between atoms: C_17  and  N_18 
REMARK       I    between atoms: N_18  and  C_19 
REMARK    4  A    between atoms: C_19  and  C_20 
REMARK    5  A    between atoms: C_20  and  C_21 
REMARK    6  A    between atoms: C_21  and  C_22 
ROOT
HETATM    1  N   UNL     1     -42.841  60.418 -58.510  1.00  0.00    -0.248 N 
HETATM    2  C   UNL     1     -43.756  60.963 -57.576  1.00  0.00     0.335 A 
HETATM    3  O   UNL     1     -43.815  62.134 -57.204  1.00  0.00    -0.246 OA
HETATM    4  N   UNL     1     -44.707  60.092 -57.084  1.00  0.00    -0.274 N 
HETATM    5  C   UNL     1     -44.918  58.800 -57.467  1.00  0.00     0.262 A 
HETATM    6  O   UNL     1     -45.845  58.113 -57.063  1.00  0.00    -0.267 OA
HETATM    7  C   UNL     1     -43.934  58.288 -58.393  1.00  0.00     0.101 A 
HETATM    8  C   UNL     1     -42.966  59.083 -58.848  1.00  0.00     0.134 A 
HETATM    9  N   UNL     1     -42.124  58.338 -59.616  1.00  0.00    -0.309 N 
HETATM   10  C   UNL     1     -42.521  57.004 -59.675  1.00  0.00     0.266 A 
HETATM   11  O   UNL     1     -41.894  56.116 -60.230  1.00  0.00    -0.270 OA
HETATM   12  C   UNL     1     -43.850  56.884 -58.906  1.00  0.00     0.249 A 
HETATM   13  H   UNL     1     -45.378  60.498 -56.447  1.00  0.00     0.173 HD
HETATM   14  H   UNL     1     -41.227  58.645 -59.970  1.00  0.00     0.170 HD
ENDROOT
BRANCH  12  15
HETATM   15  C   UNL     1     -44.903  56.603 -59.986  1.00  0.00     0.426 C 
HETATM   16  F   UNL     1     -44.478  55.697 -60.900  1.00  0.00    -0.167 F 
HETATM   17  F   UNL     1     -46.063  56.143 -59.466  1.00  0.00    -0.167 F 
HETATM   18  F   UNL     1     -45.212  57.732 -60.670  1.00  0.00    -0.167 F 
ENDBRANCH  12  15
BRANCH  12  19
HETATM   19  N   UNL     1     -43.833  55.884 -57.818  1.00  0.00    -0.332 N 
HETATM   20  C   UNL     1     -42.936  55.935 -56.784  1.00  0.00     0.219 C 
HETATM   21  O   UNL     1     -42.038  56.774 -56.745  1.00  0.00    -0.274 OA
HETATM   22  H   UNL     1     -44.737  55.466 -57.615  1.00  0.00     0.164 HD
BRANCH  20  23
HETATM   23  C   UNL     1     -43.140  54.964 -55.634  1.00  0.00     0.107 C 
BRANCH  23  24
HETATM   24  C   UNL     1     -42.408  55.275 -54.325  1.00  0.00     0.047 C 
BRANCH  24  25
HETATM   25  C   UNL     1     -41.544  54.169 -53.758  1.00  0.00    -0.058 A 
HETATM   26  C   UNL     1     -41.040  53.181 -54.619  1.00  0.00     0.007 A 
HETATM   27  C   UNL     1     -40.232  52.152 -54.129  1.00  0.00     0.001 A 
HETATM   28  C   UNL     1     -39.912  52.100 -52.775  1.00  0.00     0.000 A 
HETATM   29  C   UNL     1     -40.389  53.084 -51.914  1.00  0.00     0.001 A 
HETATM   30  C   UNL     1     -41.190  54.118 -52.403  1.00  0.00     0.007 A 
ENDBRANCH  24  25
ENDBRANCH  23  24
ENDBRANCH  20  23
ENDBRANCH  12  19
BRANCH   1  31
HETATM   31  C   UNL     1     -41.867  61.295 -59.112  1.00  0.00     0.045 A 
HETATM   32  C   UNL     1     -42.001  61.728 -60.438  1.00  0.00     0.031 A 
HETATM   33  C   UNL     1     -41.050  62.569 -61.027  1.00  0.00     0.009 A 
HETATM   34  C   UNL     1     -39.928  62.986 -60.307  1.00  0.00    -0.062 A 
HETATM   35  C   UNL     1     -38.918  63.903 -60.930  1.00  0.00     0.048 C 
HETATM   36  C   UNL     1     -39.788  62.571 -58.981  1.00  0.00     0.009 A 
HETATM   37  C   UNL     1     -40.741  61.729 -58.394  1.00  0.00     0.031 A 
ENDBRANCH   1  31
TORSDOF 6
ENDMDL
MODEL 4
REMARK VINA RESULT:      -8.8      4.020      8.458
REMARK  6 active torsions:
REMARK  status: ('A' for Active; 'I' for Inactive)
REMARK    1  A    between atoms: C_5  and  N_6 
REMARK    2  A    between atoms: C_17  and  C_29 
REMARK    3  A    between atoms: C_17  and  N_18 
REMARK       I    between atoms: N_18  and  C_19 
REMARK    4  A    between atoms: C_19  and  C_20 
REMARK    5  A    between atoms: C_20  and  C_21 
REMARK    6  A    between atoms: C_21  and  C_22 
ROOT
HETATM    1  N   UNL     1     -42.558  55.674 -53.870  1.00  0.00    -0.248 N 
HETATM    2  C   UNL     1     -43.900  55.464 -54.273  1.00  0.00     0.335 A 
HETATM    3  O   UNL     1     -44.436  54.381 -54.507  1.00  0.00    -0.246 OA
HETATM    4  N   UNL     1     -44.691  56.593 -54.352  1.00  0.00    -0.274 N 
HETATM    5  C   UNL     1     -44.349  57.865 -53.997  1.00  0.00     0.262 A 
HETATM    6  O   UNL     1     -45.130  58.805 -53.997  1.00  0.00    -0.267 OA
HETATM    7  C   UNL     1     -42.960  58.025 -53.630  1.00  0.00     0.101 A 
HETATM    8  C   UNL     1     -42.150  56.967 -53.596  1.00  0.00     0.134 A 
HETATM    9  N   UNL     1     -40.889  57.400 -53.323  1.00  0.00    -0.309 N 
HETATM   10  C   UNL     1     -40.836  58.784 -53.180  1.00  0.00     0.266 A 
HETATM   11  O   UNL     1     -39.813  59.428 -53.012  1.00  0.00    -0.270 OA
HETATM   12  C   UNL     1     -42.277  59.315 -53.295  1.00  0.00     0.249 A 
HETATM   13  H   UNL     1     -45.655  56.430 -54.604  1.00  0.00     0.173 HD
HETATM   14  H   UNL     1     -40.051  56.836 -53.379  1.00  0.00     0.170 HD
ENDROOT
BRANCH  12  15
HETATM   15  C   UNL     1     -42.630  59.801 -51.883  1.00  0.00     0.426 C 
HETATM   16  F   UNL     1     -43.031  58.791 -51.073  1.00  0.00    -0.167 F 
HETATM   17  F   UNL     1     -41.591  60.421 -51.278  1.00  0.00    -0.167 F 
HETATM   18  F   UNL     1     -43.644  60.701 -51.917  1.00  0.00    -0.167 F 
ENDBRANCH  12  15
BRANCH  12  19
HETATM   19  N   UNL     1     -42.464  60.342 -54.341  1.00  0.00    -0.332 N 
HETATM   20  C   UNL     1     -42.142  60.123 -55.655  1.00  0.00     0.219 C 
HETATM   21  O   UNL     1     -41.601  59.083 -56.025  1.00  0.00    -0.274 OA
HETATM   22  H   UNL     1     -43.223  60.993 -54.162  1.00  0.00     0.164 HD
BRANCH  20  23
HETATM   23  C   UNL     1     -42.553  61.184 -56.660  1.00  0.00     0.107 C 
BRANCH  23  24
HETATM   24  C   UNL     1     -42.551  60.778 -58.137  1.00  0.00     0.047 C 
BRANCH  24  25
HETATM   25  C   UNL     1     -41.607  61.540 -59.042  1.00  0.00    -0.058 A 
HETATM   26  C   UNL     1     -40.508  62.211 -58.482  1.00  0.00     0.007 A 
HETATM   27  C   UNL     1     -39.614  62.915 -59.291  1.00  0.00     0.001 A 
HETATM   28  C   UNL     1     -39.800  62.952 -60.670  1.00  0.00     0.000 A 
HETATM   29  C   UNL     1     -40.873  62.275 -61.241  1.00  0.00     0.001 A 
HETATM   30  C   UNL     1     -41.764  61.563 -60.435  1.00  0.00     0.007 A 
ENDBRANCH  24  25
ENDBRANCH  23  24
ENDBRANCH  20  23
ENDBRANCH  12  19
BRANCH   1  31
HETATM   31  C   UNL     1     -41.703  54.525 -53.701  1.00  0.00     0.045 A 
HETATM   32  C   UNL     1     -41.047  53.942 -54.795  1.00  0.00     0.031 A 
HETATM   33  C   UNL     1     -40.227  52.819 -54.634  1.00  0.00     0.009 A 
HETATM   34  C   UNL     1     -40.054  52.240 -53.376  1.00  0.00    -0.062 A 
HETATM   35  C   UNL     1     -39.159  51.049 -53.199  1.00  0.00     0.048 C 
HETATM   36  C   UNL     1     -40.692  52.818 -52.277  1.00  0.00     0.009 A 
HETATM   37  C   UNL     1     -41.513  53.941 -52.439  1.00  0.00     0.031 A 
ENDBRANCH   1  31
TORSDOF 6
ENDMDL
MODEL 5
REMARK VINA RESULT:      -8.6      3.663      7.709
REMARK  6 active torsions:
REMARK  status: ('A' for Active; 'I' for Inactive)
REMARK    1  A    between atoms: C_5  and  N_6 
REMARK    2  A    between atoms: C_17  and  C_29 
REMARK    3  A    between atoms: C_17  and  N_18 
REMARK       I    between atoms: N_18  and  C_19 
REMARK    4  A    between atoms: C_19  and  C_20 
REMARK    5  A    between atoms: C_20  and  C_21 
REMARK    6  A    between atoms: C_21  and  C_22 
ROOT
HETATM    1  N   UNL     1     -42.606  55.632 -53.879  1.00  0.00    -0.248 N 
HETATM    2  C   UNL     1     -43.932  55.383 -54.311  1.00  0.00     0.335 A 
HETATM    3  O   UNL     1     -44.438  54.283 -54.531  1.00  0.00    -0.246 OA
HETATM    4  N   UNL     1     -44.744  56.492 -54.440  1.00  0.00    -0.274 N 
HETATM    5  C   UNL     1     -44.438  57.780 -54.110  1.00  0.00     0.262 A 
HETATM    6  O   UNL     1     -45.238  58.703 -54.154  1.00  0.00    -0.267 OA
HETATM    7  C   UNL     1     -43.063  57.979 -53.711  1.00  0.00     0.101 A 
HETATM    8  C   UNL     1     -42.232  56.940 -53.629  1.00  0.00     0.134 A 
HETATM    9  N   UNL     1     -40.988  57.407 -53.334  1.00  0.00    -0.309 N 
HETATM   10  C   UNL     1     -40.968  58.795 -53.226  1.00  0.00     0.266 A 
HETATM   11  O   UNL     1     -39.963  59.465 -53.049  1.00  0.00    -0.270 OA
HETATM   12  C   UNL     1     -42.416  59.292 -53.392  1.00  0.00     0.249 A 
HETATM   13  H   UNL     1     -45.697  56.302 -54.713  1.00  0.00     0.173 HD
HETATM   14  H   UNL     1     -40.137  56.860 -53.354  1.00  0.00     0.170 HD
ENDROOT
BRANCH  12  15
HETATM   15  C   UNL     1     -42.816  59.806 -52.003  1.00  0.00     0.426 C 
HETATM   16  F   UNL     1     -44.075  60.307 -51.979  1.00  0.00    -0.167 F 
HETATM   17  F   UNL     1     -42.743  58.843 -51.057  1.00  0.00    -0.167 F 
HETATM   18  F   UNL     1     -41.992  60.803 -51.597  1.00  0.00    -0.167 F 
ENDBRANCH  12  15
BRANCH  12  19
HETATM   19  N   UNL     1     -42.597  60.287 -54.469  1.00  0.00    -0.332 N 
HETATM   20  C   UNL     1     -42.158  60.076 -55.750  1.00  0.00     0.219 C 
HETATM   21  O   UNL     1     -41.513  59.075 -56.058  1.00  0.00    -0.274 OA
HETATM   22  H   UNL     1     -43.414  60.882 -54.362  1.00  0.00     0.164 HD
BRANCH  20  23
HETATM   23  C   UNL     1     -42.567  61.090 -56.804  1.00  0.00     0.107 C 
BRANCH  23  24
HETATM   24  C   UNL     1     -43.623  60.644 -57.821  1.00  0.00     0.047 C 
BRANCH  24  25
HETATM   25  C   UNL     1     -43.305  59.395 -58.615  1.00  0.00    -0.058 A 
HETATM   26  C   UNL     1     -42.252  59.418 -59.542  1.00  0.00     0.007 A 
HETATM   27  C   UNL     1     -41.928  58.280 -60.284  1.00  0.00     0.001 A 
HETATM   28  C   UNL     1     -42.646  57.101 -60.103  1.00  0.00     0.000 A 
HETATM   29  C   UNL     1     -43.680  57.058 -59.173  1.00  0.00     0.001 A 
HETATM   30  C   UNL     1     -44.001  58.192 -58.425  1.00  0.00     0.007 A 
ENDBRANCH  24  25
ENDBRANCH  23  24
ENDBRANCH  20  23
ENDBRANCH  12  19
BRANCH   1  31
HETATM   31  C   UNL     1     -41.731  54.507 -53.659  1.00  0.00     0.045 A 
HETATM   32  C   UNL     1     -41.069  53.882 -54.726  1.00  0.00     0.031 A 
HETATM   33  C   UNL     1     -40.231  52.782 -54.514  1.00  0.00     0.009 A 
HETATM   34  C   UNL     1     -40.044  52.267 -53.230  1.00  0.00    -0.062 A 
HETATM   35  C   UNL     1     -39.130  51.100 -53.000  1.00  0.00     0.048 C 
HETATM   36  C   UNL     1     -40.689  52.887 -52.158  1.00  0.00     0.009 A 
HETATM   37  C   UNL     1     -41.529  53.987 -52.371  1.00  0.00     0.031 A 
ENDBRANCH   1  31
TORSDOF 6
ENDMDL
MODEL 6
REMARK VINA RESULT:      -8.6      2.198      8.353
REMARK  6 active torsions:
REMARK  status: ('A' for Active; 'I' for Inactive)
REMARK    1  A    between atoms: C_5  and  N_6 
REMARK    2  A    between atoms: C_17  and  C_29 
REMARK    3  A    between atoms: C_17  and  N_18 
REMARK       I    between atoms: N_18  and  C_19 
REMARK    4  A    between atoms: C_19  and  C_20 
REMARK    5  A    between atoms: C_20  and  C_21 
REMARK    6  A    between atoms: C_21  and  C_22 
ROOT
HETATM    1  N   UNL     1     -42.381  55.085 -52.134  1.00  0.00    -0.248 N 
HETATM    2  C   UNL     1     -43.633  54.813 -51.531  1.00  0.00     0.335 A 
HETATM    3  O   UNL     1     -44.129  53.703 -51.334  1.00  0.00    -0.246 OA
HETATM    4  N   UNL     1     -44.333  55.910 -51.070  1.00  0.00    -0.274 N 
HETATM    5  C   UNL     1     -43.911  57.207 -51.048  1.00  0.00     0.262 A 
HETATM    6  O   UNL     1     -44.540  58.120 -50.533  1.00  0.00    -0.267 OA
HETATM    7  C   UNL     1     -42.645  57.429 -51.710  1.00  0.00     0.101 A 
HETATM    8  C   UNL     1     -41.966  56.401 -52.218  1.00  0.00     0.134 A 
HETATM    9  N   UNL     1     -40.871  56.888 -52.866  1.00  0.00    -0.309 N 
HETATM   10  C   UNL     1     -40.812  58.277 -52.809  1.00  0.00     0.266 A 
HETATM   11  O   UNL     1     -39.976  58.962 -53.377  1.00  0.00    -0.270 OA
HETATM   12  C   UNL     1     -41.985  58.754 -51.932  1.00  0.00     0.249 A 
HETATM   13  H   UNL     1     -45.207  55.704 -50.608  1.00  0.00     0.173 HD
HETATM   14  H   UNL     1     -40.258  56.350 -53.464  1.00  0.00     0.170 HD
ENDROOT
BRANCH  12  15
HETATM   15  C   UNL     1     -41.326  59.289 -50.654  1.00  0.00     0.426 C 
HETATM   16  F   UNL     1     -41.011  58.301 -49.782  1.00  0.00    -0.167 F 
HETATM   17  F   UNL     1     -40.194  59.984 -50.909  1.00  0.00    -0.167 F 
HETATM   18  F   UNL     1     -42.155  60.139 -49.997  1.00  0.00    -0.167 F 
ENDBRANCH  12  15
BRANCH  12  19
HETATM   19  N   UNL     1     -42.879  59.728 -52.592  1.00  0.00    -0.332 N 
HETATM   20  C   UNL     1     -43.430  59.504 -53.826  1.00  0.00     0.219 C 
HETATM   21  O   UNL     1     -43.146  58.511 -54.493  1.00  0.00    -0.274 OA
HETATM   22  H   UNL     1     -43.416  60.308 -51.954  1.00  0.00     0.164 HD
BRANCH  20  23
HETATM   23  C   UNL     1     -44.476  60.492 -54.313  1.00  0.00     0.107 C 
BRANCH  23  24
HETATM   24  C   UNL     1     -45.775  60.581 -53.505  1.00  0.00     0.047 C 
BRANCH  24  25
HETATM   25  C   UNL     1     -45.786  61.569 -52.358  1.00  0.00    -0.058 A 
HETATM   26  C   UNL     1     -46.201  61.143 -51.087  1.00  0.00     0.007 A 
HETATM   27  C   UNL     1     -46.215  62.028 -50.006  1.00  0.00     0.001 A 
HETATM   28  C   UNL     1     -45.805  63.347 -50.179  1.00  0.00     0.000 A 
HETATM   29  C   UNL     1     -45.372  63.778 -51.429  1.00  0.00     0.001 A 
HETATM   30  C   UNL     1     -45.350  62.893 -52.509  1.00  0.00     0.007 A 
ENDBRANCH  24  25
ENDBRANCH  23  24
ENDBRANCH  20  23
ENDBRANCH  12  19
BRANCH   1  31
HETATM   31  C   UNL     1     -41.573  53.974 -52.573  1.00  0.00     0.045 A 
HETATM   32  C   UNL     1     -41.679  53.469 -53.876  1.00  0.00     0.031 A 
HETATM   33  C   UNL     1     -40.905  52.382 -54.298  1.00  0.00     0.009 A 
HETATM   34  C   UNL     1     -40.013  51.761 -53.421  1.00  0.00    -0.062 A 
HETATM   35  C   UNL     1     -39.168  50.609 -53.878  1.00  0.00     0.048 C 
HETATM   36  C   UNL     1     -39.890  52.262 -52.123  1.00  0.00     0.009 A 
HETATM   37  C   UNL     1     -40.667  53.348 -51.702  1.00  0.00     0.031 A 
ENDBRANCH   1  31
TORSDOF 6
ENDMDL
MODEL 7
REMARK VINA RESULT:      -8.6      3.644      5.708
REMARK  6 active torsions:
REMARK  status: ('A' for Active; 'I' for Inactive)
REMARK    1  A    between atoms: C_5  and  N_6 
REMARK    2  A    between atoms: C_17  and  C_29 
REMARK    3  A    between atoms: C_17  and  N_18 
REMARK       I    between atoms: N_18  and  C_19 
REMARK    4  A    between atoms: C_19  and  C_20 
REMARK    5  A    between atoms: C_20  and  C_21 
REMARK    6  A    between atoms: C_21  and  C_22 
ROOT
HETATM    1  N   UNL     1     -43.886  57.544 -56.451  1.00  0.00    -0.248 N 
HETATM    2  C   UNL     1     -43.176  56.559 -57.181  1.00  0.00     0.335 A 
HETATM    3  O   UNL     1     -43.395  56.202 -58.338  1.00  0.00    -0.246 OA
HETATM    4  N   UNL     1     -42.095  55.992 -56.536  1.00  0.00    -0.274 N 
HETATM    5  C   UNL     1     -41.585  56.341 -55.320  1.00  0.00     0.262 A 
HETATM    6  O   UNL     1     -40.562  55.866 -54.848  1.00  0.00    -0.267 OA
HETATM    7  C   UNL     1     -42.371  57.323 -54.607  1.00  0.00     0.101 A 
HETATM    8  C   UNL     1     -43.454  57.853 -55.174  1.00  0.00     0.134 A 
HETATM    9  N   UNL     1     -44.062  58.664 -54.265  1.00  0.00    -0.309 N 
HETATM   10  C   UNL     1     -43.385  58.676 -53.049  1.00  0.00     0.266 A 
HETATM   11  O   UNL     1     -43.766  59.258 -52.046  1.00  0.00    -0.270 OA
HETATM   12  C   UNL     1     -42.117  57.819 -53.217  1.00  0.00     0.249 A 
HETATM   13  H   UNL     1     -41.572  55.318 -57.077  1.00  0.00     0.173 HD
HETATM   14  H   UNL     1     -44.978  59.081 -54.372  1.00  0.00     0.170 HD
ENDROOT
BRANCH  12  15
HETATM   15  C   UNL     1     -40.957  58.822 -53.170  1.00  0.00     0.426 C 
HETATM   16  F   UNL     1     -39.754  58.233 -53.380  1.00  0.00    -0.167 F 
HETATM   17  F   UNL     1     -41.092  59.810 -54.083  1.00  0.00    -0.167 F 
HETATM   18  F   UNL     1     -40.887  59.429 -51.959  1.00  0.00    -0.167 F 
ENDBRANCH  12  15
BRANCH  12  19
HETATM   19  N   UNL     1     -41.992  56.720 -52.238  1.00  0.00    -0.332 N 
HETATM   20  C   UNL     1     -42.940  55.739 -52.106  1.00  0.00     0.219 C 
HETATM   21  O   UNL     1     -43.992  55.764 -52.743  1.00  0.00    -0.274 OA
HETATM   22  H   UNL     1     -41.035  56.459 -52.015  1.00  0.00     0.164 HD
BRANCH  20  23
HETATM   23  C   UNL     1     -42.609  54.566 -51.200  1.00  0.00     0.107 C 
BRANCH  23  24
HETATM   24  C   UNL     1     -41.133  54.174 -51.084  1.00  0.00     0.047 C 
BRANCH  24  25
HETATM   25  C   UNL     1     -40.656  53.072 -52.006  1.00  0.00    -0.058 A 
HETATM   26  C   UNL     1     -39.859  52.039 -51.487  1.00  0.00     0.007 A 
HETATM   27  C   UNL     1     -39.411  51.002 -52.309  1.00  0.00     0.001 A 
HETATM   28  C   UNL     1     -39.759  50.980 -53.657  1.00  0.00     0.000 A 
HETATM   29  C   UNL     1     -40.564  51.987 -54.180  1.00  0.00     0.001 A 
HETATM   30  C   UNL     1     -41.021  53.020 -53.358  1.00  0.00     0.007 A 
ENDBRANCH  24  25
ENDBRANCH  23  24
ENDBRANCH  20  23
ENDBRANCH  12  19
BRANCH   1  31
HETATM   31  C   UNL     1     -44.982  58.222 -57.098  1.00  0.00     0.045 A 
HETATM   32  C   UNL     1     -46.291  57.726 -57.018  1.00  0.00     0.031 A 
HETATM   33  C   UNL     1     -47.353  58.376 -57.657  1.00  0.00     0.009 A 
HETATM   34  C   UNL     1     -47.131  59.533 -58.406  1.00  0.00    -0.062 A 
HETATM   35  C   UNL     1     -48.272  60.242 -59.075  1.00  0.00     0.048 C 
HETATM   36  C   UNL     1     -45.833  60.043 -58.485  1.00  0.00     0.009 A 
HETATM   37  C   UNL     1     -44.772  59.391 -57.846  1.00  0.00     0.031 A 
ENDBRANCH   1  31
TORSDOF 6
ENDMDL
MODEL 8
REMARK VINA RESULT:      -8.3      3.238      5.301
REMARK  6 active torsions:
REMARK  status: ('A' for Active; 'I' for Inactive)
REMARK    1  A    between atoms: C_5  and  N_6 
REMARK    2  A    between atoms: C_17  and  C_29 
REMARK    3  A    between atoms: C_17  and  N_18 
REMARK       I    between atoms: N_18  and  C_19 
REMARK    4  A    between atoms: C_19  and  C_20 
REMARK    5  A    between atoms: C_20  and  C_21 
REMARK    6  A    between atoms: C_21  and  C_22 
ROOT
HETATM    1  N   UNL     1     -43.764  58.982 -54.996  1.00  0.00    -0.248 N 
HETATM    2  C   UNL     1     -42.472  58.844 -55.559  1.00  0.00     0.335 A 
HETATM    3  O   UNL     1     -42.178  58.922 -56.752  1.00  0.00    -0.246 OA
HETATM    4  N   UNL     1     -41.439  58.661 -54.662  1.00  0.00    -0.274 N 
HETATM    5  C   UNL     1     -41.515  58.692 -53.301  1.00  0.00     0.262 A 
HETATM    6  O   UNL     1     -40.543  58.622 -52.563  1.00  0.00    -0.267 OA
HETATM    7  C   UNL     1     -42.860  58.798 -52.784  1.00  0.00     0.101 A 
HETATM    8  C   UNL     1     -43.891  58.919 -53.620  1.00  0.00     0.134 A 
HETATM    9  N   UNL     1     -45.041  58.899 -52.891  1.00  0.00    -0.309 N 
HETATM   10  C   UNL     1     -44.788  58.747 -51.531  1.00  0.00     0.266 A 
HETATM   11  O   UNL     1     -45.647  58.619 -50.674  1.00  0.00    -0.270 OA
HETATM   12  C   UNL     1     -43.259  58.753 -51.342  1.00  0.00     0.249 A 
HETATM   13  H   UNL     1     -40.517  58.600 -55.070  1.00  0.00     0.173 HD
HETATM   14  H   UNL     1     -45.975  58.829 -53.273  1.00  0.00     0.170 HD
ENDROOT
BRANCH  12  15
HETATM   15  C   UNL     1     -42.958  60.073 -50.621  1.00  0.00     0.426 C 
HETATM   16  F   UNL     1     -42.764  61.100 -51.484  1.00  0.00    -0.167 F 
HETATM   17  F   UNL     1     -43.948  60.435 -49.774  1.00  0.00    -0.167 F 
HETATM   18  F   UNL     1     -41.832  59.974 -49.872  1.00  0.00    -0.167 F 
ENDBRANCH  12  15
BRANCH  12  19
HETATM   19  N   UNL     1     -42.730  57.561 -50.645  1.00  0.00    -0.332 N 
HETATM   20  C   UNL     1     -43.003  56.284 -51.058  1.00  0.00     0.219 C 
HETATM   21  O   UNL     1     -43.775  56.054 -51.988  1.00  0.00    -0.274 OA
HETATM   22  H   UNL     1     -41.839  57.707 -50.178  1.00  0.00     0.164 HD
BRANCH  20  23
HETATM   23  C   UNL     1     -42.251  55.154 -50.376  1.00  0.00     0.107 C 
BRANCH  23  24
HETATM   24  C   UNL     1     -40.795  54.937 -50.797  1.00  0.00     0.047 C 
BRANCH  24  25
HETATM   25  C   UNL     1     -40.542  53.828 -51.796  1.00  0.00    -0.058 A 
HETATM   26  C   UNL     1     -40.977  53.983 -53.121  1.00  0.00     0.007 A 
HETATM   27  C   UNL     1     -40.751  52.982 -54.069  1.00  0.00     0.001 A 
HETATM   28  C   UNL     1     -40.082  51.816 -53.706  1.00  0.00     0.000 A 
HETATM   29  C   UNL     1     -39.629  51.657 -52.401  1.00  0.00     0.001 A 
HETATM   30  C   UNL     1     -39.845  52.660 -51.454  1.00  0.00     0.007 A 
ENDBRANCH  24  25
ENDBRANCH  23  24
ENDBRANCH  20  23
ENDBRANCH  12  19
BRANCH   1  31
HETATM   31  C   UNL     1     -44.875  59.244 -55.878  1.00  0.00     0.045 A 
HETATM   32  C   UNL     1     -45.293  60.555 -56.149  1.00  0.00     0.031 A 
HETATM   33  C   UNL     1     -46.379  60.810 -56.994  1.00  0.00     0.009 A 
HETATM   34  C   UNL     1     -47.086  59.758 -57.579  1.00  0.00    -0.062 A 
HETATM   35  C   UNL     1     -48.238  60.031 -58.501  1.00  0.00     0.048 C 
HETATM   36  C   UNL     1     -46.673  58.448 -57.327  1.00  0.00     0.009 A 
HETATM   37  C   UNL     1     -45.587  58.195 -56.480  1.00  0.00     0.031 A 
ENDBRANCH   1  31
TORSDOF 6
ENDMDL
MODEL 9
REMARK VINA RESULT:      -8.1      6.138      9.987
REMARK  6 active torsions:
REMARK  status: ('A' for Active; 'I' for Inactive)
REMARK    1  A    between atoms: C_5  and  N_6 
REMARK    2  A    between atoms: C_17  and  C_29 
REMARK    3  A    between atoms: C_17  and  N_18 
REMARK       I    between atoms: N_18  and  C_19 
REMARK    4  A    between atoms: C_19  and  C_20 
REMARK    5  A    between atoms: C_20  and  C_21 
REMARK    6  A    between atoms: C_21  and  C_22 
ROOT
HETATM    1  N   UNL     1     -43.056  56.351 -55.815  1.00  0.00    -0.248 N 
HETATM    2  C   UNL     1     -43.875  57.069 -54.909  1.00  0.00     0.335 A 
HETATM    3  O   UNL     1     -44.003  56.852 -53.705  1.00  0.00    -0.246 OA
HETATM    4  N   UNL     1     -44.548  58.154 -55.434  1.00  0.00    -0.274 N 
HETATM    5  C   UNL     1     -44.437  58.661 -56.695  1.00  0.00     0.262 A 
HETATM    6  O   UNL     1     -44.987  59.688 -57.067  1.00  0.00    -0.267 OA
HETATM    7  C   UNL     1     -43.618  57.868 -57.583  1.00  0.00     0.101 A 
HETATM    8  C   UNL     1     -42.997  56.781 -57.128  1.00  0.00     0.134 A 
HETATM    9  N   UNL     1     -42.382  56.167 -58.177  1.00  0.00    -0.309 N 
HETATM   10  C   UNL     1     -42.600  56.844 -59.373  1.00  0.00     0.266 A 
HETATM   11  O   UNL     1     -42.226  56.459 -60.469  1.00  0.00    -0.270 OA
HETATM   12  C   UNL     1     -43.398  58.119 -59.043  1.00  0.00     0.249 A 
HETATM   13  H   UNL     1     -45.100  58.681 -54.773  1.00  0.00     0.173 HD
HETATM   14  H   UNL     1     -41.959  55.248 -58.152  1.00  0.00     0.170 HD
ENDROOT
BRANCH  12  15
HETATM   15  C   UNL     1     -42.415  59.271 -59.285  1.00  0.00     0.426 C 
HETATM   16  F   UNL     1     -43.010  60.486 -59.201  1.00  0.00    -0.167 F 
HETATM   17  F   UNL     1     -41.384  59.261 -58.410  1.00  0.00    -0.167 F 
HETATM   18  F   UNL     1     -41.865  59.191 -60.523  1.00  0.00    -0.167 F 
ENDBRANCH  12  15
BRANCH  12  19
HETATM   19  N   UNL     1     -44.666  58.253 -59.791  1.00  0.00    -0.332 N 
HETATM   20  C   UNL     1     -45.554  57.219 -59.926  1.00  0.00     0.219 C 
HETATM   21  O   UNL     1     -45.308  56.092 -59.499  1.00  0.00    -0.274 OA
HETATM   22  H   UNL     1     -45.057  59.191 -59.795  1.00  0.00     0.164 HD
BRANCH  20  23
HETATM   23  C   UNL     1     -46.901  57.533 -60.555  1.00  0.00     0.107 C 
BRANCH  23  24
HETATM   24  C   UNL     1     -47.163  58.993 -60.939  1.00  0.00     0.047 C 
BRANCH  24  25
HETATM   25  C   UNL     1     -48.148  59.749 -60.074  1.00  0.00    -0.058 A 
HETATM   26  C   UNL     1     -49.248  60.381 -60.675  1.00  0.00     0.007 A 
HETATM   27  C   UNL     1     -50.179  61.079 -59.904  1.00  0.00     0.001 A 
HETATM   28  C   UNL     1     -50.029  61.149 -58.521  1.00  0.00     0.000 A 
HETATM   29  C   UNL     1     -48.955  60.511 -57.910  1.00  0.00     0.001 A 
HETATM   30  C   UNL     1     -48.027  59.805 -58.678  1.00  0.00     0.007 A 
ENDBRANCH  24  25
ENDBRANCH  23  24
ENDBRANCH  20  23
ENDBRANCH  12  19
BRANCH   1  31
HETATM   31  C   UNL     1     -42.274  55.249 -55.311  1.00  0.00     0.045 A 
HETATM   32  C   UNL     1     -40.903  55.391 -55.049  1.00  0.00     0.031 A 
HETATM   33  C   UNL     1     -40.141  54.318 -54.573  1.00  0.00     0.009 A 
HETATM   34  C   UNL     1     -40.728  53.069 -54.360  1.00  0.00    -0.062 A 
HETATM   35  C   UNL     1     -39.916  51.924 -53.830  1.00  0.00     0.048 C 
HETATM   36  C   UNL     1     -42.094  52.918 -54.606  1.00  0.00     0.009 A 
HETATM   37  C   UNL     1     -42.855  53.992 -55.083  1.00  0.00     0.031 A 
ENDBRANCH   1  31
TORSDOF 6
ENDMDL
MODEL 10
REMARK VINA RESULT:      -8.1     18.569     20.902
REMARK  6 active torsions:
REMARK  status: ('A' for Active; 'I' for Inactive)
REMARK    1  A    between atoms: C_5  and  N_6 
REMARK    2  A    between atoms: C_17  and  C_29 
REMARK    3  A    between atoms: C_17  and  N_18 
REMARK       I    between atoms: N_18  and  C_19 
REMARK    4  A    between atoms: C_19  and  C_20 
REMARK    5  A    between atoms: C_20  and  C_21 
REMARK    6  A    between atoms: C_21  and  C_22 
ROOT
HETATM    1  N   UNL     1     -33.803  40.144 -52.094  1.00  0.00    -0.248 N 
HETATM    2  C   UNL     1     -34.516  41.364 -52.198  1.00  0.00     0.335 A 
HETATM    3  O   UNL     1     -34.824  42.116 -51.274  1.00  0.00    -0.246 OA
HETATM    4  N   UNL     1     -34.842  41.766 -53.478  1.00  0.00    -0.274 N 
HETATM    5  C   UNL     1     -34.473  41.169 -54.648  1.00  0.00     0.262 A 
HETATM    6  O   UNL     1     -34.711  41.633 -55.754  1.00  0.00    -0.267 OA
HETATM    7  C   UNL     1     -33.781  39.911 -54.480  1.00  0.00     0.101 A 
HETATM    8  C   UNL     1     -33.498  39.461 -53.257  1.00  0.00     0.134 A 
HETATM    9  N   UNL     1     -32.941  38.224 -53.373  1.00  0.00    -0.309 N 
HETATM   10  C   UNL     1     -32.856  37.818 -54.702  1.00  0.00     0.266 A 
HETATM   11  O   UNL     1     -32.470  36.720 -55.070  1.00  0.00    -0.270 OA
HETATM   12  C   UNL     1     -33.349  38.987 -55.575  1.00  0.00     0.249 A 
HETATM   13  H   UNL     1     -35.317  42.654 -53.545  1.00  0.00     0.173 HD
HETATM   14  H   UNL     1     -32.762  37.589 -52.607  1.00  0.00     0.170 HD
ENDROOT
BRANCH  12  15
HETATM   15  C   UNL     1     -32.093  39.496 -56.294  1.00  0.00     0.426 C 
HETATM   16  F   UNL     1     -31.634  38.619 -57.219  1.00  0.00    -0.167 F 
HETATM   17  F   UNL     1     -32.301  40.677 -56.920  1.00  0.00    -0.167 F 
HETATM   18  F   UNL     1     -31.079  39.703 -55.417  1.00  0.00    -0.167 F 
ENDBRANCH  12  15
BRANCH  12  19
HETATM   19  N   UNL     1     -34.456  38.636 -56.489  1.00  0.00    -0.332 N 
HETATM   20  C   UNL     1     -35.564  37.946 -56.074  1.00  0.00     0.219 C 
HETATM   21  O   UNL     1     -35.664  37.507 -54.930  1.00  0.00    -0.274 OA
HETATM   22  H   UNL     1     -34.587  39.284 -57.261  1.00  0.00     0.164 HD
BRANCH  20  23
HETATM   23  C   UNL     1     -36.712  37.812 -57.060  1.00  0.00     0.107 C 
BRANCH  23  24
HETATM   24  C   UNL     1     -37.756  38.932 -57.065  1.00  0.00     0.047 C 
BRANCH  24  25
HETATM   25  C   UNL     1     -37.578  40.012 -58.112  1.00  0.00    -0.058 A 
HETATM   26  C   UNL     1     -37.349  41.335 -57.703  1.00  0.00     0.007 A 
HETATM   27  C   UNL     1     -37.172  42.352 -58.643  1.00  0.00     0.001 A 
HETATM   28  C   UNL     1     -37.213  42.060 -60.003  1.00  0.00     0.000 A 
HETATM   29  C   UNL     1     -37.420  40.750 -60.423  1.00  0.00     0.001 A 
HETATM   30  C   UNL     1     -37.589  39.730 -59.485  1.00  0.00     0.007 A 
ENDBRANCH  24  25
ENDBRANCH  23  24
ENDBRANCH  20  23
ENDBRANCH  12  19
BRANCH   1  31
HETATM   31  C   UNL     1     -33.374  39.707 -50.788  1.00  0.00     0.045 A 
HETATM   32  C   UNL     1     -32.094  40.013 -50.304  1.00  0.00     0.031 A 
HETATM   33  C   UNL     1     -31.673  39.578 -49.043  1.00  0.00     0.009 A 
HETATM   34  C   UNL     1     -32.517  38.810 -48.238  1.00  0.00    -0.062 A 
HETATM   35  C   UNL     1     -32.073  38.360 -46.877  1.00  0.00     0.048 C 
HETATM   36  C   UNL     1     -33.798  38.508 -48.704  1.00  0.00     0.009 A 
HETATM   37  C   UNL     1     -34.218  38.944 -49.966  1.00  0.00     0.031 A 
ENDBRANCH   1  31
TORSDOF 6
ENDMDL
