MODEL 1
REMARK VINA RESULT:      -9.4      0.000      0.000
REMARK  9 active torsions:
REMARK  status: ('A' for Active; 'I' for Inactive)
REMARK    1  A    between atoms: O_2  and  C_3 
REMARK    2  A    between atoms: C_5  and  O_6 
REMARK    3  A    between atoms: C_8  and  N_9 
REMARK    4  A    between atoms: C_10  and  O_11 
REMARK    5  A    between atoms: C_10  and  C_12 
REMARK       I    between atoms: C_12  and  N_13 
REMARK    6  A    between atoms: N_13  and  C_14 
REMARK    7  A    between atoms: C_14  and  C_15 
REMARK    8  A    between atoms: C_15  and  N_16 
REMARK    9  A    between atoms: N_20  and  C_21 
ROOT
HETATM    1  N   UNL     1     -43.406  59.267 -58.660  1.00  0.00    -0.251 N 
HETATM    2  C   UNL     1     -42.937  57.892 -58.447  1.00  0.00     0.256 C 
HETATM    3  C   UNL     1     -43.829  56.888 -59.156  1.00  0.00     0.034 A 
HETATM    4  C   UNL     1     -45.172  57.211 -59.316  1.00  0.00     0.048 A 
HETATM    5  N   UNL     1     -45.602  58.474 -58.926  1.00  0.00    -0.308 N 
HETATM    6  C   UNL     1     -44.768  59.527 -58.695  1.00  0.00     0.330 C 
HETATM    7  O   UNL     1     -45.263  60.637 -58.505  1.00  0.00    -0.246 OA
HETATM    8  C   UNL     1     -43.382  55.634 -59.605  1.00  0.00     0.015 A 
HETATM    9  C   UNL     1     -44.269  54.742 -60.211  1.00  0.00     0.001 A 
HETATM   10  C   UNL     1     -45.615  55.079 -60.348  1.00  0.00     0.002 A 
HETATM   11  C   UNL     1     -46.073  56.314 -59.891  1.00  0.00     0.030 A 
HETATM   12  H   UNL     1     -46.576  58.732 -59.055  1.00  0.00     0.170 HD
ENDROOT
BRANCH   2  13
HETATM   13  O   UNL     1     -41.635  57.709 -59.008  1.00  0.00    -0.359 OA
HETATM   14  H   UNL     1     -41.128  58.504 -58.773  1.00  0.00     0.213 HD
ENDBRANCH   2  13
BRANCH   2  15
HETATM   15  C   UNL     1     -42.897  57.498 -56.896  1.00  0.00     0.279 C 
HETATM   16  N   UNL     1     -44.094  57.192 -56.273  1.00  0.00    -0.355 N 
HETATM   17  H   UNL     1     -44.923  57.525 -56.765  1.00  0.00     0.162 HD
HETATM   18  O   UNL     1     -41.838  57.382 -56.266  1.00  0.00    -0.268 OA
BRANCH  16  19
HETATM   19  C   UNL     1     -44.245  57.020 -54.830  1.00  0.00     0.150 C 
BRANCH  19  20
HETATM   20  C   UNL     1     -44.114  55.579 -54.277  1.00  0.00     0.254 C 
BRANCH  20  21
HETATM   21  N   UNL     1     -42.691  55.158 -54.011  1.00  0.00    -0.067 N 
HETATM   22  H   UNL     1     -42.122  56.031 -54.045  1.00  0.00     0.280 HD
HETATM   23  C   UNL     1     -42.428  54.587 -52.620  1.00  0.00     0.254 C 
HETATM   24  C   UNL     1     -40.912  54.377 -52.410  1.00  0.00     0.150 C 
HETATM   25  N   UNL     1     -40.359  53.517 -53.473  1.00  0.00    -0.378 N 
HETATM   26  C   UNL     1     -40.624  53.975 -54.847  1.00  0.00     0.150 C 
HETATM   27  C   UNL     1     -42.129  54.227 -55.082  1.00  0.00     0.254 C 
BRANCH  25  28
HETATM   28  C   UNL     1     -40.101  52.184 -53.175  1.00  0.00     0.030 A 
HETATM   29  C   UNL     1     -40.137  51.161 -54.132  1.00  0.00     0.029 A 
HETATM   30  C   UNL     1     -39.860  49.827 -53.795  1.00  0.00     0.002 A 
HETATM   31  C   UNL     1     -39.526  49.489 -52.489  1.00  0.00     0.000 A 
HETATM   32  C   UNL     1     -39.464  50.482 -51.522  1.00  0.00     0.002 A 
HETATM   33  C   UNL     1     -39.745  51.810 -51.866  1.00  0.00     0.029 A 
ENDBRANCH  25  28
ENDBRANCH  20  21
ENDBRANCH  19  20
ENDBRANCH  16  19
ENDBRANCH   2  15
BRANCH   1  34
HETATM   34  C   UNL     1     -42.486  60.336 -58.937  1.00  0.00     0.076 A 
HETATM   35  C   UNL     1     -41.711  60.973 -57.950  1.00  0.00     0.098 A 
HETATM   36  C   UNL     1     -40.697  61.877 -58.309  1.00  0.00     0.075 A 
HETATM   37  C   UNL     1     -40.485  62.200 -59.649  1.00  0.00     0.070 A 
HETATM   38  C   UNL     1     -41.311  61.647 -60.623  1.00  0.00     0.039 A 
HETATM   39  C   UNL     1     -42.300  60.726 -60.273  1.00  0.00     0.035 A 
BRANCH  35  40
HETATM   40  O   UNL     1     -41.958  60.657 -56.632  1.00  0.00    -0.354 OA
HETATM   41  C   UNL     1     -42.909  61.530 -56.014  1.00  0.00     0.210 C 
ENDBRANCH  35  40
BRANCH  37  42
HETATM   42  O   UNL     1     -39.521  63.043 -60.127  1.00  0.00    -0.356 OA
HETATM   43  C   UNL     1     -39.764  63.648 -61.391  1.00  0.00     0.210 C 
ENDBRANCH  37  42
ENDBRANCH   1  34
TORSDOF 9
ENDMDL
MODEL 2
REMARK VINA RESULT:      -9.1      0.933      1.839
REMARK  9 active torsions:
REMARK  status: ('A' for Active; 'I' for Inactive)
REMARK    1  A    between atoms: O_2  and  C_3 
REMARK    2  A    between atoms: C_5  and  O_6 
REMARK    3  A    between atoms: C_8  and  N_9 
REMARK    4  A    between atoms: C_10  and  O_11 
REMARK    5  A    between atoms: C_10  and  C_12 
REMARK       I    between atoms: C_12  and  N_13 
REMARK    6  A    between atoms: N_13  and  C_14 
REMARK    7  A    between atoms: C_14  and  C_15 
REMARK    8  A    between atoms: C_15  and  N_16 
REMARK    9  A    between atoms: N_20  and  C_21 
ROOT
HETATM    1  N   UNL     1     -43.146  59.485 -58.960  1.00  0.00    -0.251 N 
HETATM    2  C   UNL     1     -42.778  58.111 -58.597  1.00  0.00     0.256 C 
HETATM    3  C   UNL     1     -43.718  57.101 -59.232  1.00  0.00     0.034 A 
HETATM    4  C   UNL     1     -45.032  57.494 -59.466  1.00  0.00     0.048 A 
HETATM    5  N   UNL     1     -45.385  58.814 -59.215  1.00  0.00    -0.308 N 
HETATM    6  C   UNL     1     -44.486  59.828 -59.062  1.00  0.00     0.330 C 
HETATM    7  O   UNL     1     -44.909  60.982 -58.998  1.00  0.00    -0.246 OA
HETATM    8  C   UNL     1     -43.347  55.782 -59.541  1.00  0.00     0.015 A 
HETATM    9  C   UNL     1     -44.277  54.893 -60.084  1.00  0.00     0.001 A 
HETATM   10  C   UNL     1     -45.593  55.303 -60.296  1.00  0.00     0.002 A 
HETATM   11  C   UNL     1     -45.977  56.604 -59.978  1.00  0.00     0.030 A 
HETATM   12  H   UNL     1     -46.335  59.121 -59.399  1.00  0.00     0.170 HD
ENDROOT
BRANCH   2  13
HETATM   13  O   UNL     1     -41.477  57.787 -59.096  1.00  0.00    -0.359 OA
HETATM   14  H   UNL     1     -41.079  58.630 -59.369  1.00  0.00     0.213 HD
ENDBRANCH   2  13
BRANCH   2  15
HETATM   15  C   UNL     1     -42.804  57.872 -57.015  1.00  0.00     0.279 C 
HETATM   16  N   UNL     1     -43.886  57.197 -56.477  1.00  0.00    -0.355 N 
HETATM   17  H   UNL     1     -44.707  57.167 -57.081  1.00  0.00     0.162 HD
HETATM   18  O   UNL     1     -41.864  58.197 -56.277  1.00  0.00    -0.268 OA
BRANCH  16  19
HETATM   19  C   UNL     1     -44.152  57.087 -55.045  1.00  0.00     0.150 C 
BRANCH  19  20
HETATM   20  C   UNL     1     -44.100  55.668 -54.427  1.00  0.00     0.254 C 
BRANCH  20  21
HETATM   21  N   UNL     1     -42.726  55.261 -53.960  1.00  0.00    -0.067 N 
HETATM   22  H   UNL     1     -42.221  56.146 -53.746  1.00  0.00     0.280 HD
HETATM   23  C   UNL     1     -42.687  54.476 -52.651  1.00  0.00     0.254 C 
HETATM   24  C   UNL     1     -41.226  54.288 -52.186  1.00  0.00     0.150 C 
HETATM   25  N   UNL     1     -40.429  53.637 -53.244  1.00  0.00    -0.378 N 
HETATM   26  C   UNL     1     -40.465  54.307 -54.554  1.00  0.00     0.150 C 
HETATM   27  C   UNL     1     -41.914  54.541 -55.033  1.00  0.00     0.254 C 
BRANCH  25  28
HETATM   28  C   UNL     1     -40.143  52.283 -53.112  1.00  0.00     0.030 A 
HETATM   29  C   UNL     1     -39.760  51.693 -51.900  1.00  0.00     0.029 A 
HETATM   30  C   UNL     1     -39.490  50.320 -51.803  1.00  0.00     0.002 A 
HETATM   31  C   UNL     1     -39.609  49.501 -52.919  1.00  0.00     0.000 A 
HETATM   32  C   UNL     1     -40.003  50.053 -54.129  1.00  0.00     0.002 A 
HETATM   33  C   UNL     1     -40.269  51.424 -54.219  1.00  0.00     0.029 A 
ENDBRANCH  25  28
ENDBRANCH  20  21
ENDBRANCH  19  20
ENDBRANCH  16  19
ENDBRANCH   2  15
BRANCH   1  34
HETATM   34  C   UNL     1     -42.149  60.458 -59.311  1.00  0.00     0.076 A 
HETATM   35  C   UNL     1     -41.903  60.879 -60.632  1.00  0.00     0.098 A 
HETATM   36  C   UNL     1     -41.049  61.966 -60.888  1.00  0.00     0.075 A 
HETATM   37  C   UNL     1     -40.389  62.605 -59.839  1.00  0.00     0.070 A 
HETATM   38  C   UNL     1     -40.554  62.132 -58.541  1.00  0.00     0.039 A 
HETATM   39  C   UNL     1     -41.423  61.071 -58.278  1.00  0.00     0.035 A 
BRANCH  35  40
HETATM   40  O   UNL     1     -42.546  60.215 -61.652  1.00  0.00    -0.354 OA
HETATM   41  C   UNL     1     -42.682  61.004 -62.838  1.00  0.00     0.210 C 
ENDBRANCH  35  40
BRANCH  37  42
HETATM   42  O   UNL     1     -39.556  63.682 -59.955  1.00  0.00    -0.356 OA
HETATM   43  C   UNL     1     -39.320  64.443 -58.777  1.00  0.00     0.210 C 
ENDBRANCH  37  42
ENDBRANCH   1  34
TORSDOF 9
ENDMDL
MODEL 3
REMARK VINA RESULT:      -8.9      3.089      9.253
REMARK  9 active torsions:
REMARK  status: ('A' for Active; 'I' for Inactive)
REMARK    1  A    between atoms: O_2  and  C_3 
REMARK    2  A    between atoms: C_5  and  O_6 
REMARK    3  A    between atoms: C_8  and  N_9 
REMARK    4  A    between atoms: C_10  and  O_11 
REMARK    5  A    between atoms: C_10  and  C_12 
REMARK       I    between atoms: C_12  and  N_13 
REMARK    6  A    between atoms: N_13  and  C_14 
REMARK    7  A    between atoms: C_14  and  C_15 
REMARK    8  A    between atoms: C_15  and  N_16 
REMARK    9  A    between atoms: N_20  and  C_21 
ROOT
HETATM    1  N   UNL     1     -42.000  54.823 -53.066  1.00  0.00    -0.251 N 
HETATM    2  C   UNL     1     -41.719  56.002 -53.895  1.00  0.00     0.256 C 
HETATM    3  C   UNL     1     -41.826  57.283 -53.085  1.00  0.00     0.034 A 
HETATM    4  C   UNL     1     -42.717  57.306 -52.018  1.00  0.00     0.048 A 
HETATM    5  N   UNL     1     -43.374  56.130 -51.677  1.00  0.00    -0.308 N 
HETATM    6  C   UNL     1     -42.986  54.890 -52.093  1.00  0.00     0.330 C 
HETATM    7  O   UNL     1     -43.544  53.907 -51.608  1.00  0.00    -0.246 OA
HETATM    8  C   UNL     1     -41.118  58.457 -53.394  1.00  0.00     0.015 A 
HETATM    9  C   UNL     1     -41.298  59.613 -52.632  1.00  0.00     0.001 A 
HETATM   10  C   UNL     1     -42.208  59.618 -51.576  1.00  0.00     0.002 A 
HETATM   11  C   UNL     1     -42.928  58.465 -51.271  1.00  0.00     0.030 A 
HETATM   12  H   UNL     1     -44.013  56.125 -50.887  1.00  0.00     0.170 HD
ENDROOT
BRANCH   2  13
HETATM   13  O   UNL     1     -40.375  55.969 -54.382  1.00  0.00    -0.359 OA
HETATM   14  H   UNL     1     -40.076  55.050 -54.281  1.00  0.00     0.213 HD
ENDBRANCH   2  13
BRANCH   2  15
HETATM   15  C   UNL     1     -42.722  56.125 -55.136  1.00  0.00     0.279 C 
HETATM   16  N   UNL     1     -42.231  55.842 -56.398  1.00  0.00    -0.355 N 
HETATM   17  H   UNL     1     -41.214  55.865 -56.470  1.00  0.00     0.162 HD
HETATM   18  O   UNL     1     -43.924  56.385 -54.996  1.00  0.00    -0.268 OA
BRANCH  16  19
HETATM   19  C   UNL     1     -42.957  56.108 -57.638  1.00  0.00     0.150 C 
BRANCH  19  20
HETATM   20  C   UNL     1     -42.478  57.309 -58.489  1.00  0.00     0.254 C 
BRANCH  20  21
HETATM   21  N   UNL     1     -42.998  58.640 -58.008  1.00  0.00    -0.067 N 
HETATM   22  H   UNL     1     -42.967  59.275 -58.833  1.00  0.00     0.280 HD
HETATM   23  C   UNL     1     -44.461  58.652 -57.575  1.00  0.00     0.254 C 
HETATM   24  C   UNL     1     -44.921  60.099 -57.291  1.00  0.00     0.150 C 
HETATM   25  N   UNL     1     -44.043  60.730 -56.287  1.00  0.00    -0.378 N 
HETATM   26  C   UNL     1     -42.607  60.705 -56.610  1.00  0.00     0.150 C 
HETATM   27  C   UNL     1     -42.122  59.276 -56.932  1.00  0.00     0.254 C 
BRANCH  25  28
HETATM   28  C   UNL     1     -44.506  60.834 -54.980  1.00  0.00     0.030 A 
HETATM   29  C   UNL     1     -45.180  59.798 -54.319  1.00  0.00     0.029 A 
HETATM   30  C   UNL     1     -45.624  59.936 -52.995  1.00  0.00     0.002 A 
HETATM   31  C   UNL     1     -45.390  61.114 -52.296  1.00  0.00     0.000 A 
HETATM   32  C   UNL     1     -44.709  62.151 -52.917  1.00  0.00     0.002 A 
HETATM   33  C   UNL     1     -44.272  62.007 -54.239  1.00  0.00     0.029 A 
ENDBRANCH  25  28
ENDBRANCH  20  21
ENDBRANCH  19  20
ENDBRANCH  16  19
ENDBRANCH   2  15
BRANCH   1  34
HETATM   34  C   UNL     1     -41.205  53.630 -53.169  1.00  0.00     0.076 A 
HETATM   35  C   UNL     1     -40.309  53.202 -52.172  1.00  0.00     0.098 A 
HETATM   36  C   UNL     1     -39.705  51.935 -52.249  1.00  0.00     0.075 A 
HETATM   37  C   UNL     1     -39.942  51.108 -53.347  1.00  0.00     0.070 A 
HETATM   38  C   UNL     1     -40.750  51.566 -54.383  1.00  0.00     0.039 A 
HETATM   39  C   UNL     1     -41.376  52.812 -54.297  1.00  0.00     0.035 A 
BRANCH  35  40
HETATM   40  O   UNL     1     -40.071  54.047 -51.111  1.00  0.00    -0.354 OA
HETATM   41  C   UNL     1     -40.287  53.427 -49.839  1.00  0.00     0.210 C 
ENDBRANCH  35  40
BRANCH  37  42
HETATM   42  O   UNL     1     -39.434  49.852 -53.528  1.00  0.00    -0.356 OA
HETATM   43  C   UNL     1     -39.358  49.018 -52.378  1.00  0.00     0.210 C 
ENDBRANCH  37  42
ENDBRANCH   1  34
TORSDOF 9
ENDMDL
MODEL 4
REMARK VINA RESULT:      -8.9      2.679      5.273
REMARK  9 active torsions:
REMARK  status: ('A' for Active; 'I' for Inactive)
REMARK    1  A    between atoms: O_2  and  C_3 
REMARK    2  A    between atoms: C_5  and  O_6 
REMARK    3  A    between atoms: C_8  and  N_9 
REMARK    4  A    between atoms: C_10  and  O_11 
REMARK    5  A    between atoms: C_10  and  C_12 
REMARK       I    between atoms: C_12  and  N_13 
REMARK    6  A    between atoms: N_13  and  C_14 
REMARK    7  A    between atoms: C_14  and  C_15 
REMARK    8  A    between atoms: C_15  and  N_16 
REMARK    9  A    between atoms: N_20  and  C_21 
ROOT
HETATM    1  N   UNL     1     -43.434  58.811 -55.523  1.00  0.00    -0.251 N 
HETATM    2  C   UNL     1     -44.351  58.852 -54.376  1.00  0.00     0.256 C 
HETATM    3  C   UNL     1     -44.651  60.282 -53.961  1.00  0.00     0.034 A 
HETATM    4  C   UNL     1     -43.667  61.241 -54.176  1.00  0.00     0.048 A 
HETATM    5  N   UNL     1     -42.515  60.870 -54.858  1.00  0.00    -0.308 N 
HETATM    6  C   UNL     1     -42.405  59.736 -55.607  1.00  0.00     0.330 C 
HETATM    7  O   UNL     1     -41.394  59.582 -56.293  1.00  0.00    -0.246 OA
HETATM    8  C   UNL     1     -45.841  60.672 -53.323  1.00  0.00     0.015 A 
HETATM    9  C   UNL     1     -46.031  61.997 -52.929  1.00  0.00     0.001 A 
HETATM   10  C   UNL     1     -45.026  62.940 -53.140  1.00  0.00     0.002 A 
HETATM   11  C   UNL     1     -43.835  62.561 -53.757  1.00  0.00     0.030 A 
HETATM   12  H   UNL     1     -41.797  61.564 -55.041  1.00  0.00     0.170 HD
ENDROOT
BRANCH   2  13
HETATM   13  O   UNL     1     -45.616  58.281 -54.720  1.00  0.00    -0.359 OA
HETATM   14  H   UNL     1     -45.443  57.674 -55.458  1.00  0.00     0.213 HD
ENDBRANCH   2  13
BRANCH   2  15
HETATM   15  C   UNL     1     -43.762  58.087 -53.100  1.00  0.00     0.279 C 
HETATM   16  N   UNL     1     -44.658  57.486 -52.233  1.00  0.00    -0.355 N 
HETATM   17  H   UNL     1     -45.616  57.824 -52.315  1.00  0.00     0.162 HD
HETATM   18  O   UNL     1     -42.547  57.952 -52.907  1.00  0.00    -0.268 OA
BRANCH  16  19
HETATM   19  C   UNL     1     -44.291  56.937 -50.929  1.00  0.00     0.150 C 
BRANCH  19  20
HETATM   20  C   UNL     1     -43.959  55.426 -50.871  1.00  0.00     0.254 C 
BRANCH  20  21
HETATM   21  N   UNL     1     -42.656  55.066 -51.537  1.00  0.00    -0.067 N 
HETATM   22  H   UNL     1     -42.162  55.967 -51.709  1.00  0.00     0.280 HD
HETATM   23  C   UNL     1     -41.685  54.259 -50.678  1.00  0.00     0.254 C 
HETATM   24  C   UNL     1     -40.325  54.122 -51.399  1.00  0.00     0.150 C 
HETATM   25  N   UNL     1     -40.509  53.523 -52.735  1.00  0.00    -0.378 N 
HETATM   26  C   UNL     1     -41.478  54.215 -53.601  1.00  0.00     0.150 C 
HETATM   27  C   UNL     1     -42.839  54.399 -52.897  1.00  0.00     0.254 C 
BRANCH  25  28
HETATM   28  C   UNL     1     -40.194  52.180 -52.904  1.00  0.00     0.030 A 
HETATM   29  C   UNL     1     -40.211  51.536 -54.149  1.00  0.00     0.029 A 
HETATM   30  C   UNL     1     -39.876  50.181 -54.282  1.00  0.00     0.002 A 
HETATM   31  C   UNL     1     -39.502  49.439 -53.168  1.00  0.00     0.000 A 
HETATM   32  C   UNL     1     -39.457  50.052 -51.924  1.00  0.00     0.002 A 
HETATM   33  C   UNL     1     -39.796  51.404 -51.799  1.00  0.00     0.029 A 
ENDBRANCH  25  28
ENDBRANCH  20  21
ENDBRANCH  19  20
ENDBRANCH  16  19
ENDBRANCH   2  15
BRANCH   1  34
HETATM   34  C   UNL     1     -43.641  57.897 -56.612  1.00  0.00     0.076 A 
HETATM   35  C   UNL     1     -44.366  58.222 -57.774  1.00  0.00     0.098 A 
HETATM   36  C   UNL     1     -44.372  57.353 -58.879  1.00  0.00     0.075 A 
HETATM   37  C   UNL     1     -43.705  56.130 -58.817  1.00  0.00     0.070 A 
HETATM   38  C   UNL     1     -43.067  55.761 -57.637  1.00  0.00     0.039 A 
HETATM   39  C   UNL     1     -43.034  56.633 -56.547  1.00  0.00     0.035 A 
BRANCH  35  40
HETATM   40  O   UNL     1     -45.039  59.423 -57.801  1.00  0.00    -0.354 OA
HETATM   41  C   UNL     1     -46.461  59.271 -57.809  1.00  0.00     0.210 C 
ENDBRANCH  35  40
BRANCH  37  42
HETATM   42  O   UNL     1     -43.618  55.213 -59.827  1.00  0.00    -0.356 OA
HETATM   43  C   UNL     1     -44.794  54.988 -60.595  1.00  0.00     0.210 C 
ENDBRANCH  37  42
ENDBRANCH   1  34
TORSDOF 9
ENDMDL
MODEL 5
REMARK VINA RESULT:      -8.6      2.781      9.930
REMARK  9 active torsions:
REMARK  status: ('A' for Active; 'I' for Inactive)
REMARK    1  A    between atoms: O_2  and  C_3 
REMARK    2  A    between atoms: C_5  and  O_6 
REMARK    3  A    between atoms: C_8  and  N_9 
REMARK    4  A    between atoms: C_10  and  O_11 
REMARK    5  A    between atoms: C_10  and  C_12 
REMARK       I    between atoms: C_12  and  N_13 
REMARK    6  A    between atoms: N_13  and  C_14 
REMARK    7  A    between atoms: C_14  and  C_15 
REMARK    8  A    between atoms: C_15  and  N_16 
REMARK    9  A    between atoms: N_20  and  C_21 
ROOT
HETATM    1  N   UNL     1     -42.160  54.994 -52.972  1.00  0.00    -0.251 N 
HETATM    2  C   UNL     1     -41.901  56.212 -53.751  1.00  0.00     0.256 C 
HETATM    3  C   UNL     1     -42.199  57.460 -52.939  1.00  0.00     0.034 A 
HETATM    4  C   UNL     1     -43.192  57.382 -51.967  1.00  0.00     0.048 A 
HETATM    5  N   UNL     1     -43.775  56.147 -51.712  1.00  0.00    -0.308 N 
HETATM    6  C   UNL     1     -43.241  54.955 -52.105  1.00  0.00     0.330 C 
HETATM    7  O   UNL     1     -43.758  53.917 -51.693  1.00  0.00    -0.246 OA
HETATM    8  C   UNL     1     -41.568  58.697 -53.156  1.00  0.00     0.015 A 
HETATM    9  C   UNL     1     -41.924  59.815 -52.400  1.00  0.00     0.001 A 
HETATM   10  C   UNL     1     -42.932  59.719 -51.442  1.00  0.00     0.002 A 
HETATM   11  C   UNL     1     -43.577  58.501 -51.229  1.00  0.00     0.030 A 
HETATM   12  H   UNL     1     -44.487  56.070 -50.992  1.00  0.00     0.170 HD
ENDROOT
BRANCH   2  13
HETATM   13  O   UNL     1     -40.517  56.305 -54.099  1.00  0.00    -0.359 OA
HETATM   14  H   UNL     1     -40.374  57.222 -54.384  1.00  0.00     0.213 HD
ENDBRANCH   2  13
BRANCH   2  15
HETATM   15  C   UNL     1     -42.781  56.278 -55.086  1.00  0.00     0.279 C 
HETATM   16  N   UNL     1     -42.134  56.556 -56.277  1.00  0.00    -0.355 N 
HETATM   17  H   UNL     1     -41.213  56.980 -56.169  1.00  0.00     0.162 HD
HETATM   18  O   UNL     1     -43.991  56.015 -55.099  1.00  0.00    -0.268 OA
BRANCH  16  19
HETATM   19  C   UNL     1     -42.821  56.853 -57.532  1.00  0.00     0.150 C 
BRANCH  19  20
HETATM   20  C   UNL     1     -43.677  58.142 -57.576  1.00  0.00     0.254 C 
BRANCH  20  21
HETATM   21  N   UNL     1     -43.421  58.999 -58.790  1.00  0.00    -0.067 N 
HETATM   22  H   UNL     1     -44.175  58.766 -59.470  1.00  0.00     0.280 HD
HETATM   23  C   UNL     1     -43.561  60.503 -58.569  1.00  0.00     0.254 C 
HETATM   24  C   UNL     1     -43.466  61.250 -59.918  1.00  0.00     0.150 C 
HETATM   25  N   UNL     1     -42.207  60.908 -60.607  1.00  0.00    -0.378 N 
HETATM   26  C   UNL     1     -41.975  59.468 -60.805  1.00  0.00     0.150 C 
HETATM   27  C   UNL     1     -42.096  58.686 -59.479  1.00  0.00     0.254 C 
BRANCH  25  28
HETATM   28  C   UNL     1     -41.165  61.827 -60.569  1.00  0.00     0.030 A 
HETATM   29  C   UNL     1     -40.523  62.212 -59.384  1.00  0.00     0.029 A 
HETATM   30  C   UNL     1     -39.467  63.135 -59.385  1.00  0.00     0.002 A 
HETATM   31  C   UNL     1     -39.018  63.686 -60.580  1.00  0.00     0.000 A 
HETATM   32  C   UNL     1     -39.622  63.312 -61.772  1.00  0.00     0.002 A 
HETATM   33  C   UNL     1     -40.677  62.392 -61.762  1.00  0.00     0.029 A 
ENDBRANCH  25  28
ENDBRANCH  20  21
ENDBRANCH  19  20
ENDBRANCH  16  19
ENDBRANCH   2  15
BRANCH   1  34
HETATM   34  C   UNL     1     -41.258  53.876 -53.011  1.00  0.00     0.076 A 
HETATM   35  C   UNL     1     -40.432  53.503 -51.934  1.00  0.00     0.098 A 
HETATM   36  C   UNL     1     -39.716  52.294 -51.968  1.00  0.00     0.075 A 
HETATM   37  C   UNL     1     -39.769  51.475 -53.096  1.00  0.00     0.070 A 
HETATM   38  C   UNL     1     -40.507  51.886 -54.201  1.00  0.00     0.039 A 
HETATM   39  C   UNL     1     -41.244  53.072 -54.162  1.00  0.00     0.035 A 
BRANCH  35  40
HETATM   40  O   UNL     1     -40.376  54.341 -50.843  1.00  0.00    -0.354 OA
HETATM   41  C   UNL     1     -40.300  53.639 -49.599  1.00  0.00     0.210 C 
ENDBRANCH  35  40
BRANCH  37  42
HETATM   42  O   UNL     1     -39.139  50.271 -53.241  1.00  0.00    -0.356 OA
HETATM   43  C   UNL     1     -39.500  49.490 -54.374  1.00  0.00     0.210 C 
ENDBRANCH  37  42
ENDBRANCH   1  34
TORSDOF 9
ENDMDL
MODEL 6
REMARK VINA RESULT:      -8.5      2.924      9.326
REMARK  9 active torsions:
REMARK  status: ('A' for Active; 'I' for Inactive)
REMARK    1  A    between atoms: O_2  and  C_3 
REMARK    2  A    between atoms: C_5  and  O_6 
REMARK    3  A    between atoms: C_8  and  N_9 
REMARK    4  A    between atoms: C_10  and  O_11 
REMARK    5  A    between atoms: C_10  and  C_12 
REMARK       I    between atoms: C_12  and  N_13 
REMARK    6  A    between atoms: N_13  and  C_14 
REMARK    7  A    between atoms: C_14  and  C_15 
REMARK    8  A    between atoms: C_15  and  N_16 
REMARK    9  A    between atoms: N_20  and  C_21 
ROOT
HETATM    1  N   UNL     1     -42.492  56.214 -53.654  1.00  0.00    -0.251 N 
HETATM    2  C   UNL     1     -42.026  57.584 -53.405  1.00  0.00     0.256 C 
HETATM    3  C   UNL     1     -42.976  58.332 -52.485  1.00  0.00     0.034 A 
HETATM    4  C   UNL     1     -44.323  57.989 -52.524  1.00  0.00     0.048 A 
HETATM    5  N   UNL     1     -44.711  56.911 -53.310  1.00  0.00    -0.308 N 
HETATM    6  C   UNL     1     -43.850  55.970 -53.794  1.00  0.00     0.330 C 
HETATM    7  O   UNL     1     -44.319  54.975 -54.347  1.00  0.00    -0.246 OA
HETATM    8  C   UNL     1     -42.575  59.385 -51.645  1.00  0.00     0.015 A 
HETATM    9  C   UNL     1     -43.511  60.058 -50.859  1.00  0.00     0.001 A 
HETATM   10  C   UNL     1     -44.859  59.709 -50.925  1.00  0.00     0.002 A 
HETATM   11  C   UNL     1     -45.271  58.677 -51.767  1.00  0.00     0.030 A 
HETATM   12  H   UNL     1     -45.688  56.635 -53.334  1.00  0.00     0.170 HD
ENDROOT
BRANCH   2  13
HETATM   13  O   UNL     1     -40.767  57.573 -52.726  1.00  0.00    -0.359 OA
HETATM   14  H   UNL     1     -40.512  56.639 -52.650  1.00  0.00     0.213 HD
ENDBRANCH   2  13
BRANCH   2  15
HETATM   15  C   UNL     1     -41.884  58.432 -54.754  1.00  0.00     0.279 C 
HETATM   16  N   UNL     1     -42.466  57.927 -55.903  1.00  0.00    -0.355 N 
HETATM   17  H   UNL     1     -42.680  56.930 -55.865  1.00  0.00     0.162 HD
HETATM   18  O   UNL     1     -41.347  59.547 -54.785  1.00  0.00    -0.268 OA
BRANCH  16  19
HETATM   19  C   UNL     1     -42.248  58.474 -57.240  1.00  0.00     0.150 C 
BRANCH  19  20
HETATM   20  C   UNL     1     -42.496  57.525 -58.438  1.00  0.00     0.254 C 
BRANCH  20  21
HETATM   21  N   UNL     1     -43.939  57.125 -58.606  1.00  0.00    -0.067 N 
HETATM   22  H   UNL     1     -44.165  56.514 -57.793  1.00  0.00     0.280 HD
HETATM   23  C   UNL     1     -44.948  58.266 -58.514  1.00  0.00     0.254 C 
HETATM   24  C   UNL     1     -46.387  57.705 -58.510  1.00  0.00     0.150 C 
HETATM   25  N   UNL     1     -46.615  56.861 -59.699  1.00  0.00    -0.378 N 
HETATM   26  C   UNL     1     -45.643  55.771 -59.886  1.00  0.00     0.150 C 
HETATM   27  C   UNL     1     -44.191  56.294 -59.862  1.00  0.00     0.254 C 
BRANCH  25  28
HETATM   28  C   UNL     1     -47.338  57.398 -60.758  1.00  0.00     0.030 A 
HETATM   29  C   UNL     1     -47.574  58.771 -60.910  1.00  0.00     0.029 A 
HETATM   30  C   UNL     1     -48.299  59.277 -61.999  1.00  0.00     0.002 A 
HETATM   31  C   UNL     1     -48.795  58.418 -62.971  1.00  0.00     0.000 A 
HETATM   32  C   UNL     1     -48.563  57.055 -62.859  1.00  0.00     0.002 A 
HETATM   33  C   UNL     1     -47.841  56.557 -61.768  1.00  0.00     0.029 A 
ENDBRANCH  25  28
ENDBRANCH  20  21
ENDBRANCH  19  20
ENDBRANCH  16  19
ENDBRANCH   2  15
BRANCH   1  34
HETATM   34  C   UNL     1     -41.582  55.102 -53.654  1.00  0.00     0.076 A 
HETATM   35  C   UNL     1     -41.290  54.334 -52.511  1.00  0.00     0.098 A 
HETATM   36  C   UNL     1     -40.540  53.150 -52.617  1.00  0.00     0.075 A 
HETATM   37  C   UNL     1     -40.026  52.751 -53.851  1.00  0.00     0.070 A 
HETATM   38  C   UNL     1     -40.230  53.557 -54.967  1.00  0.00     0.039 A 
HETATM   39  C   UNL     1     -40.999  54.719 -54.871  1.00  0.00     0.035 A 
BRANCH  35  40
HETATM   40  O   UNL     1     -41.787  54.763 -51.300  1.00  0.00    -0.354 OA
HETATM   41  C   UNL     1     -40.767  54.975 -50.318  1.00  0.00     0.210 C 
ENDBRANCH  35  40
BRANCH  37  42
HETATM   42  O   UNL     1     -39.305  51.615 -54.088  1.00  0.00    -0.356 OA
HETATM   43  C   UNL     1     -39.993  50.377 -53.957  1.00  0.00     0.210 C 
ENDBRANCH  37  42
ENDBRANCH   1  34
TORSDOF 9
ENDMDL
MODEL 7
REMARK VINA RESULT:      -8.3      4.020      7.028
REMARK  9 active torsions:
REMARK  status: ('A' for Active; 'I' for Inactive)
REMARK    1  A    between atoms: O_2  and  C_3 
REMARK    2  A    between atoms: C_5  and  O_6 
REMARK    3  A    between atoms: C_8  and  N_9 
REMARK    4  A    between atoms: C_10  and  O_11 
REMARK    5  A    between atoms: C_10  and  C_12 
REMARK       I    between atoms: C_12  and  N_13 
REMARK    6  A    between atoms: N_13  and  C_14 
REMARK    7  A    between atoms: C_14  and  C_15 
REMARK    8  A    between atoms: C_15  and  N_16 
REMARK    9  A    between atoms: N_20  and  C_21 
ROOT
HETATM    1  N   UNL     1     -42.705  59.483 -51.072  1.00  0.00    -0.251 N 
HETATM    2  C   UNL     1     -43.445  58.362 -51.667  1.00  0.00     0.256 C 
HETATM    3  C   UNL     1     -43.153  57.060 -50.940  1.00  0.00     0.034 A 
HETATM    4  C   UNL     1     -41.902  56.911 -50.351  1.00  0.00     0.048 A 
HETATM    5  N   UNL     1     -41.032  57.995 -50.357  1.00  0.00    -0.308 N 
HETATM    6  C   UNL     1     -41.414  59.279 -50.607  1.00  0.00     0.330 C 
HETATM    7  O   UNL     1     -40.594  60.180 -50.435  1.00  0.00    -0.246 OA
HETATM    8  C   UNL     1     -44.054  55.984 -50.882  1.00  0.00     0.015 A 
HETATM    9  C   UNL     1     -43.702  54.799 -50.234  1.00  0.00     0.001 A 
HETATM   10  C   UNL     1     -42.438  54.665 -49.663  1.00  0.00     0.002 A 
HETATM   11  C   UNL     1     -41.528  55.720 -49.728  1.00  0.00     0.030 A 
HETATM   12  H   UNL     1     -40.123  57.908 -49.912  1.00  0.00     0.170 HD
ENDROOT
BRANCH   2  13
HETATM   13  O   UNL     1     -44.854  58.562 -51.539  1.00  0.00    -0.359 OA
HETATM   14  H   UNL     1     -45.182  58.737 -52.437  1.00  0.00     0.213 HD
ENDBRANCH   2  13
BRANCH   2  15
HETATM   15  C   UNL     1     -43.085  58.148 -53.211  1.00  0.00     0.279 C 
HETATM   16  N   UNL     1     -44.054  57.602 -54.034  1.00  0.00    -0.355 N 
HETATM   17  H   UNL     1     -44.801  57.115 -53.541  1.00  0.00     0.162 HD
HETATM   18  O   UNL     1     -42.011  58.523 -53.702  1.00  0.00    -0.268 OA
BRANCH  16  19
HETATM   19  C   UNL     1     -43.808  57.158 -55.405  1.00  0.00     0.150 C 
BRANCH  19  20
HETATM   20  C   UNL     1     -43.467  55.661 -55.607  1.00  0.00     0.254 C 
BRANCH  20  21
HETATM   21  N   UNL     1     -42.186  55.234 -54.938  1.00  0.00    -0.067 N 
HETATM   22  H   UNL     1     -41.636  56.106 -54.787  1.00  0.00     0.280 HD
HETATM   23  C   UNL     1     -42.345  54.641 -53.541  1.00  0.00     0.254 C 
HETATM   24  C   UNL     1     -40.959  54.425 -52.893  1.00  0.00     0.150 C 
HETATM   25  N   UNL     1     -40.113  53.582 -53.758  1.00  0.00    -0.378 N 
HETATM   26  C   UNL     1     -39.960  54.062 -55.141  1.00  0.00     0.150 C 
HETATM   27  C   UNL     1     -41.328  54.320 -55.808  1.00  0.00     0.254 C 
BRANCH  25  28
HETATM   28  C   UNL     1     -39.950  52.244 -53.417  1.00  0.00     0.030 A 
HETATM   29  C   UNL     1     -39.721  51.807 -52.105  1.00  0.00     0.029 A 
HETATM   30  C   UNL     1     -39.573  50.447 -51.797  1.00  0.00     0.002 A 
HETATM   31  C   UNL     1     -39.665  49.487 -52.798  1.00  0.00     0.000 A 
HETATM   32  C   UNL     1     -39.910  49.886 -54.104  1.00  0.00     0.002 A 
HETATM   33  C   UNL     1     -40.053  51.246 -54.403  1.00  0.00     0.029 A 
ENDBRANCH  25  28
ENDBRANCH  20  21
ENDBRANCH  19  20
ENDBRANCH  16  19
ENDBRANCH   2  15
BRANCH   1  34
HETATM   34  C   UNL     1     -43.326  60.762 -50.866  1.00  0.00     0.076 A 
HETATM   35  C   UNL     1     -43.410  61.756 -51.859  1.00  0.00     0.098 A 
HETATM   36  C   UNL     1     -44.191  62.906 -51.654  1.00  0.00     0.075 A 
HETATM   37  C   UNL     1     -44.848  63.105 -50.440  1.00  0.00     0.070 A 
HETATM   38  C   UNL     1     -44.689  62.172 -49.420  1.00  0.00     0.039 A 
HETATM   39  C   UNL     1     -43.938  61.014 -49.628  1.00  0.00     0.035 A 
BRANCH  35  40
HETATM   40  O   UNL     1     -42.731  61.549 -53.039  1.00  0.00    -0.354 OA
HETATM   41  C   UNL     1     -43.410  62.087 -54.179  1.00  0.00     0.210 C 
ENDBRANCH  35  40
BRANCH  37  42
HETATM   42  O   UNL     1     -45.651  64.165 -50.128  1.00  0.00    -0.356 OA
HETATM   43  C   UNL     1     -47.050  63.992 -50.322  1.00  0.00     0.210 C 
ENDBRANCH  37  42
ENDBRANCH   1  34
TORSDOF 9
ENDMDL
MODEL 8
REMARK VINA RESULT:      -8.3      3.246      8.608
REMARK  9 active torsions:
REMARK  status: ('A' for Active; 'I' for Inactive)
REMARK    1  A    between atoms: O_2  and  C_3 
REMARK    2  A    between atoms: C_5  and  O_6 
REMARK    3  A    between atoms: C_8  and  N_9 
REMARK    4  A    between atoms: C_10  and  O_11 
REMARK    5  A    between atoms: C_10  and  C_12 
REMARK       I    between atoms: C_12  and  N_13 
REMARK    6  A    between atoms: N_13  and  C_14 
REMARK    7  A    between atoms: C_14  and  C_15 
REMARK    8  A    between atoms: C_15  and  N_16 
REMARK    9  A    between atoms: N_20  and  C_21 
ROOT
HETATM    1  N   UNL     1     -42.750  57.516 -52.725  1.00  0.00    -0.251 N 
HETATM    2  C   UNL     1     -42.192  58.810 -52.312  1.00  0.00     0.256 C 
HETATM    3  C   UNL     1     -43.111  59.521 -51.333  1.00  0.00     0.034 A 
HETATM    4  C   UNL     1     -44.478  59.288 -51.439  1.00  0.00     0.048 A 
HETATM    5  N   UNL     1     -44.921  58.336 -52.350  1.00  0.00    -0.308 N 
HETATM    6  C   UNL     1     -44.118  57.393 -52.919  1.00  0.00     0.330 C 
HETATM    7  O   UNL     1     -44.641  56.505 -53.591  1.00  0.00    -0.246 OA
HETATM    8  C   UNL     1     -42.658  60.439 -50.372  1.00  0.00     0.015 A 
HETATM    9  C   UNL     1     -43.565  61.090 -49.533  1.00  0.00     0.001 A 
HETATM   10  C   UNL     1     -44.932  60.853 -49.665  1.00  0.00     0.002 A 
HETATM   11  C   UNL     1     -45.394  59.956 -50.627  1.00  0.00     0.030 A 
HETATM   12  H   UNL     1     -45.914  58.140 -52.424  1.00  0.00     0.170 HD
ENDROOT
BRANCH   2  13
HETATM   13  O   UNL     1     -40.957  58.628 -51.614  1.00  0.00    -0.359 OA
HETATM   14  H   UNL     1     -40.646  59.520 -51.386  1.00  0.00     0.213 HD
ENDBRANCH   2  13
BRANCH   2  15
HETATM   15  C   UNL     1     -41.950  59.790 -53.554  1.00  0.00     0.279 C 
HETATM   16  N   UNL     1     -42.805  60.867 -53.707  1.00  0.00    -0.355 N 
HETATM   17  H   UNL     1     -43.684  60.784 -53.197  1.00  0.00     0.162 HD
HETATM   18  O   UNL     1     -40.990  59.663 -54.325  1.00  0.00    -0.268 OA
BRANCH  16  19
HETATM   19  C   UNL     1     -42.842  61.721 -54.892  1.00  0.00     0.150 C 
BRANCH  19  20
HETATM   20  C   UNL     1     -43.728  61.249 -56.070  1.00  0.00     0.254 C 
BRANCH  20  21
HETATM   21  N   UNL     1     -43.293  59.936 -56.669  1.00  0.00    -0.067 N 
HETATM   22  H   UNL     1     -42.362  59.725 -56.252  1.00  0.00     0.280 HD
HETATM   23  C   UNL     1     -44.156  58.733 -56.302  1.00  0.00     0.254 C 
HETATM   24  C   UNL     1     -43.500  57.431 -56.815  1.00  0.00     0.150 C 
HETATM   25  N   UNL     1     -43.259  57.515 -58.268  1.00  0.00    -0.378 N 
HETATM   26  C   UNL     1     -42.480  58.684 -58.705  1.00  0.00     0.150 C 
HETATM   27  C   UNL     1     -43.090  60.002 -58.180  1.00  0.00     0.254 C 
BRANCH  25  28
HETATM   28  C   UNL     1     -44.132  56.846 -59.119  1.00  0.00     0.030 A 
HETATM   29  C   UNL     1     -43.781  55.686 -59.823  1.00  0.00     0.029 A 
HETATM   30  C   UNL     1     -44.692  55.032 -60.665  1.00  0.00     0.002 A 
HETATM   31  C   UNL     1     -45.985  55.519 -60.813  1.00  0.00     0.000 A 
HETATM   32  C   UNL     1     -46.368  56.656 -60.115  1.00  0.00     0.002 A 
HETATM   33  C   UNL     1     -45.452  57.305 -59.279  1.00  0.00     0.029 A 
ENDBRANCH  25  28
ENDBRANCH  20  21
ENDBRANCH  19  20
ENDBRANCH  16  19
ENDBRANCH   2  15
BRANCH   1  34
HETATM   34  C   UNL     1     -41.924  56.345 -52.832  1.00  0.00     0.076 A 
HETATM   35  C   UNL     1     -41.733  55.427 -51.782  1.00  0.00     0.098 A 
HETATM   36  C   UNL     1     -41.068  54.210 -52.010  1.00  0.00     0.075 A 
HETATM   37  C   UNL     1     -40.537  53.921 -53.266  1.00  0.00     0.070 A 
HETATM   38  C   UNL     1     -40.639  54.867 -54.282  1.00  0.00     0.039 A 
HETATM   39  C   UNL     1     -41.324  56.065 -54.070  1.00  0.00     0.035 A 
BRANCH  35  40
HETATM   40  O   UNL     1     -42.243  55.746 -50.544  1.00  0.00    -0.354 OA
HETATM   41  C   UNL     1     -41.261  55.705 -49.504  1.00  0.00     0.210 C 
ENDBRANCH  35  40
BRANCH  37  42
HETATM   42  O   UNL     1     -39.892  52.769 -53.618  1.00  0.00    -0.356 OA
HETATM   43  C   UNL     1     -39.727  51.788 -52.601  1.00  0.00     0.210 C 
ENDBRANCH  37  42
ENDBRANCH   1  34
TORSDOF 9
ENDMDL
MODEL 9
REMARK VINA RESULT:      -8.2      2.551      5.304
REMARK  9 active torsions:
REMARK  status: ('A' for Active; 'I' for Inactive)
REMARK    1  A    between atoms: O_2  and  C_3 
REMARK    2  A    between atoms: C_5  and  O_6 
REMARK    3  A    between atoms: C_8  and  N_9 
REMARK    4  A    between atoms: C_10  and  O_11 
REMARK    5  A    between atoms: C_10  and  C_12 
REMARK       I    between atoms: C_12  and  N_13 
REMARK    6  A    between atoms: N_13  and  C_14 
REMARK    7  A    between atoms: C_14  and  C_15 
REMARK    8  A    between atoms: C_15  and  N_16 
REMARK    9  A    between atoms: N_20  and  C_21 
ROOT
HETATM    1  N   UNL     1     -43.544  59.598 -56.217  1.00  0.00    -0.251 N 
HETATM    2  C   UNL     1     -44.754  59.919 -55.449  1.00  0.00     0.256 C 
HETATM    3  C   UNL     1     -45.159  61.371 -55.639  1.00  0.00     0.034 A 
HETATM    4  C   UNL     1     -44.154  62.300 -55.886  1.00  0.00     0.048 A 
HETATM    5  N   UNL     1     -42.854  61.840 -56.061  1.00  0.00    -0.308 N 
HETATM    6  C   UNL     1     -42.533  60.541 -56.323  1.00  0.00     0.330 C 
HETATM    7  O   UNL     1     -41.368  60.272 -56.613  1.00  0.00    -0.246 OA
HETATM    8  C   UNL     1     -46.482  61.830 -55.521  1.00  0.00     0.015 A 
HETATM    9  C   UNL     1     -46.777  63.187 -55.664  1.00  0.00     0.001 A 
HETATM   10  C   UNL     1     -45.752  64.103 -55.897  1.00  0.00     0.002 A 
HETATM   11  C   UNL     1     -44.433  63.662 -56.000  1.00  0.00     0.030 A 
HETATM   12  H   UNL     1     -42.112  62.504 -56.262  1.00  0.00     0.170 HD
ENDROOT
BRANCH   2  13
HETATM   13  O   UNL     1     -45.866  59.149 -55.912  1.00  0.00    -0.359 OA
HETATM   14  H   UNL     1     -46.146  58.604 -55.158  1.00  0.00     0.213 HD
ENDBRANCH   2  13
BRANCH   2  15
HETATM   15  C   UNL     1     -44.563  59.669 -53.880  1.00  0.00     0.279 C 
HETATM   16  N   UNL     1     -44.729  58.381 -53.403  1.00  0.00    -0.355 N 
HETATM   17  H   UNL     1     -45.241  57.761 -54.031  1.00  0.00     0.162 HD
HETATM   18  O   UNL     1     -44.200  60.562 -53.103  1.00  0.00    -0.268 OA
BRANCH  16  19
HETATM   19  C   UNL     1     -44.793  58.035 -51.985  1.00  0.00     0.150 C 
BRANCH  19  20
HETATM   20  C   UNL     1     -43.476  58.137 -51.177  1.00  0.00     0.254 C 
BRANCH  20  21
HETATM   21  N   UNL     1     -42.921  56.803 -50.749  1.00  0.00    -0.067 N 
HETATM   22  H   UNL     1     -43.156  56.704 -49.739  1.00  0.00     0.280 HD
HETATM   23  C   UNL     1     -43.564  55.586 -51.409  1.00  0.00     0.254 C 
HETATM   24  C   UNL     1     -43.046  54.288 -50.751  1.00  0.00     0.150 C 
HETATM   25  N   UNL     1     -41.573  54.233 -50.809  1.00  0.00    -0.378 N 
HETATM   26  C   UNL     1     -40.882  55.403 -50.242  1.00  0.00     0.150 C 
HETATM   27  C   UNL     1     -41.400  56.721 -50.855  1.00  0.00     0.254 C 
BRANCH  25  28
HETATM   28  C   UNL     1     -40.982  53.417 -51.767  1.00  0.00     0.030 A 
HETATM   29  C   UNL     1     -41.202  53.564 -53.143  1.00  0.00     0.029 A 
HETATM   30  C   UNL     1     -40.579  52.728 -54.081  1.00  0.00     0.002 A 
HETATM   31  C   UNL     1     -39.707  51.730 -53.662  1.00  0.00     0.000 A 
HETATM   32  C   UNL     1     -39.454  51.572 -52.308  1.00  0.00     0.002 A 
HETATM   33  C   UNL     1     -40.082  52.408 -51.377  1.00  0.00     0.029 A 
ENDBRANCH  25  28
ENDBRANCH  20  21
ENDBRANCH  19  20
ENDBRANCH  16  19
ENDBRANCH   2  15
BRANCH   1  34
HETATM   34  C   UNL     1     -43.428  58.367 -56.947  1.00  0.00     0.076 A 
HETATM   35  C   UNL     1     -43.136  57.128 -56.345  1.00  0.00     0.098 A 
HETATM   36  C   UNL     1     -43.222  55.936 -57.084  1.00  0.00     0.075 A 
HETATM   37  C   UNL     1     -43.542  55.970 -58.441  1.00  0.00     0.070 A 
HETATM   38  C   UNL     1     -43.736  57.199 -59.064  1.00  0.00     0.039 A 
HETATM   39  C   UNL     1     -43.681  58.384 -58.328  1.00  0.00     0.035 A 
BRANCH  35  40
HETATM   40  O   UNL     1     -42.798  57.123 -55.010  1.00  0.00    -0.354 OA
HETATM   41  C   UNL     1     -41.423  56.797 -54.781  1.00  0.00     0.210 C 
ENDBRANCH  35  40
BRANCH  37  42
HETATM   42  O   UNL     1     -43.677  54.884 -59.259  1.00  0.00    -0.356 OA
HETATM   43  C   UNL     1     -44.724  54.931 -60.222  1.00  0.00     0.210 C 
ENDBRANCH  37  42
ENDBRANCH   1  34
TORSDOF 9
ENDMDL
MODEL 10
REMARK VINA RESULT:      -8.2      3.716      6.487
REMARK  9 active torsions:
REMARK  status: ('A' for Active; 'I' for Inactive)
REMARK    1  A    between atoms: O_2  and  C_3 
REMARK    2  A    between atoms: C_5  and  O_6 
REMARK    3  A    between atoms: C_8  and  N_9 
REMARK    4  A    between atoms: C_10  and  O_11 
REMARK    5  A    between atoms: C_10  and  C_12 
REMARK       I    between atoms: C_12  and  N_13 
REMARK    6  A    between atoms: N_13  and  C_14 
REMARK    7  A    between atoms: C_14  and  C_15 
REMARK    8  A    between atoms: C_15  and  N_16 
REMARK    9  A    between atoms: N_20  and  C_21 
ROOT
HETATM    1  N   UNL     1     -43.996  60.090 -52.876  1.00  0.00    -0.251 N 
HETATM    2  C   UNL     1     -43.769  58.660 -53.119  1.00  0.00     0.256 C 
HETATM    3  C   UNL     1     -42.859  58.058 -52.062  1.00  0.00     0.034 A 
HETATM    4  C   UNL     1     -41.906  58.885 -51.477  1.00  0.00     0.048 A 
HETATM    5  N   UNL     1     -41.911  60.236 -51.802  1.00  0.00    -0.308 N 
HETATM    6  C   UNL     1     -42.959  60.875 -52.396  1.00  0.00     0.330 C 
HETATM    7  O   UNL     1     -42.918  62.100 -52.498  1.00  0.00    -0.246 OA
HETATM    8  C   UNL     1     -42.892  56.704 -51.689  1.00  0.00     0.015 A 
HETATM    9  C   UNL     1     -41.995  56.208 -50.741  1.00  0.00     0.001 A 
HETATM   10  C   UNL     1     -41.038  57.051 -50.177  1.00  0.00     0.002 A 
HETATM   11  C   UNL     1     -40.985  58.393 -50.552  1.00  0.00     0.030 A 
HETATM   12  H   UNL     1     -41.234  60.857 -51.367  1.00  0.00     0.170 HD
ENDROOT
BRANCH   2  13
HETATM   13  O   UNL     1     -44.994  57.929 -53.028  1.00  0.00    -0.359 OA
HETATM   14  H   UNL     1     -45.252  57.724 -53.942  1.00  0.00     0.213 HD
ENDBRANCH   2  13
BRANCH   2  15
HETATM   15  C   UNL     1     -43.102  58.385 -54.548  1.00  0.00     0.279 C 
HETATM   16  N   UNL     1     -43.917  57.922 -55.566  1.00  0.00    -0.355 N 
HETATM   17  H   UNL     1     -44.799  57.518 -55.251  1.00  0.00     0.162 HD
HETATM   18  O   UNL     1     -41.916  58.644 -54.790  1.00  0.00    -0.268 OA
BRANCH  16  19
HETATM   19  C   UNL     1     -43.422  57.432 -56.851  1.00  0.00     0.150 C 
BRANCH  19  20
HETATM   20  C   UNL     1     -42.824  56.004 -56.875  1.00  0.00     0.254 C 
BRANCH  20  21
HETATM   21  N   UNL     1     -42.412  55.496 -55.517  1.00  0.00    -0.067 N 
HETATM   22  H   UNL     1     -42.712  56.224 -54.835  1.00  0.00     0.280 HD
HETATM   23  C   UNL     1     -43.120  54.226 -55.053  1.00  0.00     0.254 C 
HETATM   24  C   UNL     1     -42.755  53.920 -53.583  1.00  0.00     0.150 C 
HETATM   25  N   UNL     1     -41.291  53.826 -53.425  1.00  0.00    -0.378 N 
HETATM   26  C   UNL     1     -40.535  54.994 -53.906  1.00  0.00     0.150 C 
HETATM   27  C   UNL     1     -40.901  55.347 -55.364  1.00  0.00     0.254 C 
BRANCH  25  28
HETATM   28  C   UNL     1     -40.720  52.562 -53.330  1.00  0.00     0.030 A 
HETATM   29  C   UNL     1     -40.698  51.646 -54.390  1.00  0.00     0.029 A 
HETATM   30  C   UNL     1     -40.102  50.383 -54.260  1.00  0.00     0.002 A 
HETATM   31  C   UNL     1     -39.500  50.012 -53.064  1.00  0.00     0.000 A 
HETATM   32  C   UNL     1     -39.489  50.903 -52.001  1.00  0.00     0.002 A 
HETATM   33  C   UNL     1     -40.088  52.161 -52.138  1.00  0.00     0.029 A 
ENDBRANCH  25  28
ENDBRANCH  20  21
ENDBRANCH  19  20
ENDBRANCH  16  19
ENDBRANCH   2  15
BRANCH   1  34
HETATM   34  C   UNL     1     -45.300  60.675 -53.026  1.00  0.00     0.076 A 
HETATM   35  C   UNL     1     -46.270  60.689 -52.005  1.00  0.00     0.098 A 
HETATM   36  C   UNL     1     -47.449  61.440 -52.151  1.00  0.00     0.075 A 
HETATM   37  C   UNL     1     -47.701  62.134 -53.334  1.00  0.00     0.070 A 
HETATM   38  C   UNL     1     -46.791  62.044 -54.383  1.00  0.00     0.039 A 
HETATM   39  C   UNL     1     -45.604  61.324 -54.232  1.00  0.00     0.035 A 
BRANCH  35  40
HETATM   40  O   UNL     1     -46.010  59.975 -50.857  1.00  0.00    -0.354 OA
HETATM   41  C   UNL     1     -45.569  60.797 -49.772  1.00  0.00     0.210 C 
ENDBRANCH  35  40
BRANCH  37  42
HETATM   42  O   UNL     1     -48.794  62.913 -53.588  1.00  0.00    -0.356 OA
HETATM   43  C   UNL     1     -50.057  62.404 -53.175  1.00  0.00     0.210 C 
ENDBRANCH  37  42
ENDBRANCH   1  34
TORSDOF 9
ENDMDL
