MODEL 1
REMARK VINA RESULT:      -9.5      0.000      0.000
REMARK  6 active torsions:
REMARK  status: ('A' for Active; 'I' for Inactive)
REMARK    1  A    between atoms: C_4  and  C_5 
REMARK    2  A    between atoms: C_8  and  C_9 
REMARK    3  A    between atoms: C_9  and  C_10 
REMARK       I    between atoms: C_10  and  N_11 
REMARK    4  A    between atoms: N_11  and  C_12 
REMARK    5  A    between atoms: N_13  and  C_14 
REMARK    6  A    between atoms: C_25  and  C_26 
ROOT
HETATM    1  C   UNL     1     -44.049  59.506 -52.760  1.00  0.00     0.152 A 
HETATM    2  N   UNL     1     -44.012  58.892 -51.516  1.00  0.00    -0.044 N 
HETATM    3  N   UNL     1     -44.720  59.582 -50.570  1.00  0.00    -0.148 NA
HETATM    4  C   UNL     1     -45.205  60.637 -51.239  1.00  0.00     0.115 A 
HETATM    5  C   UNL     1     -44.791  60.652 -52.586  1.00  0.00     0.087 A 
ENDROOT
BRANCH   1   6
HETATM    6  N   UNL     1     -43.448  58.954 -53.883  1.00  0.00    -0.311 N 
HETATM    7  C   UNL     1     -43.875  57.770 -54.459  1.00  0.00     0.227 C 
HETATM    8  O   UNL     1     -44.918  57.178 -54.191  1.00  0.00    -0.273 OA
HETATM    9  H   UNL     1     -42.634  59.438 -54.265  1.00  0.00     0.170 HD
BRANCH   7  10
HETATM   10  C   UNL     1     -42.878  57.197 -55.456  1.00  0.00     0.141 C 
BRANCH  10  11
HETATM   11  C   UNL     1     -42.257  55.905 -54.976  1.00  0.00    -0.049 A 
HETATM   12  C   UNL     1     -42.817  54.666 -55.317  1.00  0.00     0.008 A 
HETATM   13  C   UNL     1     -42.249  53.474 -54.861  1.00  0.00     0.013 A 
HETATM   14  C   UNL     1     -41.088  53.474 -54.071  1.00  0.00    -0.026 A 
HETATM   15  C   UNL     1     -40.512  54.719 -53.766  1.00  0.00     0.013 A 
HETATM   16  C   UNL     1     -41.085  55.918 -54.212  1.00  0.00     0.008 A 
BRANCH  14  17
HETATM   17  C   UNL     1     -40.507  52.209 -53.579  1.00  0.00    -0.026 A 
HETATM   18  C   UNL     1     -40.493  51.053 -54.380  1.00  0.00     0.012 A 
HETATM   19  C   UNL     1     -39.967  49.847 -53.907  1.00  0.00     0.001 A 
HETATM   20  C   UNL     1     -39.438  49.775 -52.622  1.00  0.00     0.000 A 
HETATM   21  C   UNL     1     -39.435  50.907 -51.812  1.00  0.00     0.001 A 
HETATM   22  C   UNL     1     -39.965  52.111 -52.287  1.00  0.00     0.012 A 
ENDBRANCH  14  17
ENDBRANCH  10  11
ENDBRANCH   7  10
ENDBRANCH   1   6
BRANCH   2  23
HETATM   23  C   UNL     1     -43.347  57.704 -51.154  1.00  0.00     0.732 A 
HETATM   24  N   UNL     1     -42.056  57.618 -51.014  1.00  0.00    -0.067 NA
HETATM   25  C   UNL     1     -41.620  56.377 -50.639  1.00  0.00     0.065 A 
HETATM   26  C   UNL     1     -42.388  55.309 -50.414  1.00  0.00     0.036 A 
HETATM   27  C   UNL     1     -40.179  56.058 -50.417  1.00  0.00     0.061 C 
HETATM   28  C   UNL     1     -41.628  54.109 -49.999  1.00  0.00     0.047 C 
HETATM   29  C   UNL     1     -43.836  55.424 -50.576  1.00  0.00     0.268 A 
HETATM   30  C   UNL     1     -40.251  54.709 -49.687  1.00  0.00     0.011 C 
HETATM   31  O   UNL     1     -44.599  54.489 -50.382  1.00  0.00    -0.267 OA
HETATM   32  N   UNL     1     -44.238  56.671 -50.962  1.00  0.00    -0.152 N 
HETATM   33  H   UNL     1     -45.229  56.847 -51.094  1.00  0.00     0.188 HD
ENDBRANCH   2  23
BRANCH   4  34
HETATM   34  C   UNL     1     -46.100  61.653 -50.615  1.00  0.00     0.105 A 
HETATM   35  O   UNL     1     -46.177  61.889 -49.269  1.00  0.00    -0.320 OA
HETATM   36  C   UNL     1     -47.074  62.892 -49.085  1.00  0.00     0.142 A 
HETATM   37  C   UNL     1     -47.582  63.311 -50.291  1.00  0.00     0.027 A 
HETATM   38  C   UNL     1     -46.956  62.511 -51.279  1.00  0.00     0.041 A 
ENDBRANCH   4  34
TORSDOF 6
ENDMDL
MODEL 2
REMARK VINA RESULT:      -9.4      1.323      1.901
REMARK  6 active torsions:
REMARK  status: ('A' for Active; 'I' for Inactive)
REMARK    1  A    between atoms: C_4  and  C_5 
REMARK    2  A    between atoms: C_8  and  C_9 
REMARK    3  A    between atoms: C_9  and  C_10 
REMARK       I    between atoms: C_10  and  N_11 
REMARK    4  A    between atoms: N_11  and  C_12 
REMARK    5  A    between atoms: N_13  and  C_14 
REMARK    6  A    between atoms: C_25  and  C_26 
ROOT
HETATM    1  C   UNL     1     -44.346  59.708 -53.643  1.00  0.00     0.152 A 
HETATM    2  N   UNL     1     -44.313  59.306 -52.315  1.00  0.00    -0.044 N 
HETATM    3  N   UNL     1     -45.177  60.020 -51.531  1.00  0.00    -0.148 NA
HETATM    4  C   UNL     1     -45.755  60.874 -52.386  1.00  0.00     0.115 A 
HETATM    5  C   UNL     1     -45.252  60.743 -53.695  1.00  0.00     0.087 A 
ENDROOT
BRANCH   1   6
HETATM    6  N   UNL     1     -43.593  59.086 -54.630  1.00  0.00    -0.311 N 
HETATM    7  C   UNL     1     -43.857  57.803 -55.079  1.00  0.00     0.227 C 
HETATM    8  O   UNL     1     -44.865  57.147 -54.824  1.00  0.00    -0.273 OA
HETATM    9  H   UNL     1     -42.793  59.599 -55.003  1.00  0.00     0.170 HD
BRANCH   7  10
HETATM   10  C   UNL     1     -42.723  57.215 -55.906  1.00  0.00     0.141 C 
BRANCH  10  11
HETATM   11  C   UNL     1     -42.158  55.951 -55.299  1.00  0.00    -0.049 A 
HETATM   12  C   UNL     1     -41.123  56.005 -54.356  1.00  0.00     0.008 A 
HETATM   13  C   UNL     1     -40.594  54.835 -53.806  1.00  0.00     0.013 A 
HETATM   14  C   UNL     1     -41.096  53.572 -54.156  1.00  0.00    -0.026 A 
HETATM   15  C   UNL     1     -42.160  53.529 -55.074  1.00  0.00     0.013 A 
HETATM   16  C   UNL     1     -42.686  54.701 -55.636  1.00  0.00     0.008 A 
BRANCH  14  17
HETATM   17  C   UNL     1     -40.518  52.340 -53.583  1.00  0.00    -0.026 A 
HETATM   18  C   UNL     1     -40.447  51.151 -54.331  1.00  0.00     0.012 A 
HETATM   19  C   UNL     1     -39.924  49.977 -53.782  1.00  0.00     0.001 A 
HETATM   20  C   UNL     1     -39.456  49.970 -52.471  1.00  0.00     0.000 A 
HETATM   21  C   UNL     1     -39.510  51.135 -51.712  1.00  0.00     0.001 A 
HETATM   22  C   UNL     1     -40.037  52.307 -52.263  1.00  0.00     0.012 A 
ENDBRANCH  14  17
ENDBRANCH  10  11
ENDBRANCH   7  10
ENDBRANCH   1   6
BRANCH   2  23
HETATM   23  C   UNL     1     -43.516  58.301 -51.731  1.00  0.00     0.732 A 
HETATM   24  N   UNL     1     -43.945  57.097 -51.486  1.00  0.00    -0.067 NA
HETATM   25  C   UNL     1     -43.003  56.274 -50.935  1.00  0.00     0.065 A 
HETATM   26  C   UNL     1     -41.740  56.602 -50.653  1.00  0.00     0.036 A 
HETATM   27  C   UNL     1     -43.278  54.851 -50.580  1.00  0.00     0.061 C 
HETATM   28  C   UNL     1     -40.951  55.489 -50.081  1.00  0.00     0.047 C 
HETATM   29  C   UNL     1     -41.276  57.959 -50.935  1.00  0.00     0.268 A 
HETATM   30  C   UNL     1     -41.867  54.290 -50.356  1.00  0.00     0.011 C 
HETATM   31  O   UNL     1     -40.133  58.327 -50.708  1.00  0.00    -0.267 OA
HETATM   32  N   UNL     1     -42.243  58.759 -51.474  1.00  0.00    -0.152 N 
HETATM   33  H   UNL     1     -42.010  59.720 -51.708  1.00  0.00     0.188 HD
ENDBRANCH   2  23
BRANCH   4  34
HETATM   34  C   UNL     1     -46.827  61.829 -51.980  1.00  0.00     0.105 A 
HETATM   35  O   UNL     1     -46.847  62.505 -50.790  1.00  0.00    -0.320 OA
HETATM   36  C   UNL     1     -47.954  63.291 -50.790  1.00  0.00     0.142 A 
HETATM   37  C   UNL     1     -48.655  63.136 -51.961  1.00  0.00     0.027 A 
HETATM   38  C   UNL     1     -47.930  62.191 -52.729  1.00  0.00     0.041 A 
ENDBRANCH   4  34
TORSDOF 6
ENDMDL
MODEL 3
REMARK VINA RESULT:      -9.1      3.641      5.947
REMARK  6 active torsions:
REMARK  status: ('A' for Active; 'I' for Inactive)
REMARK    1  A    between atoms: C_4  and  C_5 
REMARK    2  A    between atoms: C_8  and  C_9 
REMARK    3  A    between atoms: C_9  and  C_10 
REMARK       I    between atoms: C_10  and  N_11 
REMARK    4  A    between atoms: N_11  and  C_12 
REMARK    5  A    between atoms: N_13  and  C_14 
REMARK    6  A    between atoms: C_25  and  C_26 
ROOT
HETATM    1  C   UNL     1     -41.875  58.635 -57.892  1.00  0.00     0.152 A 
HETATM    2  N   UNL     1     -41.972  59.472 -56.789  1.00  0.00    -0.044 N 
HETATM    3  N   UNL     1     -41.790  60.789 -57.115  1.00  0.00    -0.148 NA
HETATM    4  C   UNL     1     -41.580  60.766 -58.438  1.00  0.00     0.115 A 
HETATM    5  C   UNL     1     -41.591  59.456 -58.959  1.00  0.00     0.087 A 
ENDROOT
BRANCH   1   6
HETATM    6  N   UNL     1     -42.081  57.264 -57.808  1.00  0.00    -0.311 N 
HETATM    7  C   UNL     1     -43.313  56.706 -57.515  1.00  0.00     0.227 C 
HETATM    8  O   UNL     1     -44.384  57.308 -57.488  1.00  0.00    -0.273 OA
HETATM    9  H   UNL     1     -41.269  56.659 -57.937  1.00  0.00     0.170 HD
BRANCH   7  10
HETATM   10  C   UNL     1     -43.229  55.229 -57.153  1.00  0.00     0.141 C 
BRANCH  10  11
HETATM   11  C   UNL     1     -42.751  55.007 -55.736  1.00  0.00    -0.049 A 
HETATM   12  C   UNL     1     -41.405  54.731 -55.465  1.00  0.00     0.008 A 
HETATM   13  C   UNL     1     -40.968  54.512 -54.156  1.00  0.00     0.013 A 
HETATM   14  C   UNL     1     -41.853  54.588 -53.069  1.00  0.00    -0.026 A 
HETATM   15  C   UNL     1     -43.194  54.902 -53.347  1.00  0.00     0.013 A 
HETATM   16  C   UNL     1     -43.639  55.111 -54.660  1.00  0.00     0.008 A 
BRANCH  14  17
HETATM   17  C   UNL     1     -41.385  54.337 -51.691  1.00  0.00    -0.026 A 
HETATM   18  C   UNL     1     -42.148  54.734 -50.579  1.00  0.00     0.012 A 
HETATM   19  C   UNL     1     -41.695  54.522 -49.273  1.00  0.00     0.001 A 
HETATM   20  C   UNL     1     -40.468  53.902 -49.055  1.00  0.00     0.000 A 
HETATM   21  C   UNL     1     -39.698  53.494 -50.139  1.00  0.00     0.001 A 
HETATM   22  C   UNL     1     -40.152  53.711 -51.444  1.00  0.00     0.012 A 
ENDBRANCH  14  17
ENDBRANCH  10  11
ENDBRANCH   7  10
ENDBRANCH   1   6
BRANCH   2  23
HETATM   23  C   UNL     1     -42.215  59.117 -55.448  1.00  0.00     0.732 A 
HETATM   24  N   UNL     1     -41.279  58.750 -54.622  1.00  0.00    -0.067 NA
HETATM   25  C   UNL     1     -41.730  58.468 -53.362  1.00  0.00     0.065 A 
HETATM   26  C   UNL     1     -42.996  58.543 -52.945  1.00  0.00     0.036 A 
HETATM   27  C   UNL     1     -40.827  58.034 -52.256  1.00  0.00     0.061 C 
HETATM   28  C   UNL     1     -43.172  58.196 -51.518  1.00  0.00     0.047 C 
HETATM   29  C   UNL     1     -44.034  58.956 -53.887  1.00  0.00     0.268 A 
HETATM   30  C   UNL     1     -41.721  58.197 -51.019  1.00  0.00     0.011 C 
HETATM   31  O   UNL     1     -45.211  59.052 -53.573  1.00  0.00    -0.267 OA
HETATM   32  N   UNL     1     -43.553  59.220 -55.138  1.00  0.00    -0.152 N 
HETATM   33  H   UNL     1     -44.202  59.520 -55.860  1.00  0.00     0.188 HD
ENDBRANCH   2  23
BRANCH   4  34
HETATM   34  C   UNL     1     -41.386  62.001 -59.251  1.00  0.00     0.105 A 
HETATM   35  O   UNL     1     -42.403  62.710 -59.830  1.00  0.00    -0.320 OA
HETATM   36  C   UNL     1     -41.845  63.774 -60.462  1.00  0.00     0.142 A 
HETATM   37  C   UNL     1     -40.480  63.768 -60.303  1.00  0.00     0.027 A 
HETATM   38  C   UNL     1     -40.182  62.622 -59.524  1.00  0.00     0.041 A 
ENDBRANCH   4  34
TORSDOF 6
ENDMDL
MODEL 4
REMARK VINA RESULT:      -8.7      4.035      9.330
REMARK  6 active torsions:
REMARK  status: ('A' for Active; 'I' for Inactive)
REMARK    1  A    between atoms: C_4  and  C_5 
REMARK    2  A    between atoms: C_8  and  C_9 
REMARK    3  A    between atoms: C_9  and  C_10 
REMARK       I    between atoms: C_10  and  N_11 
REMARK    4  A    between atoms: N_11  and  C_12 
REMARK    5  A    between atoms: N_13  and  C_14 
REMARK    6  A    between atoms: C_25  and  C_26 
ROOT
HETATM    1  C   UNL     1     -42.076  56.168 -54.146  1.00  0.00     0.152 A 
HETATM    2  N   UNL     1     -42.015  55.582 -55.403  1.00  0.00    -0.044 N 
HETATM    3  N   UNL     1     -41.413  54.353 -55.378  1.00  0.00    -0.148 NA
HETATM    4  C   UNL     1     -41.100  54.175 -54.088  1.00  0.00     0.115 A 
HETATM    5  C   UNL     1     -41.459  55.281 -53.293  1.00  0.00     0.087 A 
ENDROOT
BRANCH   1   6
HETATM    6  N   UNL     1     -42.695  57.390 -53.922  1.00  0.00    -0.311 N 
HETATM    7  C   UNL     1     -43.780  57.539 -53.075  1.00  0.00     0.227 C 
HETATM    8  O   UNL     1     -44.197  56.691 -52.288  1.00  0.00    -0.273 OA
HETATM    9  H   UNL     1     -42.343  58.196 -54.441  1.00  0.00     0.170 HD
BRANCH   7  10
HETATM   10  C   UNL     1     -44.487  58.877 -53.240  1.00  0.00     0.141 C 
BRANCH  10  11
HETATM   11  C   UNL     1     -44.964  59.108 -54.656  1.00  0.00    -0.049 A 
HETATM   12  C   UNL     1     -45.552  58.074 -55.396  1.00  0.00     0.008 A 
HETATM   13  C   UNL     1     -45.979  58.287 -56.709  1.00  0.00     0.013 A 
HETATM   14  C   UNL     1     -45.860  59.545 -57.320  1.00  0.00    -0.026 A 
HETATM   15  C   UNL     1     -45.303  60.586 -56.558  1.00  0.00     0.013 A 
HETATM   16  C   UNL     1     -44.863  60.373 -55.244  1.00  0.00     0.008 A 
BRANCH  14  17
HETATM   17  C   UNL     1     -46.298  59.755 -58.715  1.00  0.00    -0.026 A 
HETATM   18  C   UNL     1     -47.141  58.833 -59.360  1.00  0.00     0.012 A 
HETATM   19  C   UNL     1     -47.536  59.015 -60.689  1.00  0.00     0.001 A 
HETATM   20  C   UNL     1     -47.098  60.129 -61.398  1.00  0.00     0.000 A 
HETATM   21  C   UNL     1     -46.267  61.059 -60.780  1.00  0.00     0.001 A 
HETATM   22  C   UNL     1     -45.871  60.872 -59.452  1.00  0.00     0.012 A 
ENDBRANCH  14  17
ENDBRANCH  10  11
ENDBRANCH   7  10
ENDBRANCH   1   6
BRANCH   2  23
HETATM   23  C   UNL     1     -42.476  56.104 -56.627  1.00  0.00     0.732 A 
HETATM   24  N   UNL     1     -42.269  57.330 -57.008  1.00  0.00    -0.067 NA
HETATM   25  C   UNL     1     -42.785  57.624 -58.240  1.00  0.00     0.065 A 
HETATM   26  C   UNL     1     -43.448  56.781 -59.035  1.00  0.00     0.036 A 
HETATM   27  C   UNL     1     -42.657  58.969 -58.872  1.00  0.00     0.061 C 
HETATM   28  C   UNL     1     -43.867  57.384 -60.320  1.00  0.00     0.047 C 
HETATM   29  C   UNL     1     -43.673  55.407 -58.591  1.00  0.00     0.268 A 
HETATM   30  C   UNL     1     -43.057  58.687 -60.327  1.00  0.00     0.011 C 
HETATM   31  O   UNL     1     -44.266  54.582 -59.269  1.00  0.00    -0.267 OA
HETATM   32  N   UNL     1     -43.154  55.149 -57.353  1.00  0.00    -0.152 N 
HETATM   33  H   UNL     1     -43.258  54.217 -56.963  1.00  0.00     0.188 HD
ENDBRANCH   2  23
BRANCH   4  34
HETATM   34  C   UNL     1     -40.466  52.928 -53.571  1.00  0.00     0.105 A 
HETATM   35  O   UNL     1     -39.994  52.775 -52.295  1.00  0.00    -0.320 OA
HETATM   36  C   UNL     1     -39.515  51.509 -52.191  1.00  0.00     0.142 A 
HETATM   37  C   UNL     1     -39.666  50.837 -53.379  1.00  0.00     0.027 A 
HETATM   38  C   UNL     1     -40.278  51.752 -54.272  1.00  0.00     0.041 A 
ENDBRANCH   4  34
TORSDOF 6
ENDMDL
MODEL 5
REMARK VINA RESULT:      -8.7      2.587      8.691
REMARK  6 active torsions:
REMARK  status: ('A' for Active; 'I' for Inactive)
REMARK    1  A    between atoms: C_4  and  C_5 
REMARK    2  A    between atoms: C_8  and  C_9 
REMARK    3  A    between atoms: C_9  and  C_10 
REMARK       I    between atoms: C_10  and  N_11 
REMARK    4  A    between atoms: N_11  and  C_12 
REMARK    5  A    between atoms: N_13  and  C_14 
REMARK    6  A    between atoms: C_25  and  C_26 
ROOT
HETATM    1  C   UNL     1     -42.784  55.226 -54.411  1.00  0.00     0.152 A 
HETATM    2  N   UNL     1     -42.109  55.689 -53.290  1.00  0.00    -0.044 N 
HETATM    3  N   UNL     1     -41.270  54.747 -52.759  1.00  0.00    -0.148 NA
HETATM    4  C   UNL     1     -41.426  53.688 -53.565  1.00  0.00     0.115 A 
HETATM    5  C   UNL     1     -42.375  53.923 -54.580  1.00  0.00     0.087 A 
ENDROOT
BRANCH   1   6
HETATM    6  N   UNL     1     -43.646  56.028 -55.148  1.00  0.00    -0.311 N 
HETATM    7  C   UNL     1     -43.239  56.744 -56.260  1.00  0.00     0.227 C 
HETATM    8  O   UNL     1     -42.163  56.618 -56.840  1.00  0.00    -0.273 OA
HETATM    9  H   UNL     1     -44.609  56.108 -54.818  1.00  0.00     0.170 HD
BRANCH   7  10
HETATM   10  C   UNL     1     -44.252  57.793 -56.698  1.00  0.00     0.141 C 
BRANCH  10  11
HETATM   11  C   UNL     1     -44.252  59.009 -55.800  1.00  0.00    -0.049 A 
HETATM   12  C   UNL     1     -45.420  59.422 -55.147  1.00  0.00     0.008 A 
HETATM   13  C   UNL     1     -45.421  60.554 -54.327  1.00  0.00     0.013 A 
HETATM   14  C   UNL     1     -44.250  61.298 -54.110  1.00  0.00    -0.026 A 
HETATM   15  C   UNL     1     -43.075  60.854 -54.739  1.00  0.00     0.013 A 
HETATM   16  C   UNL     1     -43.073  59.725 -55.570  1.00  0.00     0.008 A 
BRANCH  14  17
HETATM   17  C   UNL     1     -44.266  62.503 -53.257  1.00  0.00    -0.026 A 
HETATM   18  C   UNL     1     -43.161  63.372 -53.203  1.00  0.00     0.012 A 
HETATM   19  C   UNL     1     -43.163  64.499 -52.376  1.00  0.00     0.001 A 
HETATM   20  C   UNL     1     -44.275  64.782 -51.588  1.00  0.00     0.000 A 
HETATM   21  C   UNL     1     -45.383  63.941 -51.629  1.00  0.00     0.001 A 
HETATM   22  C   UNL     1     -45.376  62.813 -52.454  1.00  0.00     0.012 A 
ENDBRANCH  14  17
ENDBRANCH  10  11
ENDBRANCH   7  10
ENDBRANCH   1   6
BRANCH   2  23
HETATM   23  C   UNL     1     -42.207  56.955 -52.679  1.00  0.00     0.732 A 
HETATM   24  N   UNL     1     -43.315  57.433 -52.193  1.00  0.00    -0.067 NA
HETATM   25  C   UNL     1     -43.183  58.670 -51.627  1.00  0.00     0.065 A 
HETATM   26  C   UNL     1     -42.056  59.380 -51.540  1.00  0.00     0.036 A 
HETATM   27  C   UNL     1     -44.326  59.402 -51.004  1.00  0.00     0.061 C 
HETATM   28  C   UNL     1     -42.224  60.679 -50.852  1.00  0.00     0.047 C 
HETATM   29  C   UNL     1     -40.821  58.827 -52.093  1.00  0.00     0.268 A 
HETATM   30  C   UNL     1     -43.615  60.518 -50.226  1.00  0.00     0.011 C 
HETATM   31  O   UNL     1     -39.753  59.418 -52.044  1.00  0.00    -0.267 OA
HETATM   32  N   UNL     1     -40.988  57.595 -52.660  1.00  0.00    -0.152 N 
HETATM   33  H   UNL     1     -40.182  57.130 -53.067  1.00  0.00     0.188 HD
ENDBRANCH   2  23
BRANCH   4  34
HETATM   34  C   UNL     1     -40.654  52.423 -53.401  1.00  0.00     0.105 A 
HETATM   35  O   UNL     1     -40.025  52.048 -52.244  1.00  0.00    -0.320 OA
HETATM   36  C   UNL     1     -39.453  50.837 -52.470  1.00  0.00     0.142 A 
HETATM   37  C   UNL     1     -39.698  50.420 -53.755  1.00  0.00     0.027 A 
HETATM   38  C   UNL     1     -40.471  51.443 -54.358  1.00  0.00     0.041 A 
ENDBRANCH   4  34
TORSDOF 6
ENDMDL
MODEL 6
REMARK VINA RESULT:      -8.4      1.814      4.309
REMARK  6 active torsions:
REMARK  status: ('A' for Active; 'I' for Inactive)
REMARK    1  A    between atoms: C_4  and  C_5 
REMARK    2  A    between atoms: C_8  and  C_9 
REMARK    3  A    between atoms: C_9  and  C_10 
REMARK       I    between atoms: C_10  and  N_11 
REMARK    4  A    between atoms: N_11  and  C_12 
REMARK    5  A    between atoms: N_13  and  C_14 
REMARK    6  A    between atoms: C_25  and  C_26 
ROOT
HETATM    1  C   UNL     1     -44.211  59.628 -52.553  1.00  0.00     0.152 A 
HETATM    2  N   UNL     1     -44.798  59.600 -53.810  1.00  0.00    -0.044 N 
HETATM    3  N   UNL     1     -45.904  60.403 -53.889  1.00  0.00    -0.148 NA
HETATM    4  C   UNL     1     -46.000  60.937 -52.664  1.00  0.00     0.115 A 
HETATM    5  C   UNL     1     -44.998  60.464 -51.794  1.00  0.00     0.087 A 
ENDROOT
BRANCH   1   6
HETATM    6  N   UNL     1     -43.045  58.934 -52.258  1.00  0.00    -0.311 N 
HETATM    7  C   UNL     1     -43.014  57.841 -51.410  1.00  0.00     0.227 C 
HETATM    8  O   UNL     1     -43.997  57.239 -50.982  1.00  0.00    -0.273 OA
HETATM    9  H   UNL     1     -42.177  59.283 -52.666  1.00  0.00     0.170 HD
BRANCH   7  10
HETATM   10  C   UNL     1     -41.606  57.456 -50.981  1.00  0.00     0.141 C 
BRANCH  10  11
HETATM   11  C   UNL     1     -41.238  56.050 -51.396  1.00  0.00    -0.049 A 
HETATM   12  C   UNL     1     -40.804  55.110 -50.452  1.00  0.00     0.008 A 
HETATM   13  C   UNL     1     -40.452  53.815 -50.840  1.00  0.00     0.013 A 
HETATM   14  C   UNL     1     -40.544  53.405 -52.180  1.00  0.00    -0.026 A 
HETATM   15  C   UNL     1     -41.015  54.343 -53.114  1.00  0.00     0.013 A 
HETATM   16  C   UNL     1     -41.360  55.646 -52.730  1.00  0.00     0.008 A 
BRANCH  14  17
HETATM   17  C   UNL     1     -40.152  52.039 -52.582  1.00  0.00    -0.026 A 
HETATM   18  C   UNL     1     -40.164  51.646 -53.932  1.00  0.00     0.012 A 
HETATM   19  C   UNL     1     -39.819  50.346 -54.314  1.00  0.00     0.001 A 
HETATM   20  C   UNL     1     -39.448  49.413 -53.350  1.00  0.00     0.000 A 
HETATM   21  C   UNL     1     -39.421  49.780 -52.008  1.00  0.00     0.001 A 
HETATM   22  C   UNL     1     -39.771  51.080 -51.629  1.00  0.00     0.012 A 
ENDBRANCH  14  17
ENDBRANCH  10  11
ENDBRANCH   7  10
ENDBRANCH   1   6
BRANCH   2  23
HETATM   23  C   UNL     1     -44.395  58.862 -54.941  1.00  0.00     0.732 A 
HETATM   24  N   UNL     1     -43.781  57.717 -54.868  1.00  0.00    -0.067 NA
HETATM   25  C   UNL     1     -43.498  57.162 -56.085  1.00  0.00     0.065 A 
HETATM   26  C   UNL     1     -43.798  57.684 -57.277  1.00  0.00     0.036 A 
HETATM   27  C   UNL     1     -42.803  55.849 -56.235  1.00  0.00     0.061 C 
HETATM   28  C   UNL     1     -43.382  56.837 -58.417  1.00  0.00     0.047 C 
HETATM   29  C   UNL     1     -44.488  58.971 -57.338  1.00  0.00     0.268 A 
HETATM   30  C   UNL     1     -43.047  55.516 -57.713  1.00  0.00     0.011 C 
HETATM   31  O   UNL     1     -44.797  59.504 -58.394  1.00  0.00    -0.267 OA
HETATM   32  N   UNL     1     -44.746  59.504 -56.108  1.00  0.00    -0.152 N 
HETATM   33  H   UNL     1     -45.228  60.396 -56.052  1.00  0.00     0.188 HD
ENDBRANCH   2  23
BRANCH   4  34
HETATM   34  C   UNL     1     -47.043  61.936 -52.294  1.00  0.00     0.105 A 
HETATM   35  O   UNL     1     -47.080  62.606 -51.101  1.00  0.00    -0.320 OA
HETATM   36  C   UNL     1     -48.151  63.440 -51.139  1.00  0.00     0.142 A 
HETATM   37  C   UNL     1     -48.812  63.322 -52.337  1.00  0.00     0.027 A 
HETATM   38  C   UNL     1     -48.100  62.350 -53.083  1.00  0.00     0.041 A 
ENDBRANCH   4  34
TORSDOF 6
ENDMDL
MODEL 7
REMARK VINA RESULT:      -8.4      2.160      5.283
REMARK  6 active torsions:
REMARK  status: ('A' for Active; 'I' for Inactive)
REMARK    1  A    between atoms: C_4  and  C_5 
REMARK    2  A    between atoms: C_8  and  C_9 
REMARK    3  A    between atoms: C_9  and  C_10 
REMARK       I    between atoms: C_10  and  N_11 
REMARK    4  A    between atoms: N_11  and  C_12 
REMARK    5  A    between atoms: N_13  and  C_14 
REMARK    6  A    between atoms: C_25  and  C_26 
ROOT
HETATM    1  C   UNL     1     -43.794  58.655 -52.277  1.00  0.00     0.152 A 
HETATM    2  N   UNL     1     -44.430  59.883 -52.163  1.00  0.00    -0.044 N 
HETATM    3  N   UNL     1     -45.083  60.242 -53.310  1.00  0.00    -0.148 NA
HETATM    4  C   UNL     1     -44.851  59.220 -54.144  1.00  0.00     0.115 A 
HETATM    5  C   UNL     1     -44.033  58.230 -53.564  1.00  0.00     0.087 A 
ENDROOT
BRANCH   1   6
HETATM    6  N   UNL     1     -43.116  58.064 -51.219  1.00  0.00    -0.311 N 
HETATM    7  C   UNL     1     -41.744  58.154 -51.061  1.00  0.00     0.227 C 
HETATM    8  O   UNL     1     -40.997  58.900 -51.692  1.00  0.00    -0.273 OA
HETATM    9  H   UNL     1     -43.666  57.514 -50.558  1.00  0.00     0.170 HD
BRANCH   7  10
HETATM   10  C   UNL     1     -41.193  57.170 -50.039  1.00  0.00     0.141 C 
BRANCH  10  11
HETATM   11  C   UNL     1     -40.887  55.818 -50.643  1.00  0.00    -0.049 A 
HETATM   12  C   UNL     1     -41.275  55.510 -51.953  1.00  0.00     0.008 A 
HETATM   13  C   UNL     1     -41.003  54.256 -52.505  1.00  0.00     0.013 A 
HETATM   14  C   UNL     1     -40.312  53.274 -51.778  1.00  0.00    -0.026 A 
HETATM   15  C   UNL     1     -39.894  53.605 -50.478  1.00  0.00     0.013 A 
HETATM   16  C   UNL     1     -40.174  54.858 -49.917  1.00  0.00     0.008 A 
BRANCH  14  17
HETATM   17  C   UNL     1     -40.045  51.945 -52.363  1.00  0.00    -0.026 A 
HETATM   18  C   UNL     1     -39.731  50.840 -51.551  1.00  0.00     0.012 A 
HETATM   19  C   UNL     1     -39.452  49.587 -52.105  1.00  0.00     0.001 A 
HETATM   20  C   UNL     1     -39.487  49.413 -53.485  1.00  0.00     0.000 A 
HETATM   21  C   UNL     1     -39.801  50.489 -54.309  1.00  0.00     0.001 A 
HETATM   22  C   UNL     1     -40.076  51.742 -53.753  1.00  0.00     0.012 A 
ENDBRANCH  14  17
ENDBRANCH  10  11
ENDBRANCH   7  10
ENDBRANCH   1   6
BRANCH   2  23
HETATM   23  C   UNL     1     -44.456  60.747 -51.051  1.00  0.00     0.732 A 
HETATM   24  N   UNL     1     -43.818  61.881 -51.007  1.00  0.00    -0.067 NA
HETATM   25  C   UNL     1     -43.995  62.573 -49.841  1.00  0.00     0.065 A 
HETATM   26  C   UNL     1     -44.741  62.187 -48.804  1.00  0.00     0.036 A 
HETATM   27  C   UNL     1     -43.361  63.898 -49.581  1.00  0.00     0.061 C 
HETATM   28  C   UNL     1     -44.755  63.160 -47.689  1.00  0.00     0.047 C 
HETATM   29  C   UNL     1     -45.450  60.910 -48.870  1.00  0.00     0.268 A 
HETATM   30  C   UNL     1     -44.132  64.395 -48.351  1.00  0.00     0.011 C 
HETATM   31  O   UNL     1     -46.154  60.498 -47.960  1.00  0.00    -0.267 OA
HETATM   32  N   UNL     1     -45.244  60.239 -50.042  1.00  0.00    -0.152 N 
HETATM   33  H   UNL     1     -45.701  59.343 -50.180  1.00  0.00     0.188 HD
ENDBRANCH   2  23
BRANCH   4  34
HETATM   34  C   UNL     1     -45.426  59.147 -55.519  1.00  0.00     0.105 A 
HETATM   35  O   UNL     1     -45.926  58.006 -56.086  1.00  0.00    -0.320 OA
HETATM   36  C   UNL     1     -46.377  58.334 -57.323  1.00  0.00     0.142 A 
HETATM   37  C   UNL     1     -46.177  59.670 -57.571  1.00  0.00     0.027 A 
HETATM   38  C   UNL     1     -45.560  60.195 -56.409  1.00  0.00     0.041 A 
ENDBRANCH   4  34
TORSDOF 6
ENDMDL
MODEL 8
REMARK VINA RESULT:      -8.4      3.008      9.652
REMARK  6 active torsions:
REMARK  status: ('A' for Active; 'I' for Inactive)
REMARK    1  A    between atoms: C_4  and  C_5 
REMARK    2  A    between atoms: C_8  and  C_9 
REMARK    3  A    between atoms: C_9  and  C_10 
REMARK       I    between atoms: C_10  and  N_11 
REMARK    4  A    between atoms: N_11  and  C_12 
REMARK    5  A    between atoms: N_13  and  C_14 
REMARK    6  A    between atoms: C_25  and  C_26 
ROOT
HETATM    1  C   UNL     1     -41.859  56.407 -54.060  1.00  0.00     0.152 A 
HETATM    2  N   UNL     1     -41.955  55.803 -55.307  1.00  0.00    -0.044 N 
HETATM    3  N   UNL     1     -41.444  54.534 -55.313  1.00  0.00    -0.148 NA
HETATM    4  C   UNL     1     -41.030  54.348 -54.053  1.00  0.00     0.115 A 
HETATM    5  C   UNL     1     -41.234  55.487 -53.249  1.00  0.00     0.087 A 
ENDROOT
BRANCH   1   6
HETATM    6  N   UNL     1     -42.364  57.674 -53.804  1.00  0.00    -0.311 N 
HETATM    7  C   UNL     1     -43.603  57.886 -53.224  1.00  0.00     0.227 C 
HETATM    8  O   UNL     1     -44.305  57.025 -52.697  1.00  0.00    -0.273 OA
HETATM    9  H   UNL     1     -41.799  58.472 -54.096  1.00  0.00     0.170 HD
BRANCH   7  10
HETATM   10  C   UNL     1     -44.081  59.327 -53.344  1.00  0.00     0.141 C 
BRANCH  10  11
HETATM   11  C   UNL     1     -44.274  59.987 -51.998  1.00  0.00    -0.049 A 
HETATM   12  C   UNL     1     -43.180  60.478 -51.273  1.00  0.00     0.008 A 
HETATM   13  C   UNL     1     -43.359  61.075 -50.023  1.00  0.00     0.013 A 
HETATM   14  C   UNL     1     -44.637  61.228 -49.464  1.00  0.00    -0.026 A 
HETATM   15  C   UNL     1     -45.732  60.767 -50.214  1.00  0.00     0.013 A 
HETATM   16  C   UNL     1     -45.555  60.157 -51.464  1.00  0.00     0.008 A 
BRANCH  14  17
HETATM   17  C   UNL     1     -44.814  61.844 -48.134  1.00  0.00    -0.026 A 
HETATM   18  C   UNL     1     -44.929  61.056 -46.975  1.00  0.00     0.012 A 
HETATM   19  C   UNL     1     -45.123  61.636 -45.717  1.00  0.00     0.001 A 
HETATM   20  C   UNL     1     -45.201  63.020 -45.594  1.00  0.00     0.000 A 
HETATM   21  C   UNL     1     -45.084  63.822 -46.726  1.00  0.00     0.001 A 
HETATM   22  C   UNL     1     -44.893  63.239 -47.982  1.00  0.00     0.012 A 
ENDBRANCH  14  17
ENDBRANCH  10  11
ENDBRANCH   7  10
ENDBRANCH   1   6
BRANCH   2  23
HETATM   23  C   UNL     1     -42.486  56.344 -56.494  1.00  0.00     0.732 A 
HETATM   24  N   UNL     1     -42.413  57.605 -56.804  1.00  0.00    -0.067 NA
HETATM   25  C   UNL     1     -42.975  57.914 -58.012  1.00  0.00     0.065 A 
HETATM   26  C   UNL     1     -43.558  57.054 -58.850  1.00  0.00     0.036 A 
HETATM   27  C   UNL     1     -42.997  59.300 -58.565  1.00  0.00     0.061 C 
HETATM   28  C   UNL     1     -44.056  57.683 -60.093  1.00  0.00     0.047 C 
HETATM   29  C   UNL     1     -43.632  55.641 -58.485  1.00  0.00     0.268 A 
HETATM   30  C   UNL     1     -43.387  59.061 -60.031  1.00  0.00     0.011 C 
HETATM   31  O   UNL     1     -44.146  54.798 -59.206  1.00  0.00    -0.267 OA
HETATM   32  N   UNL     1     -43.072  55.367 -57.269  1.00  0.00    -0.152 N 
HETATM   33  H   UNL     1     -43.072  54.409 -56.934  1.00  0.00     0.188 HD
ENDBRANCH   2  23
BRANCH   4  34
HETATM   34  C   UNL     1     -40.445  53.063 -53.572  1.00  0.00     0.105 A 
HETATM   35  O   UNL     1     -40.018  52.843 -52.290  1.00  0.00    -0.320 OA
HETATM   36  C   UNL     1     -39.574  51.561 -52.227  1.00  0.00     0.142 A 
HETATM   37  C   UNL     1     -39.704  50.945 -53.448  1.00  0.00     0.027 A 
HETATM   38  C   UNL     1     -40.263  51.914 -54.318  1.00  0.00     0.041 A 
ENDBRANCH   4  34
TORSDOF 6
ENDMDL
MODEL 9
REMARK VINA RESULT:      -8.4      3.609      8.763
REMARK  6 active torsions:
REMARK  status: ('A' for Active; 'I' for Inactive)
REMARK    1  A    between atoms: C_4  and  C_5 
REMARK    2  A    between atoms: C_8  and  C_9 
REMARK    3  A    between atoms: C_9  and  C_10 
REMARK       I    between atoms: C_10  and  N_11 
REMARK    4  A    between atoms: N_11  and  C_12 
REMARK    5  A    between atoms: N_13  and  C_14 
REMARK    6  A    between atoms: C_25  and  C_26 
ROOT
HETATM    1  C   UNL     1     -41.181  54.128 -54.753  1.00  0.00     0.152 A 
HETATM    2  N   UNL     1     -41.256  54.626 -53.460  1.00  0.00    -0.044 N 
HETATM    3  N   UNL     1     -40.870  53.707 -52.523  1.00  0.00    -0.148 NA
HETATM    4  C   UNL     1     -40.550  52.626 -53.246  1.00  0.00     0.115 A 
HETATM    5  C   UNL     1     -40.756  52.825 -54.626  1.00  0.00     0.087 A 
ENDROOT
BRANCH   1   6
HETATM    6  N   UNL     1     -41.470  54.902 -55.869  1.00  0.00    -0.311 N 
HETATM    7  C   UNL     1     -42.751  55.328 -56.177  1.00  0.00     0.227 C 
HETATM    8  O   UNL     1     -43.729  55.254 -55.436  1.00  0.00    -0.273 OA
HETATM    9  H   UNL     1     -40.697  55.127 -56.497  1.00  0.00     0.170 HD
BRANCH   7  10
HETATM   10  C   UNL     1     -42.876  55.868 -57.595  1.00  0.00     0.141 C 
BRANCH  10  11
HETATM   11  C   UNL     1     -42.543  57.340 -57.684  1.00  0.00    -0.049 A 
HETATM   12  C   UNL     1     -42.548  58.151 -56.542  1.00  0.00     0.008 A 
HETATM   13  C   UNL     1     -42.253  59.514 -56.629  1.00  0.00     0.013 A 
HETATM   14  C   UNL     1     -41.916  60.110 -57.854  1.00  0.00    -0.026 A 
HETATM   15  C   UNL     1     -41.877  59.282 -58.988  1.00  0.00     0.013 A 
HETATM   16  C   UNL     1     -42.183  57.916 -58.907  1.00  0.00     0.008 A 
BRANCH  14  17
HETATM   17  C   UNL     1     -41.624  61.555 -57.939  1.00  0.00    -0.026 A 
HETATM   18  C   UNL     1     -42.515  62.511 -57.419  1.00  0.00     0.012 A 
HETATM   19  C   UNL     1     -42.254  63.880 -57.521  1.00  0.00     0.001 A 
HETATM   20  C   UNL     1     -41.089  64.322 -58.143  1.00  0.00     0.000 A 
HETATM   21  C   UNL     1     -40.189  63.395 -58.660  1.00  0.00     0.001 A 
HETATM   22  C   UNL     1     -40.455  62.026 -58.559  1.00  0.00     0.012 A 
ENDBRANCH  14  17
ENDBRANCH  10  11
ENDBRANCH   7  10
ENDBRANCH   1   6
BRANCH   2  23
HETATM   23  C   UNL     1     -41.674  55.906 -53.045  1.00  0.00     0.732 A 
HETATM   24  N   UNL     1     -41.063  57.005 -53.381  1.00  0.00    -0.067 NA
HETATM   25  C   UNL     1     -41.648  58.138 -52.887  1.00  0.00     0.065 A 
HETATM   26  C   UNL     1     -42.745  58.190 -52.128  1.00  0.00     0.036 A 
HETATM   27  C   UNL     1     -41.116  59.506 -53.153  1.00  0.00     0.061 C 
HETATM   28  C   UNL     1     -43.150  59.565 -51.764  1.00  0.00     0.047 C 
HETATM   29  C   UNL     1     -43.418  56.945 -51.761  1.00  0.00     0.268 A 
HETATM   30  C   UNL     1     -42.280  60.403 -52.710  1.00  0.00     0.011 C 
HETATM   31  O   UNL     1     -44.429  56.919 -51.074  1.00  0.00    -0.267 OA
HETATM   32  N   UNL     1     -42.804  55.832 -52.260  1.00  0.00    -0.152 N 
HETATM   33  H   UNL     1     -43.204  54.920 -52.060  1.00  0.00     0.188 HD
ENDBRANCH   2  23
BRANCH   4  34
HETATM   34  C   UNL     1     -40.013  51.374 -52.641  1.00  0.00     0.105 A 
HETATM   35  O   UNL     1     -39.728  51.221 -51.311  1.00  0.00    -0.320 OA
HETATM   36  C   UNL     1     -39.286  49.949 -51.135  1.00  0.00     0.142 A 
HETATM   37  C   UNL     1     -39.278  49.272 -52.330  1.00  0.00     0.027 A 
HETATM   38  C   UNL     1     -39.744  50.191 -53.304  1.00  0.00     0.041 A 
ENDBRANCH   4  34
TORSDOF 6
ENDMDL
MODEL 10
REMARK VINA RESULT:      -8.4      4.329      8.883
REMARK  6 active torsions:
REMARK  status: ('A' for Active; 'I' for Inactive)
REMARK    1  A    between atoms: C_4  and  C_5 
REMARK    2  A    between atoms: C_8  and  C_9 
REMARK    3  A    between atoms: C_9  and  C_10 
REMARK       I    between atoms: C_10  and  N_11 
REMARK    4  A    between atoms: N_11  and  C_12 
REMARK    5  A    between atoms: N_13  and  C_14 
REMARK    6  A    between atoms: C_25  and  C_26 
ROOT
HETATM    1  C   UNL     1     -41.198  55.188 -54.856  1.00  0.00     0.152 A 
HETATM    2  N   UNL     1     -41.500  55.315 -53.507  1.00  0.00    -0.044 N 
HETATM    3  N   UNL     1     -41.221  54.177 -52.800  1.00  0.00    -0.148 NA
HETATM    4  C   UNL     1     -40.738  53.336 -53.723  1.00  0.00     0.115 A 
HETATM    5  C   UNL     1     -40.734  53.902 -55.014  1.00  0.00     0.087 A 
ENDROOT
BRANCH   1   6
HETATM    6  N   UNL     1     -41.345  56.236 -55.755  1.00  0.00    -0.311 N 
HETATM    7  C   UNL     1     -42.525  56.480 -56.437  1.00  0.00     0.227 C 
HETATM    8  O   UNL     1     -43.611  55.954 -56.202  1.00  0.00    -0.273 OA
HETATM    9  H   UNL     1     -40.527  56.818 -55.935  1.00  0.00     0.170 HD
BRANCH   7  10
HETATM   10  C   UNL     1     -42.355  57.454 -57.594  1.00  0.00     0.141 C 
BRANCH  10  11
HETATM   11  C   UNL     1     -43.588  57.539 -58.465  1.00  0.00    -0.049 A 
HETATM   12  C   UNL     1     -44.541  58.547 -58.269  1.00  0.00     0.008 A 
HETATM   13  C   UNL     1     -45.686  58.615 -59.066  1.00  0.00     0.013 A 
HETATM   14  C   UNL     1     -45.909  57.695 -60.104  1.00  0.00    -0.026 A 
HETATM   15  C   UNL     1     -44.930  56.710 -60.317  1.00  0.00     0.013 A 
HETATM   16  C   UNL     1     -43.785  56.632 -59.512  1.00  0.00     0.008 A 
BRANCH  14  17
HETATM   17  C   UNL     1     -47.131  57.765 -60.928  1.00  0.00    -0.026 A 
HETATM   18  C   UNL     1     -47.720  56.602 -61.459  1.00  0.00     0.012 A 
HETATM   19  C   UNL     1     -48.862  56.667 -62.263  1.00  0.00     0.001 A 
HETATM   20  C   UNL     1     -49.443  57.899 -62.547  1.00  0.00     0.000 A 
HETATM   21  C   UNL     1     -48.883  59.064 -62.029  1.00  0.00     0.001 A 
HETATM   22  C   UNL     1     -47.739  58.995 -61.229  1.00  0.00     0.012 A 
ENDBRANCH  14  17
ENDBRANCH  10  11
ENDBRANCH   7  10
ENDBRANCH   1   6
BRANCH   2  23
HETATM   23  C   UNL     1     -42.041  56.431 -52.840  1.00  0.00     0.732 A 
HETATM   24  N   UNL     1     -41.560  57.635 -52.948  1.00  0.00    -0.067 NA
HETATM   25  C   UNL     1     -42.248  58.574 -52.231  1.00  0.00     0.065 A 
HETATM   26  C   UNL     1     -43.325  58.352 -51.474  1.00  0.00     0.036 A 
HETATM   27  C   UNL     1     -41.872  60.019 -52.217  1.00  0.00     0.061 C 
HETATM   28  C   UNL     1     -43.864  59.574 -50.837  1.00  0.00     0.047 C 
HETATM   29  C   UNL     1     -43.851  56.993 -51.364  1.00  0.00     0.268 A 
HETATM   30  C   UNL     1     -43.114  60.675 -51.597  1.00  0.00     0.011 C 
HETATM   31  O   UNL     1     -44.835  56.719 -50.693  1.00  0.00    -0.267 OA
HETATM   32  N   UNL     1     -43.136  56.077 -52.082  1.00  0.00    -0.152 N 
HETATM   33  H   UNL     1     -43.431  55.106 -52.069  1.00  0.00     0.188 HD
ENDBRANCH   2  23
BRANCH   4  34
HETATM   34  C   UNL     1     -40.242  51.968 -53.396  1.00  0.00     0.105 A 
HETATM   35  O   UNL     1     -39.867  51.564 -52.143  1.00  0.00    -0.320 OA
HETATM   36  C   UNL     1     -39.499  50.260 -52.232  1.00  0.00     0.142 A 
HETATM   37  C   UNL     1     -39.628  49.810 -53.523  1.00  0.00     0.027 A 
HETATM   38  C   UNL     1     -40.105  50.912 -54.276  1.00  0.00     0.041 A 
ENDBRANCH   4  34
TORSDOF 6
ENDMDL
