MODEL 1
REMARK VINA RESULT:      -9.6      0.000      0.000
REMARK  6 active torsions:
REMARK  status: ('A' for Active; 'I' for Inactive)
REMARK    1  A    between atoms: C_2  and  C_3 
REMARK    2  A    between atoms: C_6  and  N_7 
REMARK    3  A    between atoms: C_8  and  C_10 
REMARK    4  A    between atoms: C_8  and  O_9 
REMARK       I    between atoms: C_10  and  N_11 
REMARK    5  A    between atoms: N_11  and  C_12 
REMARK    6  A    between atoms: C_12  and  C_13 
ROOT
HETATM    1  N   UNL     1     -43.862  57.160 -52.925  1.00  0.00    -0.254 N 
HETATM    2  C   UNL     1     -43.772  56.580 -54.280  1.00  0.00     0.256 C 
HETATM    3  C   UNL     1     -44.129  57.552 -55.393  1.00  0.00     0.034 A 
HETATM    4  C   UNL     1     -44.852  58.692 -55.075  1.00  0.00     0.048 A 
HETATM    5  N   UNL     1     -45.169  58.936 -53.750  1.00  0.00    -0.308 N 
HETATM    6  C   UNL     1     -44.712  58.229 -52.679  1.00  0.00     0.330 C 
HETATM    7  O   UNL     1     -45.059  58.632 -51.567  1.00  0.00    -0.246 OA
HETATM    8  C   UNL     1     -43.825  57.316 -56.746  1.00  0.00     0.015 A 
HETATM    9  C   UNL     1     -44.211  58.224 -57.736  1.00  0.00     0.001 A 
HETATM   10  C   UNL     1     -44.932  59.364 -57.391  1.00  0.00     0.002 A 
HETATM   11  C   UNL     1     -45.264  59.595 -56.058  1.00  0.00     0.030 A 
HETATM   12  H   UNL     1     -45.747  59.728 -53.503  1.00  0.00     0.170 HD
ENDROOT
BRANCH   2  13
HETATM   13  C   UNL     1     -42.309  56.024 -54.563  1.00  0.00     0.279 C 
HETATM   14  N   UNL     1     -42.191  54.663 -54.751  1.00  0.00    -0.352 N 
HETATM   15  H   UNL     1     -43.038  54.134 -54.931  1.00  0.00     0.162 HD
HETATM   16  O   UNL     1     -41.334  56.780 -54.513  1.00  0.00    -0.268 OA
BRANCH  14  17
HETATM   17  C   UNL     1     -40.934  54.065 -55.136  1.00  0.00     0.161 C 
BRANCH  17  18
HETATM   18  C   UNL     1     -40.459  53.057 -54.122  1.00  0.00    -0.038 A 
HETATM   19  C   UNL     1     -40.243  51.718 -54.496  1.00  0.00     0.048 A 
HETATM   20  C   UNL     1     -39.872  50.819 -53.520  1.00  0.00     0.105 A 
HETATM   21  C   UNL     1     -39.721  51.196 -52.207  1.00  0.00     0.105 A 
HETATM   22  O   UNL     1     -39.629  49.494 -53.710  1.00  0.00    -0.323 OA
HETATM   23  O   UNL     1     -39.365  50.157 -51.406  1.00  0.00    -0.323 OA
HETATM   24  C   UNL     1     -39.930  52.494 -51.797  1.00  0.00     0.040 A 
HETATM   25  C   UNL     1     -39.317  49.080 -52.365  1.00  0.00     0.352 A 
HETATM   26  C   UNL     1     -40.307  53.430 -52.766  1.00  0.00     0.012 A 
ENDBRANCH  17  18
ENDBRANCH  14  17
ENDBRANCH   2  13
BRANCH   2  27
HETATM   27  O   UNL     1     -44.730  55.523 -54.371  1.00  0.00    -0.359 OA
HETATM   28  H   UNL     1     -45.542  55.886 -53.968  1.00  0.00     0.213 HD
ENDBRANCH   2  27
BRANCH   1  29
HETATM   29  C   UNL     1     -43.224  56.495 -51.813  1.00  0.00     0.043 A 
HETATM   30  C   UNL     1     -43.632  55.234 -51.355  1.00  0.00     0.030 A 
HETATM   31  C   UNL     1     -42.921  54.557 -50.357  1.00  0.00     0.009 A 
HETATM   32  C   UNL     1     -41.782  55.128 -49.782  1.00  0.00    -0.058 A 
HETATM   33  C   UNL     1     -41.381  56.395 -50.209  1.00  0.00     0.009 A 
HETATM   34  C   UNL     1     -42.094  57.068 -51.206  1.00  0.00     0.030 A 
BRANCH  32  35
HETATM   35  C   UNL     1     -40.983  54.377 -48.750  1.00  0.00     0.034 C 
HETATM   36  C   UNL     1     -39.507  54.324 -49.120  1.00  0.00     0.010 C 
ENDBRANCH  32  35
ENDBRANCH   1  29
TORSDOF 6
ENDMDL
MODEL 2
REMARK VINA RESULT:      -9.0      2.707      4.193
REMARK  6 active torsions:
REMARK  status: ('A' for Active; 'I' for Inactive)
REMARK    1  A    between atoms: C_2  and  C_3 
REMARK    2  A    between atoms: C_6  and  N_7 
REMARK    3  A    between atoms: C_8  and  C_10 
REMARK    4  A    between atoms: C_8  and  O_9 
REMARK       I    between atoms: C_10  and  N_11 
REMARK    5  A    between atoms: N_11  and  C_12 
REMARK    6  A    between atoms: C_12  and  C_13 
ROOT
HETATM    1  N   UNL     1     -42.325  58.398 -55.605  1.00  0.00    -0.254 N 
HETATM    2  C   UNL     1     -43.028  57.162 -56.004  1.00  0.00     0.256 C 
HETATM    3  C   UNL     1     -42.967  56.871 -57.495  1.00  0.00     0.034 A 
HETATM    4  C   UNL     1     -42.643  57.904 -58.362  1.00  0.00     0.048 A 
HETATM    5  N   UNL     1     -42.327  59.145 -57.837  1.00  0.00    -0.308 N 
HETATM    6  C   UNL     1     -42.157  59.430 -56.517  1.00  0.00     0.330 C 
HETATM    7  O   UNL     1     -41.820  60.584 -56.243  1.00  0.00    -0.246 OA
HETATM    8  C   UNL     1     -43.295  55.619 -58.048  1.00  0.00     0.015 A 
HETATM    9  C   UNL     1     -43.261  55.416 -59.430  1.00  0.00     0.001 A 
HETATM   10  C   UNL     1     -42.927  56.467 -60.280  1.00  0.00     0.002 A 
HETATM   11  C   UNL     1     -42.628  57.719 -59.747  1.00  0.00     0.030 A 
HETATM   12  H   UNL     1     -42.147  59.926 -58.453  1.00  0.00     0.170 HD
ENDROOT
BRANCH   2  13
HETATM   13  C   UNL     1     -42.442  55.901 -55.232  1.00  0.00     0.279 C 
HETATM   14  N   UNL     1     -43.203  55.401 -54.196  1.00  0.00    -0.352 N 
HETATM   15  H   UNL     1     -44.170  55.699 -54.133  1.00  0.00     0.162 HD
HETATM   16  O   UNL     1     -41.315  55.473 -55.503  1.00  0.00    -0.268 OA
BRANCH  14  17
HETATM   17  C   UNL     1     -42.829  54.189 -53.508  1.00  0.00     0.161 C 
BRANCH  17  18
HETATM   18  C   UNL     1     -42.302  54.469 -52.124  1.00  0.00    -0.038 A 
HETATM   19  C   UNL     1     -41.582  53.485 -51.424  1.00  0.00     0.048 A 
HETATM   20  C   UNL     1     -41.177  53.765 -50.136  1.00  0.00     0.105 A 
HETATM   21  C   UNL     1     -41.467  54.964 -49.530  1.00  0.00     0.105 A 
HETATM   22  O   UNL     1     -40.480  52.927 -49.323  1.00  0.00    -0.323 OA
HETATM   23  O   UNL     1     -40.990  55.031 -48.259  1.00  0.00    -0.323 OA
HETATM   24  C   UNL     1     -42.176  55.950 -50.178  1.00  0.00     0.040 A 
HETATM   25  C   UNL     1     -40.373  53.733 -48.132  1.00  0.00     0.352 A 
HETATM   26  C   UNL     1     -42.600  55.695 -51.487  1.00  0.00     0.012 A 
ENDBRANCH  17  18
ENDBRANCH  14  17
ENDBRANCH   2  13
BRANCH   2  27
HETATM   27  O   UNL     1     -44.416  57.327 -55.702  1.00  0.00    -0.359 OA
HETATM   28  H   UNL     1     -44.624  58.240 -55.976  1.00  0.00     0.213 HD
ENDBRANCH   2  27
BRANCH   1  29
HETATM   29  C   UNL     1     -41.989  58.619 -54.218  1.00  0.00     0.043 A 
HETATM   30  C   UNL     1     -40.704  58.389 -53.708  1.00  0.00     0.030 A 
HETATM   31  C   UNL     1     -40.371  58.728 -52.391  1.00  0.00     0.009 A 
HETATM   32  C   UNL     1     -41.321  59.302 -51.542  1.00  0.00    -0.058 A 
HETATM   33  C   UNL     1     -42.612  59.512 -52.028  1.00  0.00     0.009 A 
HETATM   34  C   UNL     1     -42.940  59.172 -53.344  1.00  0.00     0.030 A 
BRANCH  32  35
HETATM   35  C   UNL     1     -40.950  59.720 -50.143  1.00  0.00     0.034 C 
HETATM   36  C   UNL     1     -39.443  59.863 -49.986  1.00  0.00     0.010 C 
ENDBRANCH  32  35
ENDBRANCH   1  29
TORSDOF 6
ENDMDL
MODEL 3
REMARK VINA RESULT:      -8.7      2.052      4.589
REMARK  6 active torsions:
REMARK  status: ('A' for Active; 'I' for Inactive)
REMARK    1  A    between atoms: C_2  and  C_3 
REMARK    2  A    between atoms: C_6  and  N_7 
REMARK    3  A    between atoms: C_8  and  C_10 
REMARK    4  A    between atoms: C_8  and  O_9 
REMARK       I    between atoms: C_10  and  N_11 
REMARK    5  A    between atoms: N_11  and  C_12 
REMARK    6  A    between atoms: C_12  and  C_13 
ROOT
HETATM    1  N   UNL     1     -43.005  56.164 -56.207  1.00  0.00    -0.254 N 
HETATM    2  C   UNL     1     -43.101  57.488 -55.560  1.00  0.00     0.256 C 
HETATM    3  C   UNL     1     -44.230  58.355 -56.094  1.00  0.00     0.034 A 
HETATM    4  C   UNL     1     -44.783  58.042 -57.328  1.00  0.00     0.048 A 
HETATM    5  N   UNL     1     -44.333  56.918 -57.998  1.00  0.00    -0.308 N 
HETATM    6  C   UNL     1     -43.481  55.981 -57.497  1.00  0.00     0.330 C 
HETATM    7  O   UNL     1     -43.237  55.016 -58.225  1.00  0.00    -0.246 OA
HETATM    8  C   UNL     1     -44.694  59.506 -55.433  1.00  0.00     0.015 A 
HETATM    9  C   UNL     1     -45.708  60.292 -55.987  1.00  0.00     0.001 A 
HETATM   10  C   UNL     1     -46.251  59.954 -57.224  1.00  0.00     0.002 A 
HETATM   11  C   UNL     1     -45.781  58.832 -57.903  1.00  0.00     0.030 A 
HETATM   12  H   UNL     1     -44.679  56.706 -58.924  1.00  0.00     0.170 HD
ENDROOT
BRANCH   2  13
HETATM   13  C   UNL     1     -43.298  57.338 -53.989  1.00  0.00     0.279 C 
HETATM   14  N   UNL     1     -42.222  57.680 -53.196  1.00  0.00    -0.352 N 
HETATM   15  H   UNL     1     -41.472  58.214 -53.621  1.00  0.00     0.162 HD
HETATM   16  O   UNL     1     -44.335  56.846 -53.534  1.00  0.00    -0.268 OA
BRANCH  14  17
HETATM   17  C   UNL     1     -42.328  57.701 -51.756  1.00  0.00     0.161 C 
BRANCH  17  18
HETATM   18  C   UNL     1     -41.798  56.434 -51.137  1.00  0.00    -0.038 A 
HETATM   19  C   UNL     1     -41.686  56.317 -49.740  1.00  0.00     0.048 A 
HETATM   20  C   UNL     1     -41.135  55.164 -49.223  1.00  0.00     0.105 A 
HETATM   21  C   UNL     1     -40.690  54.147 -50.033  1.00  0.00     0.105 A 
HETATM   22  O   UNL     1     -40.951  54.894 -47.902  1.00  0.00    -0.323 OA
HETATM   23  O   UNL     1     -40.171  53.110 -49.325  1.00  0.00    -0.323 OA
HETATM   24  C   UNL     1     -40.774  54.225 -51.405  1.00  0.00     0.040 A 
HETATM   25  C   UNL     1     -40.331  53.594 -47.976  1.00  0.00     0.352 A 
HETATM   26  C   UNL     1     -41.330  55.383 -51.959  1.00  0.00     0.012 A 
ENDBRANCH  17  18
ENDBRANCH  14  17
ENDBRANCH   2  13
BRANCH   2  27
HETATM   27  O   UNL     1     -41.898  58.205 -55.843  1.00  0.00    -0.359 OA
HETATM   28  H   UNL     1     -41.179  57.609 -55.562  1.00  0.00     0.213 HD
ENDBRANCH   2  27
BRANCH   1  29
HETATM   29  C   UNL     1     -42.238  55.111 -55.582  1.00  0.00     0.043 A 
HETATM   30  C   UNL     1     -42.833  53.955 -55.057  1.00  0.00     0.030 A 
HETATM   31  C   UNL     1     -42.060  52.895 -54.568  1.00  0.00     0.009 A 
HETATM   32  C   UNL     1     -40.664  52.966 -54.585  1.00  0.00    -0.058 A 
HETATM   33  C   UNL     1     -40.058  54.122 -55.080  1.00  0.00     0.009 A 
HETATM   34  C   UNL     1     -40.835  55.178 -55.566  1.00  0.00     0.030 A 
BRANCH  32  35
HETATM   35  C   UNL     1     -39.830  51.804 -54.114  1.00  0.00     0.034 C 
HETATM   36  C   UNL     1     -40.527  50.476 -54.371  1.00  0.00     0.010 C 
ENDBRANCH  32  35
ENDBRANCH   1  29
TORSDOF 6
ENDMDL
MODEL 4
REMARK VINA RESULT:      -8.6     15.303     18.434
REMARK  6 active torsions:
REMARK  status: ('A' for Active; 'I' for Inactive)
REMARK    1  A    between atoms: C_2  and  C_3 
REMARK    2  A    between atoms: C_6  and  N_7 
REMARK    3  A    between atoms: C_8  and  C_10 
REMARK    4  A    between atoms: C_8  and  O_9 
REMARK       I    between atoms: C_10  and  N_11 
REMARK    5  A    between atoms: N_11  and  C_12 
REMARK    6  A    between atoms: C_12  and  C_13 
ROOT
HETATM    1  N   UNL     1     -34.891  41.102 -54.016  1.00  0.00    -0.254 N 
HETATM    2  C   UNL     1     -33.687  40.248 -53.996  1.00  0.00     0.256 C 
HETATM    3  C   UNL     1     -33.186  39.919 -52.599  1.00  0.00     0.034 A 
HETATM    4  C   UNL     1     -33.605  40.709 -51.538  1.00  0.00     0.048 A 
HETATM    5  N   UNL     1     -34.510  41.727 -51.779  1.00  0.00    -0.308 N 
HETATM    6  C   UNL     1     -35.160  41.954 -52.954  1.00  0.00     0.330 C 
HETATM    7  O   UNL     1     -35.975  42.878 -52.961  1.00  0.00    -0.246 OA
HETATM    8  C   UNL     1     -32.258  38.894 -52.337  1.00  0.00     0.015 A 
HETATM    9  C   UNL     1     -31.800  38.658 -51.038  1.00  0.00     0.001 A 
HETATM   10  C   UNL     1     -32.239  39.461 -49.989  1.00  0.00     0.002 A 
HETATM   11  C   UNL     1     -33.136  40.498 -50.240  1.00  0.00     0.030 A 
HETATM   12  H   UNL     1     -34.781  42.353 -51.032  1.00  0.00     0.170 HD
ENDROOT
BRANCH   2  13
HETATM   13  C   UNL     1     -33.950  38.878 -54.760  1.00  0.00     0.279 C 
HETATM   14  N   UNL     1     -33.544  38.816 -56.076  1.00  0.00    -0.352 N 
HETATM   15  H   UNL     1     -32.908  39.533 -56.410  1.00  0.00     0.162 HD
HETATM   16  O   UNL     1     -34.576  37.967 -54.209  1.00  0.00    -0.268 OA
BRANCH  14  17
HETATM   17  C   UNL     1     -33.621  37.586 -56.828  1.00  0.00     0.161 C 
BRANCH  17  18
HETATM   18  C   UNL     1     -34.797  37.578 -57.771  1.00  0.00    -0.038 A 
HETATM   19  C   UNL     1     -34.686  38.147 -59.052  1.00  0.00     0.048 A 
HETATM   20  C   UNL     1     -35.807  38.174 -59.854  1.00  0.00     0.105 A 
HETATM   21  C   UNL     1     -37.014  37.671 -59.429  1.00  0.00     0.105 A 
HETATM   22  O   UNL     1     -35.873  38.690 -61.110  1.00  0.00    -0.323 OA
HETATM   23  O   UNL     1     -37.990  37.807 -60.364  1.00  0.00    -0.323 OA
HETATM   24  C   UNL     1     -37.166  37.111 -58.180  1.00  0.00     0.040 A 
HETATM   25  C   UNL     1     -37.262  38.462 -61.424  1.00  0.00     0.352 A 
HETATM   26  C   UNL     1     -36.045  37.069 -57.344  1.00  0.00     0.012 A 
ENDBRANCH  17  18
ENDBRANCH  14  17
ENDBRANCH   2  13
BRANCH   2  27
HETATM   27  O   UNL     1     -32.625  40.970 -54.624  1.00  0.00    -0.359 OA
HETATM   28  H   UNL     1     -32.764  40.838 -55.581  1.00  0.00     0.213 HD
ENDBRANCH   2  27
BRANCH   1  29
HETATM   29  C   UNL     1     -35.682  41.204 -55.220  1.00  0.00     0.043 A 
HETATM   30  C   UNL     1     -35.284  41.978 -56.319  1.00  0.00     0.030 A 
HETATM   31  C   UNL     1     -36.005  41.964 -57.520  1.00  0.00     0.009 A 
HETATM   32  C   UNL     1     -37.152  41.177 -57.651  1.00  0.00    -0.058 A 
HETATM   33  C   UNL     1     -37.576  40.422 -56.556  1.00  0.00     0.009 A 
HETATM   34  C   UNL     1     -36.853  40.440 -55.359  1.00  0.00     0.030 A 
BRANCH  32  35
HETATM   35  C   UNL     1     -37.897  41.115 -58.959  1.00  0.00     0.034 C 
HETATM   36  C   UNL     1     -37.298  42.064 -59.986  1.00  0.00     0.010 C 
ENDBRANCH  32  35
ENDBRANCH   1  29
TORSDOF 6
ENDMDL
MODEL 5
REMARK VINA RESULT:      -8.6      2.601      7.360
REMARK  6 active torsions:
REMARK  status: ('A' for Active; 'I' for Inactive)
REMARK    1  A    between atoms: C_2  and  C_3 
REMARK    2  A    between atoms: C_6  and  N_7 
REMARK    3  A    between atoms: C_8  and  C_10 
REMARK    4  A    between atoms: C_8  and  O_9 
REMARK       I    between atoms: C_10  and  N_11 
REMARK    5  A    between atoms: N_11  and  C_12 
REMARK    6  A    between atoms: C_12  and  C_13 
ROOT
HETATM    1  N   UNL     1     -41.666  55.520 -52.274  1.00  0.00    -0.254 N 
HETATM    2  C   UNL     1     -41.238  54.830 -53.507  1.00  0.00     0.256 C 
HETATM    3  C   UNL     1     -40.665  53.442 -53.272  1.00  0.00     0.034 A 
HETATM    4  C   UNL     1     -40.234  53.107 -51.996  1.00  0.00     0.048 A 
HETATM    5  N   UNL     1     -40.397  54.024 -50.973  1.00  0.00    -0.308 N 
HETATM    6  C   UNL     1     -41.084  55.197 -51.056  1.00  0.00     0.330 C 
HETATM    7  O   UNL     1     -41.169  55.858 -50.019  1.00  0.00    -0.246 OA
HETATM    8  C   UNL     1     -40.483  52.501 -54.302  1.00  0.00     0.015 A 
HETATM    9  C   UNL     1     -39.914  51.252 -54.038  1.00  0.00     0.001 A 
HETATM   10  C   UNL     1     -39.494  50.937 -52.749  1.00  0.00     0.002 A 
HETATM   11  C   UNL     1     -39.643  51.871 -51.725  1.00  0.00     0.030 A 
HETATM   12  H   UNL     1     -40.035  53.824 -50.050  1.00  0.00     0.170 HD
ENDROOT
BRANCH   2  13
HETATM   13  C   UNL     1     -42.448  54.696 -54.531  1.00  0.00     0.279 C 
HETATM   14  N   UNL     1     -42.253  55.219 -55.791  1.00  0.00    -0.352 N 
HETATM   15  H   UNL     1     -41.303  55.442 -56.070  1.00  0.00     0.162 HD
HETATM   16  O   UNL     1     -43.531  54.230 -54.159  1.00  0.00    -0.268 OA
BRANCH  14  17
HETATM   17  C   UNL     1     -43.234  55.045 -56.836  1.00  0.00     0.161 C 
BRANCH  17  18
HETATM   18  C   UNL     1     -43.063  56.057 -57.940  1.00  0.00    -0.038 A 
HETATM   19  C   UNL     1     -42.489  57.312 -57.673  1.00  0.00     0.048 A 
HETATM   20  C   UNL     1     -42.413  58.228 -58.700  1.00  0.00     0.105 A 
HETATM   21  C   UNL     1     -42.888  57.945 -59.959  1.00  0.00     0.105 A 
HETATM   22  O   UNL     1     -41.894  59.482 -58.610  1.00  0.00    -0.323 OA
HETATM   23  O   UNL     1     -42.728  58.985 -60.819  1.00  0.00    -0.323 OA
HETATM   24  C   UNL     1     -43.463  56.731 -60.260  1.00  0.00     0.040 A 
HETATM   25  C   UNL     1     -42.106  59.959 -59.955  1.00  0.00     0.352 A 
HETATM   26  C   UNL     1     -43.554  55.781 -59.237  1.00  0.00     0.012 A 
ENDBRANCH  17  18
ENDBRANCH  14  17
ENDBRANCH   2  13
BRANCH   2  27
HETATM   27  O   UNL     1     -40.177  55.589 -54.091  1.00  0.00    -0.359 OA
HETATM   28  H   UNL     1     -39.363  55.113 -53.842  1.00  0.00     0.213 HD
ENDBRANCH   2  27
BRANCH   1  29
HETATM   29  C   UNL     1     -42.541  56.666 -52.355  1.00  0.00     0.043 A 
HETATM   30  C   UNL     1     -42.208  57.817 -53.084  1.00  0.00     0.030 A 
HETATM   31  C   UNL     1     -43.123  58.864 -53.250  1.00  0.00     0.009 A 
HETATM   32  C   UNL     1     -44.398  58.791 -52.683  1.00  0.00    -0.058 A 
HETATM   33  C   UNL     1     -44.733  57.663 -51.932  1.00  0.00     0.009 A 
HETATM   34  C   UNL     1     -43.816  56.620 -51.768  1.00  0.00     0.030 A 
BRANCH  32  35
HETATM   35  C   UNL     1     -45.404  59.889 -52.908  1.00  0.00     0.034 C 
HETATM   36  C   UNL     1     -46.241  60.142 -51.662  1.00  0.00     0.010 C 
ENDBRANCH  32  35
ENDBRANCH   1  29
TORSDOF 6
ENDMDL
MODEL 6
REMARK VINA RESULT:      -8.4      2.487      7.567
REMARK  6 active torsions:
REMARK  status: ('A' for Active; 'I' for Inactive)
REMARK    1  A    between atoms: C_2  and  C_3 
REMARK    2  A    between atoms: C_6  and  N_7 
REMARK    3  A    between atoms: C_8  and  C_10 
REMARK    4  A    between atoms: C_8  and  O_9 
REMARK       I    between atoms: C_10  and  N_11 
REMARK    5  A    between atoms: N_11  and  C_12 
REMARK    6  A    between atoms: C_12  and  C_13 
ROOT
HETATM    1  N   UNL     1     -41.479  55.561 -52.877  1.00  0.00    -0.254 N 
HETATM    2  C   UNL     1     -41.045  54.766 -54.044  1.00  0.00     0.256 C 
HETATM    3  C   UNL     1     -40.628  53.345 -53.702  1.00  0.00     0.034 A 
HETATM    4  C   UNL     1     -40.312  53.042 -52.386  1.00  0.00     0.048 A 
HETATM    5  N   UNL     1     -40.447  54.025 -51.422  1.00  0.00    -0.308 N 
HETATM    6  C   UNL     1     -41.008  55.252 -51.609  1.00  0.00     0.330 C 
HETATM    7  O   UNL     1     -41.092  55.974 -50.614  1.00  0.00    -0.246 OA
HETATM    8  C   UNL     1     -40.474  52.335 -54.670  1.00  0.00     0.015 A 
HETATM    9  C   UNL     1     -40.049  51.054 -54.308  1.00  0.00     0.001 A 
HETATM   10  C   UNL     1     -39.743  50.773 -52.979  1.00  0.00     0.002 A 
HETATM   11  C   UNL     1     -39.863  51.772 -52.015  1.00  0.00     0.030 A 
HETATM   12  H   UNL     1     -40.164  53.843 -50.468  1.00  0.00     0.170 HD
ENDROOT
BRANCH   2  13
HETATM   13  C   UNL     1     -42.196  54.691 -55.138  1.00  0.00     0.279 C 
HETATM   14  N   UNL     1     -42.029  55.466 -56.267  1.00  0.00    -0.352 N 
HETATM   15  H   UNL     1     -41.106  55.847 -56.446  1.00  0.00     0.162 HD
HETATM   16  O   UNL     1     -43.223  54.040 -54.920  1.00  0.00    -0.268 OA
BRANCH  14  17
HETATM   17  C   UNL     1     -42.947  55.383 -57.377  1.00  0.00     0.161 C 
BRANCH  17  18
HETATM   18  C   UNL     1     -43.586  56.715 -57.677  1.00  0.00    -0.038 A 
HETATM   19  C   UNL     1     -43.800  57.118 -59.008  1.00  0.00     0.048 A 
HETATM   20  C   UNL     1     -44.327  58.371 -59.233  1.00  0.00     0.105 A 
HETATM   21  C   UNL     1     -44.633  59.225 -58.200  1.00  0.00     0.105 A 
HETATM   22  O   UNL     1     -44.590  58.915 -60.452  1.00  0.00    -0.323 OA
HETATM   23  O   UNL     1     -45.128  60.413 -58.639  1.00  0.00    -0.323 OA
HETATM   24  C   UNL     1     -44.432  58.872 -56.885  1.00  0.00     0.040 A 
HETATM   25  C   UNL     1     -45.089  60.212 -60.068  1.00  0.00     0.352 A 
HETATM   26  C   UNL     1     -43.899  57.605 -56.625  1.00  0.00     0.012 A 
ENDBRANCH  17  18
ENDBRANCH  14  17
ENDBRANCH   2  13
BRANCH   2  27
HETATM   27  O   UNL     1     -39.880  55.388 -54.591  1.00  0.00    -0.359 OA
HETATM   28  H   UNL     1     -39.197  54.690 -54.582  1.00  0.00     0.213 HD
ENDBRANCH   2  27
BRANCH   1  29
HETATM   29  C   UNL     1     -42.230  56.779 -53.074  1.00  0.00     0.043 A 
HETATM   30  C   UNL     1     -43.597  56.876 -52.780  1.00  0.00     0.030 A 
HETATM   31  C   UNL     1     -44.274  58.099 -52.862  1.00  0.00     0.009 A 
HETATM   32  C   UNL     1     -43.601  59.261 -53.249  1.00  0.00    -0.058 A 
HETATM   33  C   UNL     1     -42.245  59.173 -53.570  1.00  0.00     0.009 A 
HETATM   34  C   UNL     1     -41.573  57.950 -53.487  1.00  0.00     0.030 A 
BRANCH  32  35
HETATM   35  C   UNL     1     -44.313  60.588 -53.282  1.00  0.00     0.034 C 
HETATM   36  C   UNL     1     -45.821  60.413 -53.177  1.00  0.00     0.010 C 
ENDBRANCH  32  35
ENDBRANCH   1  29
TORSDOF 6
ENDMDL
MODEL 7
REMARK VINA RESULT:      -8.3      2.517      6.809
REMARK  6 active torsions:
REMARK  status: ('A' for Active; 'I' for Inactive)
REMARK    1  A    between atoms: C_2  and  C_3 
REMARK    2  A    between atoms: C_6  and  N_7 
REMARK    3  A    between atoms: C_8  and  C_10 
REMARK    4  A    between atoms: C_8  and  O_9 
REMARK       I    between atoms: C_10  and  N_11 
REMARK    5  A    between atoms: N_11  and  C_12 
REMARK    6  A    between atoms: C_12  and  C_13 
ROOT
HETATM    1  N   UNL     1     -43.178  55.601 -52.471  1.00  0.00    -0.254 N 
HETATM    2  C   UNL     1     -43.792  56.487 -53.480  1.00  0.00     0.256 C 
HETATM    3  C   UNL     1     -44.484  57.706 -52.891  1.00  0.00     0.034 A 
HETATM    4  C   UNL     1     -44.825  57.693 -51.546  1.00  0.00     0.048 A 
HETATM    5  N   UNL     1     -44.469  56.600 -50.776  1.00  0.00    -0.308 N 
HETATM    6  C   UNL     1     -43.672  55.570 -51.175  1.00  0.00     0.330 C 
HETATM    7  O   UNL     1     -43.419  54.712 -50.328  1.00  0.00    -0.246 OA
HETATM    8  C   UNL     1     -44.863  58.821 -53.660  1.00  0.00     0.015 A 
HETATM    9  C   UNL     1     -45.534  59.900 -53.077  1.00  0.00     0.001 A 
HETATM   10  C   UNL     1     -45.861  59.866 -51.724  1.00  0.00     0.002 A 
HETATM   11  C   UNL     1     -45.516  58.755 -50.957  1.00  0.00     0.030 A 
HETATM   12  H   UNL     1     -44.760  56.544 -49.809  1.00  0.00     0.170 HD
ENDROOT
BRANCH   2  13
HETATM   13  C   UNL     1     -42.706  56.995 -54.525  1.00  0.00     0.279 C 
HETATM   14  N   UNL     1     -42.972  56.758 -55.857  1.00  0.00    -0.352 N 
HETATM   15  H   UNL     1     -43.918  56.496 -56.112  1.00  0.00     0.162 HD
HETATM   16  O   UNL     1     -41.643  57.486 -54.131  1.00  0.00    -0.268 OA
BRANCH  14  17
HETATM   17  C   UNL     1     -42.119  57.283 -56.897  1.00  0.00     0.161 C 
BRANCH  17  18
HETATM   18  C   UNL     1     -42.911  57.971 -57.978  1.00  0.00    -0.038 A 
HETATM   19  C   UNL     1     -44.315  57.889 -57.994  1.00  0.00     0.048 A 
HETATM   20  C   UNL     1     -44.992  58.480 -59.039  1.00  0.00     0.105 A 
HETATM   21  C   UNL     1     -44.332  59.129 -60.055  1.00  0.00     0.105 A 
HETATM   22  O   UNL     1     -46.342  58.489 -59.207  1.00  0.00    -0.323 OA
HETATM   23  O   UNL     1     -45.183  59.628 -60.990  1.00  0.00    -0.323 OA
HETATM   24  C   UNL     1     -42.959  59.226 -60.081  1.00  0.00     0.040 A 
HETATM   25  C   UNL     1     -46.455  59.211 -60.451  1.00  0.00     0.352 A 
HETATM   26  C   UNL     1     -42.244  58.636 -59.033  1.00  0.00     0.012 A 
ENDBRANCH  17  18
ENDBRANCH  14  17
ENDBRANCH   2  13
BRANCH   2  27
HETATM   27  O   UNL     1     -44.817  55.749 -54.149  1.00  0.00    -0.359 OA
HETATM   28  H   UNL     1     -45.637  56.251 -53.979  1.00  0.00     0.213 HD
ENDBRANCH   2  27
BRANCH   1  29
HETATM   29  C   UNL     1     -42.198  54.620 -52.876  1.00  0.00     0.043 A 
HETATM   30  C   UNL     1     -41.017  54.393 -52.154  1.00  0.00     0.030 A 
HETATM   31  C   UNL     1     -40.143  53.353 -52.496  1.00  0.00     0.009 A 
HETATM   32  C   UNL     1     -40.424  52.514 -53.577  1.00  0.00    -0.058 A 
HETATM   33  C   UNL     1     -41.582  52.745 -54.321  1.00  0.00     0.009 A 
HETATM   34  C   UNL     1     -42.452  53.785 -53.976  1.00  0.00     0.030 A 
BRANCH  32  35
HETATM   35  C   UNL     1     -39.516  51.360 -53.911  1.00  0.00     0.034 C 
HETATM   36  C   UNL     1     -40.309  50.125 -54.313  1.00  0.00     0.010 C 
ENDBRANCH  32  35
ENDBRANCH   1  29
TORSDOF 6
ENDMDL
MODEL 8
REMARK VINA RESULT:      -8.3      2.264      8.347
REMARK  6 active torsions:
REMARK  status: ('A' for Active; 'I' for Inactive)
REMARK    1  A    between atoms: C_2  and  C_3 
REMARK    2  A    between atoms: C_6  and  N_7 
REMARK    3  A    between atoms: C_8  and  C_10 
REMARK    4  A    between atoms: C_8  and  O_9 
REMARK       I    between atoms: C_10  and  N_11 
REMARK    5  A    between atoms: N_11  and  C_12 
REMARK    6  A    between atoms: C_12  and  C_13 
ROOT
HETATM    1  N   UNL     1     -41.712  54.578 -53.626  1.00  0.00    -0.254 N 
HETATM    2  C   UNL     1     -42.415  54.914 -52.371  1.00  0.00     0.256 C 
HETATM    3  C   UNL     1     -41.584  54.687 -51.119  1.00  0.00     0.034 A 
HETATM    4  C   UNL     1     -40.471  53.861 -51.198  1.00  0.00     0.048 A 
HETATM    5  N   UNL     1     -40.122  53.324 -52.424  1.00  0.00    -0.308 N 
HETATM    6  C   UNL     1     -40.687  53.643 -53.622  1.00  0.00     0.330 C 
HETATM    7  O   UNL     1     -40.203  53.101 -54.618  1.00  0.00    -0.246 OA
HETATM    8  C   UNL     1     -41.929  55.215 -49.861  1.00  0.00     0.015 A 
HETATM    9  C   UNL     1     -41.152  54.943 -48.732  1.00  0.00     0.001 A 
HETATM   10  C   UNL     1     -40.037  54.115 -48.838  1.00  0.00     0.002 A 
HETATM   11  C   UNL     1     -39.701  53.563 -50.072  1.00  0.00     0.030 A 
HETATM   12  H   UNL     1     -39.353  52.673 -52.493  1.00  0.00     0.170 HD
ENDROOT
BRANCH   2  13
HETATM   13  C   UNL     1     -42.891  56.431 -52.377  1.00  0.00     0.279 C 
HETATM   14  N   UNL     1     -44.227  56.659 -52.631  1.00  0.00    -0.352 N 
HETATM   15  H   UNL     1     -44.862  55.870 -52.567  1.00  0.00     0.162 HD
HETATM   16  O   UNL     1     -42.068  57.344 -52.255  1.00  0.00    -0.268 OA
BRANCH  14  17
HETATM   17  C   UNL     1     -44.793  57.984 -52.539  1.00  0.00     0.161 C 
BRANCH  17  18
HETATM   18  C   UNL     1     -44.917  58.635 -53.892  1.00  0.00    -0.038 A 
HETATM   19  C   UNL     1     -44.740  60.023 -54.034  1.00  0.00     0.048 A 
HETATM   20  C   UNL     1     -44.926  60.582 -55.279  1.00  0.00     0.105 A 
HETATM   21  C   UNL     1     -45.287  59.823 -56.367  1.00  0.00     0.105 A 
HETATM   22  O   UNL     1     -44.800  61.901 -55.585  1.00  0.00    -0.323 OA
HETATM   23  O   UNL     1     -45.432  60.569 -57.494  1.00  0.00    -0.323 OA
HETATM   24  C   UNL     1     -45.477  58.463 -56.270  1.00  0.00     0.040 A 
HETATM   25  C   UNL     1     -45.131  61.887 -56.989  1.00  0.00     0.352 A 
HETATM   26  C   UNL     1     -45.294  57.867 -55.018  1.00  0.00     0.012 A 
ENDBRANCH  17  18
ENDBRANCH  14  17
ENDBRANCH   2  13
BRANCH   2  27
HETATM   27  O   UNL     1     -43.540  54.041 -52.249  1.00  0.00    -0.359 OA
HETATM   28  H   UNL     1     -44.316  54.609 -52.417  1.00  0.00     0.213 HD
ENDBRANCH   2  27
BRANCH   1  29
HETATM   29  C   UNL     1     -42.218  55.065 -54.888  1.00  0.00     0.043 A 
HETATM   30  C   UNL     1     -41.812  56.288 -55.440  1.00  0.00     0.030 A 
HETATM   31  C   UNL     1     -42.222  56.681 -56.720  1.00  0.00     0.009 A 
HETATM   32  C   UNL     1     -43.058  55.861 -57.482  1.00  0.00    -0.058 A 
HETATM   33  C   UNL     1     -43.492  54.653 -56.934  1.00  0.00     0.009 A 
HETATM   34  C   UNL     1     -43.081  54.265 -55.655  1.00  0.00     0.030 A 
BRANCH  32  35
HETATM   35  C   UNL     1     -43.454  56.254 -58.882  1.00  0.00     0.034 C 
HETATM   36  C   UNL     1     -44.056  55.081 -59.641  1.00  0.00     0.010 C 
ENDBRANCH  32  35
ENDBRANCH   1  29
TORSDOF 6
ENDMDL
MODEL 9
REMARK VINA RESULT:      -8.1      2.595      6.990
REMARK  6 active torsions:
REMARK  status: ('A' for Active; 'I' for Inactive)
REMARK    1  A    between atoms: C_2  and  C_3 
REMARK    2  A    between atoms: C_6  and  N_7 
REMARK    3  A    between atoms: C_8  and  C_10 
REMARK    4  A    between atoms: C_8  and  O_9 
REMARK       I    between atoms: C_10  and  N_11 
REMARK    5  A    between atoms: N_11  and  C_12 
REMARK    6  A    between atoms: C_12  and  C_13 
ROOT
HETATM    1  N   UNL     1     -43.221  55.640 -52.503  1.00  0.00    -0.254 N 
HETATM    2  C   UNL     1     -43.845  56.538 -53.496  1.00  0.00     0.256 C 
HETATM    3  C   UNL     1     -44.531  57.750 -52.887  1.00  0.00     0.034 A 
HETATM    4  C   UNL     1     -44.858  57.723 -51.539  1.00  0.00     0.048 A 
HETATM    5  N   UNL     1     -44.495  56.621 -50.785  1.00  0.00    -0.308 N 
HETATM    6  C   UNL     1     -43.703  55.596 -51.203  1.00  0.00     0.330 C 
HETATM    7  O   UNL     1     -43.441  54.728 -50.367  1.00  0.00    -0.246 OA
HETATM    8  C   UNL     1     -44.917  58.873 -53.641  1.00  0.00     0.015 A 
HETATM    9  C   UNL     1     -45.581  59.945 -53.039  1.00  0.00     0.001 A 
HETATM   10  C   UNL     1     -45.895  59.897 -51.684  1.00  0.00     0.002 A 
HETATM   11  C   UNL     1     -45.543  58.778 -50.932  1.00  0.00     0.030 A 
HETATM   12  H   UNL     1     -44.777  56.554 -49.816  1.00  0.00     0.170 HD
ENDROOT
BRANCH   2  13
HETATM   13  C   UNL     1     -42.769  57.057 -54.546  1.00  0.00     0.279 C 
HETATM   14  N   UNL     1     -43.078  56.894 -55.880  1.00  0.00    -0.352 N 
HETATM   15  H   UNL     1     -44.040  56.679 -56.121  1.00  0.00     0.162 HD
HETATM   16  O   UNL     1     -41.678  57.489 -54.160  1.00  0.00    -0.268 OA
BRANCH  14  17
HETATM   17  C   UNL     1     -42.234  57.438 -56.918  1.00  0.00     0.161 C 
BRANCH  17  18
HETATM   18  C   UNL     1     -42.623  58.849 -57.275  1.00  0.00    -0.038 A 
HETATM   19  C   UNL     1     -41.638  59.802 -57.590  1.00  0.00     0.048 A 
HETATM   20  C   UNL     1     -42.038  61.095 -57.847  1.00  0.00     0.105 A 
HETATM   21  C   UNL     1     -43.359  61.469 -57.792  1.00  0.00     0.105 A 
HETATM   22  O   UNL     1     -41.217  62.133 -58.160  1.00  0.00    -0.323 OA
HETATM   23  O   UNL     1     -43.537  62.789 -58.064  1.00  0.00    -0.323 OA
HETATM   24  C   UNL     1     -44.354  60.569 -57.480  1.00  0.00     0.040 A 
HETATM   25  C   UNL     1     -42.173  63.205 -58.287  1.00  0.00     0.352 A 
HETATM   26  C   UNL     1     -43.978  59.248 -57.216  1.00  0.00     0.012 A 
ENDBRANCH  17  18
ENDBRANCH  14  17
ENDBRANCH   2  13
BRANCH   2  27
HETATM   27  O   UNL     1     -44.876  55.807 -54.163  1.00  0.00    -0.359 OA
HETATM   28  H   UNL     1     -45.695  56.307 -53.981  1.00  0.00     0.213 HD
ENDBRANCH   2  27
BRANCH   1  29
HETATM   29  C   UNL     1     -42.245  54.663 -52.928  1.00  0.00     0.043 A 
HETATM   30  C   UNL     1     -41.038  54.459 -52.245  1.00  0.00     0.030 A 
HETATM   31  C   UNL     1     -40.165  53.423 -52.603  1.00  0.00     0.009 A 
HETATM   32  C   UNL     1     -40.475  52.566 -53.662  1.00  0.00    -0.058 A 
HETATM   33  C   UNL     1     -41.660  52.775 -54.368  1.00  0.00     0.009 A 
HETATM   34  C   UNL     1     -42.529  53.810 -54.007  1.00  0.00     0.030 A 
BRANCH  32  35
HETATM   35  C   UNL     1     -39.566  51.416 -54.011  1.00  0.00     0.034 C 
HETATM   36  C   UNL     1     -40.360  50.165 -54.359  1.00  0.00     0.010 C 
ENDBRANCH  32  35
ENDBRANCH   1  29
TORSDOF 6
ENDMDL
MODEL 10
REMARK VINA RESULT:      -8.1      2.897      6.754
REMARK  6 active torsions:
REMARK  status: ('A' for Active; 'I' for Inactive)
REMARK    1  A    between atoms: C_2  and  C_3 
REMARK    2  A    between atoms: C_6  and  N_7 
REMARK    3  A    between atoms: C_8  and  C_10 
REMARK    4  A    between atoms: C_8  and  O_9 
REMARK       I    between atoms: C_10  and  N_11 
REMARK    5  A    between atoms: N_11  and  C_12 
REMARK    6  A    between atoms: C_12  and  C_13 
ROOT
HETATM    1  N   UNL     1     -41.895  57.267 -51.882  1.00  0.00    -0.254 N 
HETATM    2  C   UNL     1     -41.506  57.136 -53.301  1.00  0.00     0.256 C 
HETATM    3  C   UNL     1     -41.194  55.711 -53.726  1.00  0.00     0.034 A 
HETATM    4  C   UNL     1     -40.914  54.769 -52.746  1.00  0.00     0.048 A 
HETATM    5  N   UNL     1     -40.990  55.145 -51.417  1.00  0.00    -0.308 N 
HETATM    6  C   UNL     1     -41.461  56.335 -50.951  1.00  0.00     0.330 C 
HETATM    7  O   UNL     1     -41.504  56.466 -49.726  1.00  0.00    -0.246 OA
HETATM    8  C   UNL     1     -41.102  55.313 -55.073  1.00  0.00     0.015 A 
HETATM    9  C   UNL     1     -40.772  53.998 -55.410  1.00  0.00     0.001 A 
HETATM   10  C   UNL     1     -40.501  53.070 -54.409  1.00  0.00     0.002 A 
HETATM   11  C   UNL     1     -40.561  53.458 -53.072  1.00  0.00     0.030 A 
HETATM   12  H   UNL     1     -40.731  54.492 -50.689  1.00  0.00     0.170 HD
ENDROOT
BRANCH   2  13
HETATM   13  C   UNL     1     -42.647  57.696 -54.256  1.00  0.00     0.279 C 
HETATM   14  N   UNL     1     -42.348  58.833 -54.977  1.00  0.00    -0.352 N 
HETATM   15  H   UNL     1     -41.374  59.109 -55.043  1.00  0.00     0.162 HD
HETATM   16  O   UNL     1     -43.769  57.178 -54.258  1.00  0.00    -0.268 OA
BRANCH  14  17
HETATM   17  C   UNL     1     -43.262  59.357 -55.965  1.00  0.00     0.161 C 
BRANCH  17  18
HETATM   18  C   UNL     1     -43.204  58.575 -57.252  1.00  0.00    -0.038 A 
HETATM   19  C   UNL     1     -44.315  57.829 -57.683  1.00  0.00     0.048 A 
HETATM   20  C   UNL     1     -44.193  57.079 -58.833  1.00  0.00     0.105 A 
HETATM   21  C   UNL     1     -43.021  57.040 -59.550  1.00  0.00     0.105 A 
HETATM   22  O   UNL     1     -45.164  56.301 -59.381  1.00  0.00    -0.323 OA
HETATM   23  O   UNL     1     -43.107  56.232 -60.640  1.00  0.00    -0.323 OA
HETATM   24  C   UNL     1     -41.908  57.750 -59.159  1.00  0.00     0.040 A 
HETATM   25  C   UNL     1     -44.466  55.760 -60.521  1.00  0.00     0.352 A 
HETATM   26  C   UNL     1     -42.003  58.521 -57.996  1.00  0.00     0.012 A 
ENDBRANCH  17  18
ENDBRANCH  14  17
ENDBRANCH   2  13
BRANCH   2  27
HETATM   27  O   UNL     1     -40.294  57.869 -53.495  1.00  0.00    -0.359 OA
HETATM   28  H   UNL     1     -39.869  57.450 -54.266  1.00  0.00     0.213 HD
ENDBRANCH   2  27
BRANCH   1  29
HETATM   29  C   UNL     1     -42.555  58.468 -51.424  1.00  0.00     0.043 A 
HETATM   30  C   UNL     1     -43.943  58.539 -51.237  1.00  0.00     0.030 A 
HETATM   31  C   UNL     1     -44.545  59.672 -50.676  1.00  0.00     0.009 A 
HETATM   32  C   UNL     1     -43.773  60.771 -50.292  1.00  0.00    -0.058 A 
HETATM   33  C   UNL     1     -42.393  60.725 -50.497  1.00  0.00     0.009 A 
HETATM   34  C   UNL     1     -41.796  59.591 -51.058  1.00  0.00     0.030 A 
BRANCH  32  35
HETATM   35  C   UNL     1     -44.411  61.967 -49.635  1.00  0.00     0.034 C 
HETATM   36  C   UNL     1     -43.569  63.221 -49.823  1.00  0.00     0.010 C 
ENDBRANCH  32  35
ENDBRANCH   1  29
TORSDOF 6
ENDMDL
