MODEL 1
REMARK VINA RESULT:      -8.6      0.000      0.000
REMARK  7 active torsions:
REMARK  status: ('A' for Active; 'I' for Inactive)
REMARK    1  A    between atoms: C_2  and  C_3 
REMARK    2  A    between atoms: C_4  and  N_5 
REMARK       I    between atoms: N_5  and  C_6 
REMARK    3  A    between atoms: C_6  and  C_7 
REMARK    4  A    between atoms: C_8  and  N_9 
REMARK       I    between atoms: N_9  and  C_10 
REMARK    5  A    between atoms: C_10  and  C_11 
REMARK    6  A    between atoms: C_11  and  N_12 
REMARK    7  A    between atoms: C_25  and  C_26 
ROOT
HETATM    1  C   UNL     1     -43.126  55.488 -53.179  1.00  0.00     0.073 A 
HETATM    2  C   UNL     1     -43.519  55.557 -54.505  1.00  0.00     0.093 A 
HETATM    3  S   UNL     1     -42.877  54.325 -55.478  1.00  0.00    -0.075 SA
HETATM    4  C   UNL     1     -42.120  53.597 -54.144  1.00  0.00    -0.008 A 
HETATM    5  C   UNL     1     -42.304  54.306 -52.972  1.00  0.00    -0.026 A 
HETATM    6  C   UNL     1     -41.623  53.871 -51.706  1.00  0.00     0.041 C 
HETATM    7  C   UNL     1     -40.420  52.953 -51.989  1.00  0.00     0.010 C 
HETATM    8  C   UNL     1     -40.784  51.798 -52.961  1.00  0.00    -0.002 C 
HETATM    9  C   UNL     1     -41.263  52.377 -54.321  1.00  0.00     0.052 C 
ENDROOT
BRANCH   1  10
HETATM   10  C   UNL     1     -43.398  56.559 -52.206  1.00  0.00     0.259 C 
HETATM   11  N   UNL     1     -42.701  57.724 -52.455  1.00  0.00    -0.322 N 
HETATM   12  H   UNL     1     -41.979  57.653 -53.158  1.00  0.00     0.169 HD
HETATM   13  O   UNL     1     -44.164  56.360 -51.264  1.00  0.00    -0.267 OA
BRANCH  11  14
HETATM   14  C   UNL     1     -42.809  58.966 -51.783  1.00  0.00     0.041 A 
HETATM   15  C   UNL     1     -41.735  59.415 -50.980  1.00  0.00    -0.032 A 
HETATM   16  C   UNL     1     -41.851  60.647 -50.304  1.00  0.00     0.009 A 
HETATM   17  C   UNL     1     -42.991  61.436 -50.435  1.00  0.00     0.001 A 
HETATM   18  C   UNL     1     -44.032  61.007 -51.245  1.00  0.00     0.002 A 
HETATM   19  C   UNL     1     -43.940  59.784 -51.914  1.00  0.00     0.030 A 
BRANCH  15  20
HETATM   20  C   UNL     1     -40.453  58.635 -50.778  1.00  0.00     0.036 C 
HETATM   21  C   UNL     1     -39.254  59.548 -50.569  1.00  0.00     0.010 C 
ENDBRANCH  15  20
ENDBRANCH  11  14
ENDBRANCH   1  10
BRANCH   2  22
HETATM   22  N   UNL     1     -44.276  56.450 -55.230  1.00  0.00    -0.319 N 
HETATM   23  C   UNL     1     -43.719  57.540 -55.858  1.00  0.00     0.248 C 
HETATM   24  O   UNL     1     -42.662  58.094 -55.555  1.00  0.00    -0.271 OA
HETATM   25  H   UNL     1     -45.279  56.381 -55.100  1.00  0.00     0.169 HD
BRANCH  23  26
HETATM   26  C   UNL     1     -44.558  58.086 -57.009  1.00  0.00     0.337 C 
BRANCH  26  27
HETATM   27  N   UNL     1     -44.672  57.080 -58.150  1.00  0.00    -0.059 N 
HETATM   28  H   UNL     1     -45.218  56.293 -57.762  1.00  0.00     0.280 HD
HETATM   29  C   UNL     1     -45.504  57.612 -59.320  1.00  0.00     0.261 C 
HETATM   30  C   UNL     1     -45.576  56.542 -60.416  1.00  0.00     0.195 C 
HETATM   31  O   UNL     1     -44.264  56.150 -60.840  1.00  0.00    -0.388 OA
HETATM   32  C   UNL     1     -43.514  55.576 -59.764  1.00  0.00     0.195 C 
HETATM   33  C   UNL     1     -43.324  56.585 -58.629  1.00  0.00     0.261 C 
ENDBRANCH  26  27
ENDBRANCH  23  26
ENDBRANCH   2  22
BRANCH   8  34
HETATM   34  C   UNL     1     -39.643  50.722 -53.121  1.00  0.00    -0.047 C 
HETATM   35  C   UNL     1     -39.882  49.878 -54.391  1.00  0.00     0.015 C 
HETATM   36  C   UNL     1     -38.269  51.410 -53.281  1.00  0.00     0.015 C 
HETATM   37  C   UNL     1     -39.562  49.761 -51.918  1.00  0.00     0.015 C 
ENDBRANCH   8  34
TORSDOF 7
ENDMDL
MODEL 2
REMARK VINA RESULT:      -8.4      2.545      7.785
REMARK  7 active torsions:
REMARK  status: ('A' for Active; 'I' for Inactive)
REMARK    1  A    between atoms: C_2  and  C_3 
REMARK    2  A    between atoms: C_4  and  N_5 
REMARK       I    between atoms: N_5  and  C_6 
REMARK    3  A    between atoms: C_6  and  C_7 
REMARK    4  A    between atoms: C_8  and  N_9 
REMARK       I    between atoms: N_9  and  C_10 
REMARK    5  A    between atoms: C_10  and  C_11 
REMARK    6  A    between atoms: C_11  and  N_12 
REMARK    7  A    between atoms: C_25  and  C_26 
ROOT
HETATM    1  C   UNL     1     -42.427  56.588 -54.675  1.00  0.00     0.073 A 
HETATM    2  C   UNL     1     -42.860  57.741 -54.042  1.00  0.00     0.093 A 
HETATM    3  S   UNL     1     -43.920  58.682 -54.974  1.00  0.00    -0.075 SA
HETATM    4  C   UNL     1     -43.914  57.537 -56.228  1.00  0.00    -0.008 A 
HETATM    5  C   UNL     1     -43.074  56.469 -55.972  1.00  0.00    -0.026 A 
HETATM    6  C   UNL     1     -42.859  55.406 -57.011  1.00  0.00     0.041 C 
HETATM    7  C   UNL     1     -43.240  55.897 -58.420  1.00  0.00     0.010 C 
HETATM    8  C   UNL     1     -44.646  56.557 -58.447  1.00  0.00    -0.002 C 
HETATM    9  C   UNL     1     -44.675  57.786 -57.497  1.00  0.00     0.052 C 
ENDROOT
BRANCH   1  10
HETATM   10  C   UNL     1     -41.356  55.732 -54.137  1.00  0.00     0.259 C 
HETATM   11  N   UNL     1     -41.787  54.475 -53.762  1.00  0.00    -0.322 N 
HETATM   12  H   UNL     1     -42.789  54.351 -53.745  1.00  0.00     0.169 HD
HETATM   13  O   UNL     1     -40.211  56.167 -54.031  1.00  0.00    -0.267 OA
BRANCH  11  14
HETATM   14  C   UNL     1     -41.006  53.384 -53.312  1.00  0.00     0.041 A 
HETATM   15  C   UNL     1     -40.755  53.235 -51.928  1.00  0.00    -0.032 A 
HETATM   16  C   UNL     1     -39.967  52.154 -51.485  1.00  0.00     0.009 A 
HETATM   17  C   UNL     1     -39.457  51.219 -52.382  1.00  0.00     0.001 A 
HETATM   18  C   UNL     1     -39.727  51.350 -53.736  1.00  0.00     0.002 A 
HETATM   19  C   UNL     1     -40.496  52.422 -54.196  1.00  0.00     0.030 A 
BRANCH  15  20
HETATM   20  C   UNL     1     -41.269  54.193 -50.874  1.00  0.00     0.036 C 
HETATM   21  C   UNL     1     -40.167  54.651 -49.930  1.00  0.00     0.010 C 
ENDBRANCH  15  20
ENDBRANCH  11  14
ENDBRANCH   1  10
BRANCH   2  22
HETATM   22  N   UNL     1     -42.570  58.330 -52.832  1.00  0.00    -0.319 N 
HETATM   23  C   UNL     1     -41.602  59.300 -52.704  1.00  0.00     0.248 C 
HETATM   24  O   UNL     1     -40.639  59.471 -53.453  1.00  0.00    -0.271 OA
HETATM   25  H   UNL     1     -42.954  57.868 -52.016  1.00  0.00     0.169 HD
BRANCH  23  26
HETATM   26  C   UNL     1     -41.778  60.192 -51.479  1.00  0.00     0.337 C 
BRANCH  26  27
HETATM   27  N   UNL     1     -43.211  60.697 -51.351  1.00  0.00    -0.059 N 
HETATM   28  H   UNL     1     -43.805  59.873 -51.541  1.00  0.00     0.280 HD
HETATM   29  C   UNL     1     -43.557  61.122 -49.922  1.00  0.00     0.261 C 
HETATM   30  C   UNL     1     -45.011  61.606 -49.876  1.00  0.00     0.195 C 
HETATM   31  O   UNL     1     -45.228  62.672 -50.809  1.00  0.00    -0.388 OA
HETATM   32  C   UNL     1     -44.985  62.251 -52.156  1.00  0.00     0.195 C 
HETATM   33  C   UNL     1     -43.532  61.802 -52.334  1.00  0.00     0.261 C 
ENDBRANCH  26  27
ENDBRANCH  23  26
ENDBRANCH   2  22
BRANCH   8  34
HETATM   34  C   UNL     1     -45.160  56.891 -59.899  1.00  0.00    -0.047 C 
HETATM   35  C   UNL     1     -44.507  58.195 -60.407  1.00  0.00     0.015 C 
HETATM   36  C   UNL     1     -44.767  55.769 -60.884  1.00  0.00     0.015 C 
HETATM   37  C   UNL     1     -46.690  57.069 -59.959  1.00  0.00     0.015 C 
ENDBRANCH   8  34
TORSDOF 7
ENDMDL
MODEL 3
REMARK VINA RESULT:      -8.3      2.282      7.198
REMARK  7 active torsions:
REMARK  status: ('A' for Active; 'I' for Inactive)
REMARK    1  A    between atoms: C_2  and  C_3 
REMARK    2  A    between atoms: C_4  and  N_5 
REMARK       I    between atoms: N_5  and  C_6 
REMARK    3  A    between atoms: C_6  and  C_7 
REMARK    4  A    between atoms: C_8  and  N_9 
REMARK       I    between atoms: N_9  and  C_10 
REMARK    5  A    between atoms: C_10  and  C_11 
REMARK    6  A    between atoms: C_11  and  N_12 
REMARK    7  A    between atoms: C_25  and  C_26 
ROOT
HETATM    1  C   UNL     1     -41.663  59.359 -53.654  1.00  0.00     0.073 A 
HETATM    2  C   UNL     1     -42.207  59.763 -54.862  1.00  0.00     0.093 A 
HETATM    3  S   UNL     1     -43.251  61.094 -54.736  1.00  0.00    -0.075 SA
HETATM    4  C   UNL     1     -42.945  61.240 -53.072  1.00  0.00    -0.008 A 
HETATM    5  C   UNL     1     -42.098  60.256 -52.596  1.00  0.00    -0.026 A 
HETATM    6  C   UNL     1     -41.794  60.162 -51.128  1.00  0.00     0.041 C 
HETATM    7  C   UNL     1     -42.848  60.891 -50.276  1.00  0.00     0.010 C 
HETATM    8  C   UNL     1     -43.121  62.330 -50.791  1.00  0.00    -0.002 C 
HETATM    9  C   UNL     1     -43.649  62.282 -52.251  1.00  0.00     0.052 C 
ENDROOT
BRANCH   1  10
HETATM   10  C   UNL     1     -40.895  58.112 -53.498  1.00  0.00     0.259 C 
HETATM   11  N   UNL     1     -41.646  56.970 -53.699  1.00  0.00    -0.322 N 
HETATM   12  H   UNL     1     -42.643  57.116 -53.762  1.00  0.00     0.169 HD
HETATM   13  O   UNL     1     -39.706  58.152 -53.189  1.00  0.00    -0.267 OA
BRANCH  11  14
HETATM   14  C   UNL     1     -41.200  55.627 -53.729  1.00  0.00     0.041 A 
HETATM   15  C   UNL     1     -41.365  54.816 -52.582  1.00  0.00    -0.032 A 
HETATM   16  C   UNL     1     -40.910  53.483 -52.612  1.00  0.00     0.009 A 
HETATM   17  C   UNL     1     -40.324  52.947 -53.756  1.00  0.00     0.001 A 
HETATM   18  C   UNL     1     -40.187  53.735 -54.890  1.00  0.00     0.002 A 
HETATM   19  C   UNL     1     -40.622  55.063 -54.875  1.00  0.00     0.030 A 
BRANCH  15  20
HETATM   20  C   UNL     1     -41.993  55.302 -51.293  1.00  0.00     0.036 C 
HETATM   21  C   UNL     1     -40.968  55.916 -50.352  1.00  0.00     0.010 C 
ENDBRANCH  15  20
ENDBRANCH  11  14
ENDBRANCH   1  10
BRANCH   2  22
HETATM   22  N   UNL     1     -42.135  59.280 -56.149  1.00  0.00    -0.319 N 
HETATM   23  C   UNL     1     -42.995  58.313 -56.617  1.00  0.00     0.248 C 
HETATM   24  O   UNL     1     -43.609  57.492 -55.935  1.00  0.00    -0.271 OA
HETATM   25  H   UNL     1     -41.291  59.516 -56.659  1.00  0.00     0.169 HD
BRANCH  23  26
HETATM   26  C   UNL     1     -43.132  58.291 -58.136  1.00  0.00     0.337 C 
BRANCH  26  27
HETATM   27  N   UNL     1     -44.013  57.138 -58.606  1.00  0.00    -0.059 N 
HETATM   28  H   UNL     1     -44.490  56.799 -57.754  1.00  0.00     0.280 HD
HETATM   29  C   UNL     1     -45.135  57.600 -59.540  1.00  0.00     0.261 C 
HETATM   30  C   UNL     1     -45.976  56.389 -59.958  1.00  0.00     0.195 C 
HETATM   31  O   UNL     1     -45.160  55.383 -60.573  1.00  0.00    -0.388 OA
HETATM   32  C   UNL     1     -44.163  54.891 -59.673  1.00  0.00     0.195 C 
HETATM   33  C   UNL     1     -43.219  56.014 -59.235  1.00  0.00     0.261 C 
ENDBRANCH  26  27
ENDBRANCH  23  26
ENDBRANCH   2  22
BRANCH   8  34
HETATM   34  C   UNL     1     -44.040  63.181 -49.835  1.00  0.00    -0.047 C 
HETATM   35  C   UNL     1     -45.259  63.723 -50.613  1.00  0.00     0.015 C 
HETATM   36  C   UNL     1     -44.585  62.304 -48.686  1.00  0.00     0.015 C 
HETATM   37  C   UNL     1     -43.299  64.381 -49.213  1.00  0.00     0.015 C 
ENDBRANCH   8  34
TORSDOF 7
ENDMDL
MODEL 4
REMARK VINA RESULT:      -8.2      2.418      5.850
REMARK  7 active torsions:
REMARK  status: ('A' for Active; 'I' for Inactive)
REMARK    1  A    between atoms: C_2  and  C_3 
REMARK    2  A    between atoms: C_4  and  N_5 
REMARK       I    between atoms: N_5  and  C_6 
REMARK    3  A    between atoms: C_6  and  C_7 
REMARK    4  A    between atoms: C_8  and  N_9 
REMARK       I    between atoms: N_9  and  C_10 
REMARK    5  A    between atoms: C_10  and  C_11 
REMARK    6  A    between atoms: C_11  and  N_12 
REMARK    7  A    between atoms: C_25  and  C_26 
ROOT
HETATM    1  C   UNL     1     -41.627  56.139 -52.654  1.00  0.00     0.073 A 
HETATM    2  C   UNL     1     -41.360  56.324 -51.308  1.00  0.00     0.093 A 
HETATM    3  S   UNL     1     -40.686  54.966 -50.547  1.00  0.00    -0.075 SA
HETATM    4  C   UNL     1     -40.640  54.106 -52.010  1.00  0.00    -0.008 A 
HETATM    5  C   UNL     1     -41.179  54.818 -53.065  1.00  0.00    -0.026 A 
HETATM    6  C   UNL     1     -41.318  54.180 -54.418  1.00  0.00     0.041 C 
HETATM    7  C   UNL     1     -41.275  52.644 -54.335  1.00  0.00     0.010 C 
HETATM    8  C   UNL     1     -40.067  52.139 -53.501  1.00  0.00    -0.002 C 
HETATM    9  C   UNL     1     -40.156  52.685 -52.049  1.00  0.00     0.052 C 
ENDROOT
BRANCH   1  10
HETATM   10  C   UNL     1     -42.391  57.106 -53.460  1.00  0.00     0.259 C 
HETATM   11  N   UNL     1     -41.703  57.574 -54.563  1.00  0.00    -0.322 N 
HETATM   12  H   UNL     1     -40.723  57.333 -54.593  1.00  0.00     0.169 HD
HETATM   13  O   UNL     1     -43.521  57.445 -53.114  1.00  0.00    -0.267 OA
BRANCH  11  14
HETATM   14  C   UNL     1     -42.179  58.421 -55.592  1.00  0.00     0.041 A 
HETATM   15  C   UNL     1     -42.767  57.850 -56.744  1.00  0.00    -0.032 A 
HETATM   16  C   UNL     1     -43.229  58.697 -57.772  1.00  0.00     0.009 A 
HETATM   17  C   UNL     1     -43.139  60.082 -57.658  1.00  0.00     0.001 A 
HETATM   18  C   UNL     1     -42.586  60.643 -56.516  1.00  0.00     0.002 A 
HETATM   19  C   UNL     1     -42.112  59.819 -55.492  1.00  0.00     0.030 A 
BRANCH  15  20
HETATM   20  C   UNL     1     -42.916  56.359 -56.960  1.00  0.00     0.036 C 
HETATM   21  C   UNL     1     -43.181  56.015 -58.418  1.00  0.00     0.010 C 
ENDBRANCH  15  20
ENDBRANCH  11  14
ENDBRANCH   1  10
BRANCH   2  22
HETATM   22  N   UNL     1     -41.579  57.359 -50.426  1.00  0.00    -0.319 N 
HETATM   23  C   UNL     1     -40.885  58.544 -50.503  1.00  0.00     0.248 C 
HETATM   24  O   UNL     1     -39.778  58.708 -51.016  1.00  0.00    -0.271 OA
HETATM   25  H   UNL     1     -42.119  57.124 -49.601  1.00  0.00     0.169 HD
BRANCH  23  26
HETATM   26  C   UNL     1     -41.596  59.720 -49.841  1.00  0.00     0.337 C 
BRANCH  26  27
HETATM   27  N   UNL     1     -42.914  60.048 -50.537  1.00  0.00    -0.059 N 
HETATM   28  H   UNL     1     -43.423  59.150 -50.585  1.00  0.00     0.280 HD
HETATM   29  C   UNL     1     -43.803  60.973 -49.703  1.00  0.00     0.261 C 
HETATM   30  C   UNL     1     -45.105  61.245 -50.466  1.00  0.00     0.195 C 
HETATM   31  O   UNL     1     -44.837  61.799 -51.761  1.00  0.00    -0.388 OA
HETATM   32  C   UNL     1     -44.074  60.898 -52.571  1.00  0.00     0.195 C 
HETATM   33  C   UNL     1     -42.716  60.603 -51.931  1.00  0.00     0.261 C 
ENDBRANCH  26  27
ENDBRANCH  23  26
ENDBRANCH   2  22
BRANCH   8  34
HETATM   34  C   UNL     1     -39.869  50.576 -53.556  1.00  0.00    -0.047 C 
HETATM   35  C   UNL     1     -41.065  49.914 -54.273  1.00  0.00     0.015 C 
HETATM   36  C   UNL     1     -38.599  50.219 -54.360  1.00  0.00     0.015 C 
HETATM   37  C   UNL     1     -39.744  49.945 -52.155  1.00  0.00     0.015 C 
ENDBRANCH   8  34
TORSDOF 7
ENDMDL
MODEL 5
REMARK VINA RESULT:      -8.1      2.818      7.612
REMARK  7 active torsions:
REMARK  status: ('A' for Active; 'I' for Inactive)
REMARK    1  A    between atoms: C_2  and  C_3 
REMARK    2  A    between atoms: C_4  and  N_5 
REMARK       I    between atoms: N_5  and  C_6 
REMARK    3  A    between atoms: C_6  and  C_7 
REMARK    4  A    between atoms: C_8  and  N_9 
REMARK       I    between atoms: N_9  and  C_10 
REMARK    5  A    between atoms: C_10  and  C_11 
REMARK    6  A    between atoms: C_11  and  N_12 
REMARK    7  A    between atoms: C_25  and  C_26 
ROOT
HETATM    1  C   UNL     1     -42.859  57.322 -54.401  1.00  0.00     0.073 A 
HETATM    2  C   UNL     1     -43.491  58.498 -54.032  1.00  0.00     0.093 A 
HETATM    3  S   UNL     1     -44.488  59.151 -55.239  1.00  0.00    -0.075 SA
HETATM    4  C   UNL     1     -44.185  57.838 -56.271  1.00  0.00    -0.008 A 
HETATM    5  C   UNL     1     -43.292  56.930 -55.733  1.00  0.00    -0.026 A 
HETATM    6  C   UNL     1     -42.823  55.755 -56.543  1.00  0.00     0.041 C 
HETATM    7  C   UNL     1     -43.038  55.977 -58.051  1.00  0.00     0.010 C 
HETATM    8  C   UNL     1     -44.482  56.451 -58.371  1.00  0.00    -0.002 C 
HETATM    9  C   UNL     1     -44.771  57.797 -57.653  1.00  0.00     0.052 C 
ENDROOT
BRANCH   1  10
HETATM   10  C   UNL     1     -41.801  56.693 -53.593  1.00  0.00     0.259 C 
HETATM   11  N   UNL     1     -42.248  55.642 -52.817  1.00  0.00    -0.322 N 
HETATM   12  H   UNL     1     -43.251  55.538 -52.768  1.00  0.00     0.169 HD
HETATM   13  O   UNL     1     -40.652  57.129 -53.629  1.00  0.00    -0.267 OA
BRANCH  11  14
HETATM   14  C   UNL     1     -41.481  54.764 -52.014  1.00  0.00     0.041 A 
HETATM   15  C   UNL     1     -40.988  53.563 -52.575  1.00  0.00    -0.032 A 
HETATM   16  C   UNL     1     -40.234  52.686 -51.769  1.00  0.00     0.009 A 
HETATM   17  C   UNL     1     -39.949  52.994 -50.441  1.00  0.00     0.001 A 
HETATM   18  C   UNL     1     -40.410  54.185 -49.899  1.00  0.00     0.002 A 
HETATM   19  C   UNL     1     -41.169  55.061 -50.679  1.00  0.00     0.030 A 
BRANCH  15  20
HETATM   20  C   UNL     1     -41.238  53.140 -54.007  1.00  0.00     0.036 C 
HETATM   21  C   UNL     1     -40.159  53.649 -54.952  1.00  0.00     0.010 C 
ENDBRANCH  15  20
ENDBRANCH  11  14
ENDBRANCH   1  10
BRANCH   2  22
HETATM   22  N   UNL     1     -43.442  59.295 -52.911  1.00  0.00    -0.319 N 
HETATM   23  C   UNL     1     -42.460  60.242 -52.729  1.00  0.00     0.248 C 
HETATM   24  O   UNL     1     -41.343  60.242 -53.247  1.00  0.00    -0.271 OA
HETATM   25  H   UNL     1     -44.033  59.005 -52.140  1.00  0.00     0.169 HD
BRANCH  23  26
HETATM   26  C   UNL     1     -42.845  61.353 -51.758  1.00  0.00     0.337 C 
BRANCH  26  27
HETATM   27  N   UNL     1     -44.204  61.095 -51.115  1.00  0.00    -0.059 N 
HETATM   28  H   UNL     1     -44.480  60.153 -51.438  1.00  0.00     0.280 HD
HETATM   29  C   UNL     1     -44.121  60.990 -49.590  1.00  0.00     0.261 C 
HETATM   30  C   UNL     1     -45.520  60.722 -49.024  1.00  0.00     0.195 C 
HETATM   31  O   UNL     1     -46.444  61.740 -49.432  1.00  0.00    -0.388 OA
HETATM   32  C   UNL     1     -46.585  61.783 -50.856  1.00  0.00     0.195 C 
HETATM   33  C   UNL     1     -45.249  62.109 -51.529  1.00  0.00     0.261 C 
ENDBRANCH  26  27
ENDBRANCH  23  26
ENDBRANCH   2  22
BRANCH   8  34
HETATM   34  C   UNL     1     -44.806  56.496 -59.913  1.00  0.00    -0.047 C 
HETATM   35  C   UNL     1     -46.251  56.992 -60.138  1.00  0.00     0.015 C 
HETATM   36  C   UNL     1     -43.865  57.486 -60.634  1.00  0.00     0.015 C 
HETATM   37  C   UNL     1     -44.664  55.119 -60.589  1.00  0.00     0.015 C 
ENDBRANCH   8  34
TORSDOF 7
ENDMDL
MODEL 6
REMARK VINA RESULT:      -7.9      1.418      2.269
REMARK  7 active torsions:
REMARK  status: ('A' for Active; 'I' for Inactive)
REMARK    1  A    between atoms: C_2  and  C_3 
REMARK    2  A    between atoms: C_4  and  N_5 
REMARK       I    between atoms: N_5  and  C_6 
REMARK    3  A    between atoms: C_6  and  C_7 
REMARK    4  A    between atoms: C_8  and  N_9 
REMARK       I    between atoms: N_9  and  C_10 
REMARK    5  A    between atoms: C_10  and  C_11 
REMARK    6  A    between atoms: C_11  and  N_12 
REMARK    7  A    between atoms: C_25  and  C_26 
ROOT
HETATM    1  C   UNL     1     -43.971  57.047 -52.878  1.00  0.00     0.073 A 
HETATM    2  C   UNL     1     -44.282  56.592 -54.148  1.00  0.00     0.093 A 
HETATM    3  S   UNL     1     -43.516  55.138 -54.566  1.00  0.00    -0.075 SA
HETATM    4  C   UNL     1     -42.807  55.011 -53.028  1.00  0.00    -0.008 A 
HETATM    5  C   UNL     1     -43.102  56.088 -52.213  1.00  0.00    -0.026 A 
HETATM    6  C   UNL     1     -42.481  56.202 -50.851  1.00  0.00     0.041 C 
HETATM    7  C   UNL     1     -41.215  55.334 -50.724  1.00  0.00     0.010 C 
HETATM    8  C   UNL     1     -41.456  53.878 -51.208  1.00  0.00    -0.002 C 
HETATM    9  C   UNL     1     -41.878  53.877 -52.703  1.00  0.00     0.052 C 
ENDROOT
BRANCH   1  10
HETATM   10  C   UNL     1     -44.360  58.379 -52.385  1.00  0.00     0.259 C 
HETATM   11  N   UNL     1     -43.425  59.361 -52.648  1.00  0.00    -0.322 N 
HETATM   12  H   UNL     1     -42.535  59.029 -52.989  1.00  0.00     0.169 HD
HETATM   13  O   UNL     1     -45.419  58.530 -51.779  1.00  0.00    -0.267 OA
BRANCH  11  14
HETATM   14  C   UNL     1     -43.531  60.752 -52.408  1.00  0.00     0.041 A 
HETATM   15  C   UNL     1     -43.017  61.289 -51.206  1.00  0.00    -0.032 A 
HETATM   16  C   UNL     1     -43.134  62.673 -50.965  1.00  0.00     0.009 A 
HETATM   17  C   UNL     1     -43.724  63.519 -51.901  1.00  0.00     0.001 A 
HETATM   18  C   UNL     1     -44.204  62.996 -53.093  1.00  0.00     0.002 A 
HETATM   19  C   UNL     1     -44.107  61.625 -53.343  1.00  0.00     0.030 A 
BRANCH  15  20
HETATM   20  C   UNL     1     -42.354  60.456 -50.129  1.00  0.00     0.036 C 
HETATM   21  C   UNL     1     -41.024  59.878 -50.589  1.00  0.00     0.010 C 
ENDBRANCH  15  20
ENDBRANCH  11  14
ENDBRANCH   1  10
BRANCH   2  22
HETATM   22  N   UNL     1     -45.038  57.097 -55.182  1.00  0.00    -0.319 N 
HETATM   23  C   UNL     1     -44.554  58.057 -56.041  1.00  0.00     0.248 C 
HETATM   24  O   UNL     1     -43.650  58.858 -55.803  1.00  0.00    -0.271 OA
HETATM   25  H   UNL     1     -46.028  56.882 -55.147  1.00  0.00     0.169 HD
BRANCH  23  26
HETATM   26  C   UNL     1     -45.272  58.102 -57.386  1.00  0.00     0.337 C 
BRANCH  26  27
HETATM   27  N   UNL     1     -44.882  56.924 -58.273  1.00  0.00    -0.059 N 
HETATM   28  H   UNL     1     -45.068  56.083 -57.702  1.00  0.00     0.280 HD
HETATM   29  C   UNL     1     -45.788  56.789 -59.500  1.00  0.00     0.261 C 
HETATM   30  C   UNL     1     -45.337  55.582 -60.331  1.00  0.00     0.195 C 
HETATM   31  O   UNL     1     -43.958  55.702 -60.706  1.00  0.00    -0.388 OA
HETATM   32  C   UNL     1     -43.103  55.746 -59.559  1.00  0.00     0.195 C 
HETATM   33  C   UNL     1     -43.425  56.958 -58.682  1.00  0.00     0.261 C 
ENDBRANCH  26  27
ENDBRANCH  23  26
ENDBRANCH   2  22
BRANCH   8  34
HETATM   34  C   UNL     1     -40.252  52.905 -50.911  1.00  0.00    -0.047 C 
HETATM   35  C   UNL     1     -39.061  53.696 -50.328  1.00  0.00     0.015 C 
HETATM   36  C   UNL     1     -40.657  51.848 -49.860  1.00  0.00     0.015 C 
HETATM   37  C   UNL     1     -39.762  52.166 -52.171  1.00  0.00     0.015 C 
ENDBRANCH   8  34
TORSDOF 7
ENDMDL
MODEL 7
REMARK VINA RESULT:      -7.8      2.198      6.508
REMARK  7 active torsions:
REMARK  status: ('A' for Active; 'I' for Inactive)
REMARK    1  A    between atoms: C_2  and  C_3 
REMARK    2  A    between atoms: C_4  and  N_5 
REMARK       I    between atoms: N_5  and  C_6 
REMARK    3  A    between atoms: C_6  and  C_7 
REMARK    4  A    between atoms: C_8  and  N_9 
REMARK       I    between atoms: N_9  and  C_10 
REMARK    5  A    between atoms: C_10  and  C_11 
REMARK    6  A    between atoms: C_11  and  N_12 
REMARK    7  A    between atoms: C_25  and  C_26 
ROOT
HETATM    1  C   UNL     1     -42.042  56.586 -54.356  1.00  0.00     0.073 A 
HETATM    2  C   UNL     1     -42.049  57.100 -53.070  1.00  0.00     0.093 A 
HETATM    3  S   UNL     1     -41.452  56.030 -51.897  1.00  0.00    -0.075 SA
HETATM    4  C   UNL     1     -41.075  54.868 -53.077  1.00  0.00    -0.008 A 
HETATM    5  C   UNL     1     -41.445  55.259 -54.350  1.00  0.00    -0.026 A 
HETATM    6  C   UNL     1     -41.284  54.319 -55.510  1.00  0.00     0.041 C 
HETATM    7  C   UNL     1     -41.165  52.855 -55.049  1.00  0.00     0.010 C 
HETATM    8  C   UNL     1     -40.110  52.683 -53.922  1.00  0.00    -0.002 C 
HETATM    9  C   UNL     1     -40.508  53.534 -52.685  1.00  0.00     0.052 C 
ENDROOT
BRANCH   1  10
HETATM   10  C   UNL     1     -42.695  57.258 -55.492  1.00  0.00     0.259 C 
HETATM   11  N   UNL     1     -41.908  57.320 -56.625  1.00  0.00    -0.322 N 
HETATM   12  H   UNL     1     -40.943  57.054 -56.495  1.00  0.00     0.169 HD
HETATM   13  O   UNL     1     -43.826  57.724 -55.368  1.00  0.00    -0.267 OA
BRANCH  11  14
HETATM   14  C   UNL     1     -42.265  57.798 -57.909  1.00  0.00     0.041 A 
HETATM   15  C   UNL     1     -42.945  56.941 -58.804  1.00  0.00    -0.032 A 
HETATM   16  C   UNL     1     -43.289  57.417 -60.085  1.00  0.00     0.009 A 
HETATM   17  C   UNL     1     -42.992  58.722 -60.472  1.00  0.00     0.001 A 
HETATM   18  C   UNL     1     -42.349  59.571 -59.584  1.00  0.00     0.002 A 
HETATM   19  C   UNL     1     -41.990  59.113 -58.313  1.00  0.00     0.030 A 
BRANCH  15  20
HETATM   20  C   UNL     1     -43.318  55.510 -58.477  1.00  0.00     0.036 C 
HETATM   21  C   UNL     1     -44.183  54.882 -59.560  1.00  0.00     0.010 C 
ENDBRANCH  15  20
ENDBRANCH  11  14
ENDBRANCH   1  10
BRANCH   2  22
HETATM   22  N   UNL     1     -42.495  58.280 -52.518  1.00  0.00    -0.319 N 
HETATM   23  C   UNL     1     -41.803  59.460 -52.658  1.00  0.00     0.248 C 
HETATM   24  O   UNL     1     -40.597  59.576 -52.883  1.00  0.00    -0.271 OA
HETATM   25  H   UNL     1     -43.238  58.190 -51.834  1.00  0.00     0.169 HD
BRANCH  23  26
HETATM   26  C   UNL     1     -42.662  60.707 -52.473  1.00  0.00     0.337 C 
BRANCH  26  27
HETATM   27  N   UNL     1     -43.957  60.394 -51.730  1.00  0.00    -0.059 N 
HETATM   28  H   UNL     1     -43.974  59.364 -51.640  1.00  0.00     0.280 HD
HETATM   29  C   UNL     1     -43.953  60.924 -50.294  1.00  0.00     0.261 C 
HETATM   30  C   UNL     1     -45.280  60.562 -49.617  1.00  0.00     0.195 C 
HETATM   31  O   UNL     1     -46.393  61.071 -50.363  1.00  0.00    -0.388 OA
HETATM   32  C   UNL     1     -46.446  60.512 -51.679  1.00  0.00     0.195 C 
HETATM   33  C   UNL     1     -45.187  60.866 -52.475  1.00  0.00     0.261 C 
ENDBRANCH  26  27
ENDBRANCH  23  26
ENDBRANCH   2  22
BRANCH   8  34
HETATM   34  C   UNL     1     -39.810  51.178 -53.560  1.00  0.00    -0.047 C 
HETATM   35  C   UNL     1     -39.809  50.990 -52.028  1.00  0.00     0.015 C 
HETATM   36  C   UNL     1     -40.909  50.255 -54.133  1.00  0.00     0.015 C 
HETATM   37  C   UNL     1     -38.449  50.698 -54.101  1.00  0.00     0.015 C 
ENDBRANCH   8  34
TORSDOF 7
ENDMDL
MODEL 8
REMARK VINA RESULT:      -7.7      2.431      6.899
REMARK  7 active torsions:
REMARK  status: ('A' for Active; 'I' for Inactive)
REMARK    1  A    between atoms: C_2  and  C_3 
REMARK    2  A    between atoms: C_4  and  N_5 
REMARK       I    between atoms: N_5  and  C_6 
REMARK    3  A    between atoms: C_6  and  C_7 
REMARK    4  A    between atoms: C_8  and  N_9 
REMARK       I    between atoms: N_9  and  C_10 
REMARK    5  A    between atoms: C_10  and  C_11 
REMARK    6  A    between atoms: C_11  and  N_12 
REMARK    7  A    between atoms: C_25  and  C_26 
ROOT
HETATM    1  C   UNL     1     -42.594  56.927 -54.050  1.00  0.00     0.073 A 
HETATM    2  C   UNL     1     -41.720  55.854 -54.110  1.00  0.00     0.093 A 
HETATM    3  S   UNL     1     -41.639  55.115 -55.634  1.00  0.00    -0.075 SA
HETATM    4  C   UNL     1     -42.702  56.259 -56.301  1.00  0.00    -0.008 A 
HETATM    5  C   UNL     1     -43.163  57.168 -55.367  1.00  0.00    -0.026 A 
HETATM    6  C   UNL     1     -44.192  58.193 -55.749  1.00  0.00     0.041 C 
HETATM    7  C   UNL     1     -44.956  57.790 -57.024  1.00  0.00     0.010 C 
HETATM    8  C   UNL     1     -43.997  57.375 -58.172  1.00  0.00    -0.002 C 
HETATM    9  C   UNL     1     -43.139  56.156 -57.734  1.00  0.00     0.052 C 
ENDROOT
BRANCH   1  10
HETATM   10  C   UNL     1     -42.971  57.585 -52.788  1.00  0.00     0.259 C 
HETATM   11  N   UNL     1     -42.899  58.963 -52.839  1.00  0.00    -0.322 N 
HETATM   12  H   UNL     1     -42.447  59.341 -53.660  1.00  0.00     0.169 HD
HETATM   13  O   UNL     1     -43.284  56.912 -51.808  1.00  0.00    -0.267 OA
BRANCH  11  14
HETATM   14  C   UNL     1     -43.289  59.894 -51.847  1.00  0.00     0.041 A 
HETATM   15  C   UNL     1     -44.601  60.420 -51.867  1.00  0.00    -0.032 A 
HETATM   16  C   UNL     1     -44.983  61.355 -50.883  1.00  0.00     0.009 A 
HETATM   17  C   UNL     1     -44.098  61.748 -49.882  1.00  0.00     0.001 A 
HETATM   18  C   UNL     1     -42.819  61.212 -49.847  1.00  0.00     0.002 A 
HETATM   19  C   UNL     1     -42.420  60.292 -50.821  1.00  0.00     0.030 A 
BRANCH  15  20
HETATM   20  C   UNL     1     -45.638  60.052 -52.908  1.00  0.00     0.036 C 
HETATM   21  C   UNL     1     -45.736  61.095 -54.012  1.00  0.00     0.010 C 
ENDBRANCH  15  20
ENDBRANCH  11  14
ENDBRANCH   1  10
BRANCH   2  22
HETATM   22  N   UNL     1     -40.938  55.210 -53.177  1.00  0.00    -0.319 N 
HETATM   23  C   UNL     1     -41.366  54.080 -52.519  1.00  0.00     0.248 C 
HETATM   24  O   UNL     1     -42.537  53.744 -52.334  1.00  0.00    -0.271 OA
HETATM   25  H   UNL     1     -40.129  55.726 -52.851  1.00  0.00     0.169 HD
BRANCH  23  26
HETATM   26  C   UNL     1     -40.234  53.222 -51.963  1.00  0.00     0.337 C 
BRANCH  26  27
HETATM   27  N   UNL     1     -40.336  51.776 -52.439  1.00  0.00    -0.059 N 
HETATM   28  H   UNL     1     -41.326  51.516 -52.300  1.00  0.00     0.280 HD
HETATM   29  C   UNL     1     -40.088  51.635 -53.943  1.00  0.00     0.261 C 
HETATM   30  C   UNL     1     -40.217  50.160 -54.340  1.00  0.00     0.195 C 
HETATM   31  O   UNL     1     -39.318  49.342 -53.580  1.00  0.00    -0.388 OA
HETATM   32  C   UNL     1     -39.602  49.409 -52.178  1.00  0.00     0.195 C 
HETATM   33  C   UNL     1     -39.442  50.839 -51.656  1.00  0.00     0.261 C 
ENDBRANCH  26  27
ENDBRANCH  23  26
ENDBRANCH   2  22
BRANCH   8  34
HETATM   34  C   UNL     1     -44.722  57.149 -59.553  1.00  0.00    -0.047 C 
HETATM   35  C   UNL     1     -44.404  58.312 -60.517  1.00  0.00     0.015 C 
HETATM   36  C   UNL     1     -44.221  55.850 -60.221  1.00  0.00     0.015 C 
HETATM   37  C   UNL     1     -46.254  57.054 -59.408  1.00  0.00     0.015 C 
ENDBRANCH   8  34
TORSDOF 7
ENDMDL
MODEL 9
REMARK VINA RESULT:      -7.6      2.996      7.541
REMARK  7 active torsions:
REMARK  status: ('A' for Active; 'I' for Inactive)
REMARK    1  A    between atoms: C_2  and  C_3 
REMARK    2  A    between atoms: C_4  and  N_5 
REMARK       I    between atoms: N_5  and  C_6 
REMARK    3  A    between atoms: C_6  and  C_7 
REMARK    4  A    between atoms: C_8  and  N_9 
REMARK       I    between atoms: N_9  and  C_10 
REMARK    5  A    between atoms: C_10  and  C_11 
REMARK    6  A    between atoms: C_11  and  N_12 
REMARK    7  A    between atoms: C_25  and  C_26 
ROOT
HETATM    1  C   UNL     1     -41.647  59.469 -53.595  1.00  0.00     0.073 A 
HETATM    2  C   UNL     1     -42.161  59.911 -54.802  1.00  0.00     0.093 A 
HETATM    3  S   UNL     1     -43.204  61.241 -54.662  1.00  0.00    -0.075 SA
HETATM    4  C   UNL     1     -42.938  61.336 -52.987  1.00  0.00    -0.008 A 
HETATM    5  C   UNL     1     -42.106  60.336 -52.520  1.00  0.00    -0.026 A 
HETATM    6  C   UNL     1     -41.838  60.196 -51.049  1.00  0.00     0.041 C 
HETATM    7  C   UNL     1     -42.912  60.902 -50.201  1.00  0.00     0.010 C 
HETATM    8  C   UNL     1     -43.167  62.358 -50.679  1.00  0.00    -0.002 C 
HETATM    9  C   UNL     1     -43.659  62.355 -52.153  1.00  0.00     0.052 C 
ENDROOT
BRANCH   1  10
HETATM   10  C   UNL     1     -40.887  58.215 -53.457  1.00  0.00     0.259 C 
HETATM   11  N   UNL     1     -41.647  57.081 -53.665  1.00  0.00    -0.322 N 
HETATM   12  H   UNL     1     -42.643  57.234 -53.720  1.00  0.00     0.169 HD
HETATM   13  O   UNL     1     -39.695  58.244 -53.156  1.00  0.00    -0.267 OA
BRANCH  11  14
HETATM   14  C   UNL     1     -41.210  55.736 -53.713  1.00  0.00     0.041 A 
HETATM   15  C   UNL     1     -41.373  54.913 -52.574  1.00  0.00    -0.032 A 
HETATM   16  C   UNL     1     -40.926  53.577 -52.622  1.00  0.00     0.009 A 
HETATM   17  C   UNL     1     -40.353  53.050 -53.776  1.00  0.00     0.001 A 
HETATM   18  C   UNL     1     -40.218  53.849 -54.902  1.00  0.00     0.002 A 
HETATM   19  C   UNL     1     -40.644  55.180 -54.870  1.00  0.00     0.030 A 
BRANCH  15  20
HETATM   20  C   UNL     1     -41.988  55.389 -51.275  1.00  0.00     0.036 C 
HETATM   21  C   UNL     1     -40.959  56.026 -50.353  1.00  0.00     0.010 C 
ENDBRANCH  15  20
ENDBRANCH  11  14
ENDBRANCH   1  10
BRANCH   2  22
HETATM   22  N   UNL     1     -42.058  59.467 -56.101  1.00  0.00    -0.319 N 
HETATM   23  C   UNL     1     -42.910  58.519 -56.620  1.00  0.00     0.248 C 
HETATM   24  O   UNL     1     -43.542  57.679 -55.978  1.00  0.00    -0.271 OA
HETATM   25  H   UNL     1     -41.201  59.715 -56.583  1.00  0.00     0.169 HD
BRANCH  23  26
HETATM   26  C   UNL     1     -43.009  58.543 -58.142  1.00  0.00     0.337 C 
BRANCH  26  27
HETATM   27  N   UNL     1     -42.725  59.932 -58.704  1.00  0.00    -0.059 N 
HETATM   28  H   UNL     1     -42.051  60.356 -58.045  1.00  0.00     0.280 HD
HETATM   29  C   UNL     1     -41.998  59.882 -60.050  1.00  0.00     0.261 C 
HETATM   30  C   UNL     1     -41.743  61.313 -60.540  1.00  0.00     0.195 C 
HETATM   31  O   UNL     1     -42.969  62.051 -60.630  1.00  0.00    -0.388 OA
HETATM   32  C   UNL     1     -43.608  62.169 -59.355  1.00  0.00     0.195 C 
HETATM   33  C   UNL     1     -43.967  60.791 -58.794  1.00  0.00     0.261 C 
ENDBRANCH  26  27
ENDBRANCH  23  26
ENDBRANCH   2  22
BRANCH   8  34
HETATM   34  C   UNL     1     -44.108  63.183 -49.721  1.00  0.00    -0.047 C 
HETATM   35  C   UNL     1     -45.352  63.676 -50.492  1.00  0.00     0.015 C 
HETATM   36  C   UNL     1     -44.611  62.295 -48.561  1.00  0.00     0.015 C 
HETATM   37  C   UNL     1     -43.404  64.412 -49.114  1.00  0.00     0.015 C 
ENDBRANCH   8  34
TORSDOF 7
ENDMDL
MODEL 10
REMARK VINA RESULT:      -7.6      3.288      6.683
REMARK  7 active torsions:
REMARK  status: ('A' for Active; 'I' for Inactive)
REMARK    1  A    between atoms: C_2  and  C_3 
REMARK    2  A    between atoms: C_4  and  N_5 
REMARK       I    between atoms: N_5  and  C_6 
REMARK    3  A    between atoms: C_6  and  C_7 
REMARK    4  A    between atoms: C_8  and  N_9 
REMARK       I    between atoms: N_9  and  C_10 
REMARK    5  A    between atoms: C_10  and  C_11 
REMARK    6  A    between atoms: C_11  and  N_12 
REMARK    7  A    between atoms: C_25  and  C_26 
ROOT
HETATM    1  C   UNL     1     -42.687  58.066 -56.658  1.00  0.00     0.073 A 
HETATM    2  C   UNL     1     -42.526  59.319 -56.091  1.00  0.00     0.093 A 
HETATM    3  S   UNL     1     -42.055  59.283 -54.462  1.00  0.00    -0.075 SA
HETATM    4  C   UNL     1     -41.959  57.588 -54.476  1.00  0.00    -0.008 A 
HETATM    5  C   UNL     1     -42.332  57.041 -55.689  1.00  0.00    -0.026 A 
HETATM    6  C   UNL     1     -42.409  55.551 -55.859  1.00  0.00     0.041 C 
HETATM    7  C   UNL     1     -42.520  54.825 -54.506  1.00  0.00     0.010 C 
HETATM    8  C   UNL     1     -41.444  55.308 -53.495  1.00  0.00    -0.002 C 
HETATM    9  C   UNL     1     -41.611  56.829 -53.228  1.00  0.00     0.052 C 
ENDROOT
BRANCH   1  10
HETATM   10  C   UNL     1     -43.281  57.859 -57.990  1.00  0.00     0.259 C 
HETATM   11  N   UNL     1     -44.551  57.317 -57.952  1.00  0.00    -0.322 N 
HETATM   12  H   UNL     1     -44.849  56.980 -57.047  1.00  0.00     0.169 HD
HETATM   13  O   UNL     1     -42.642  58.136 -59.003  1.00  0.00    -0.267 OA
BRANCH  11  14
HETATM   14  C   UNL     1     -45.435  57.092 -59.034  1.00  0.00     0.041 A 
HETATM   15  C   UNL     1     -45.266  55.942 -59.839  1.00  0.00    -0.032 A 
HETATM   16  C   UNL     1     -46.142  55.727 -60.923  1.00  0.00     0.009 A 
HETATM   17  C   UNL     1     -47.182  56.612 -61.194  1.00  0.00     0.001 A 
HETATM   18  C   UNL     1     -47.364  57.726 -60.387  1.00  0.00     0.002 A 
HETATM   19  C   UNL     1     -46.499  57.961 -59.316  1.00  0.00     0.030 A 
BRANCH  15  20
HETATM   20  C   UNL     1     -44.172  54.918 -59.623  1.00  0.00     0.036 C 
HETATM   21  C   UNL     1     -44.726  53.509 -59.475  1.00  0.00     0.010 C 
ENDBRANCH  15  20
ENDBRANCH  11  14
ENDBRANCH   1  10
BRANCH   2  22
HETATM   22  N   UNL     1     -42.724  60.604 -56.546  1.00  0.00    -0.319 N 
HETATM   23  C   UNL     1     -41.894  61.186 -57.476  1.00  0.00     0.248 C 
HETATM   24  O   UNL     1     -40.724  60.877 -57.703  1.00  0.00    -0.271 OA
HETATM   25  H   UNL     1     -43.378  61.163 -56.010  1.00  0.00     0.169 HD
BRANCH  23  26
HETATM   26  C   UNL     1     -42.536  62.340 -58.241  1.00  0.00     0.337 C 
BRANCH  26  27
HETATM   27  N   UNL     1     -43.034  61.899 -59.613  1.00  0.00    -0.059 N 
HETATM   28  H   UNL     1     -43.202  62.776 -60.133  1.00  0.00     0.280 HD
HETATM   29  C   UNL     1     -41.963  61.154 -60.413  1.00  0.00     0.261 C 
HETATM   30  C   UNL     1     -42.537  60.754 -61.778  1.00  0.00     0.195 C 
HETATM   31  O   UNL     1     -43.724  59.965 -61.625  1.00  0.00    -0.388 OA
HETATM   32  C   UNL     1     -44.756  60.691 -60.949  1.00  0.00     0.195 C 
HETATM   33  C   UNL     1     -44.311  61.090 -59.540  1.00  0.00     0.261 C 
ENDBRANCH  26  27
ENDBRANCH  23  26
ENDBRANCH   2  22
BRANCH   8  34
HETATM   34  C   UNL     1     -41.391  54.455 -52.171  1.00  0.00    -0.047 C 
HETATM   35  C   UNL     1     -42.795  53.906 -51.836  1.00  0.00     0.015 C 
HETATM   36  C   UNL     1     -40.455  53.239 -52.348  1.00  0.00     0.015 C 
HETATM   37  C   UNL     1     -40.896  55.270 -50.961  1.00  0.00     0.015 C 
ENDBRANCH   8  34
TORSDOF 7
ENDMDL
