MODEL 1
REMARK VINA RESULT:      -8.3      0.000      0.000
REMARK  8 active torsions:
REMARK  status: ('A' for Active; 'I' for Inactive)
REMARK    1  A    between atoms: O_1  and  C_2 
REMARK    2  A    between atoms: C_2  and  CA_3 
REMARK    3  A    between atoms: CA_3  and  N_4 
REMARK    4  A    between atoms: CA_3  and  C_23 
REMARK       I    between atoms: N_4  and  C_5 
REMARK    5  A    between atoms: C_5  and  C_7 
REMARK    6  A    between atoms: C_10  and  C_17 
REMARK    7  A    between atoms: C_11  and  O_12 
REMARK    8  A    between atoms: O_12  and  C_13 
ROOT
HETATM    1  C   UNL     1     -41.146  54.973 -53.737  1.00  0.00     0.034 A 
HETATM    2  C   UNL     1     -40.694  53.980 -54.610  1.00  0.00     0.018 A 
HETATM    3  C   UNL     1     -40.274  52.741 -54.113  1.00  0.00     0.016 A 
HETATM    4  C   UNL     1     -40.281  52.476 -52.735  1.00  0.00     0.011 A 
HETATM    5  C   UNL     1     -40.698  53.496 -51.860  1.00  0.00     0.087 A 
HETATM    6  C   UNL     1     -41.140  54.729 -52.358  1.00  0.00     0.054 A 
ENDROOT
BRANCH   1   7
HETATM    7  C   UNL     1     -41.602  56.272 -54.312  1.00  0.00     0.252 C 
HETATM    8  N   UNL     1     -42.678  56.209 -55.170  1.00  0.00    -0.346 N 
HETATM    9  H   UNL     1     -42.861  55.322 -55.619  1.00  0.00     0.163 HD
HETATM   10  O   UNL     1     -40.999  57.302 -54.037  1.00  0.00    -0.268 OA
BRANCH   8  11
HETATM   11  CA  UNL     1     -43.171  57.370 -55.911  1.00  0.00     0.141 C 
BRANCH  11  12
HETATM   12  C   UNL     1     -44.641  57.692 -55.557  1.00  0.00     0.194 C 
BRANCH  12  13
HETATM   13  O   UNL     1     -45.188  56.639 -54.752  1.00  0.00    -0.399 OA
HETATM   14  H   UNL     1     -44.450  56.282 -54.229  1.00  0.00     0.209 HD
ENDBRANCH  12  13
ENDBRANCH  11  12
BRANCH  11  15
HETATM   15  C   UNL     1     -42.829  57.284 -57.390  1.00  0.00    -0.033 A 
HETATM   16  C   UNL     1     -42.239  58.341 -58.098  1.00  0.00     0.009 A 
HETATM   17  C   UNL     1     -41.931  58.210 -59.456  1.00  0.00     0.001 A 
HETATM   18  C   UNL     1     -42.222  57.026 -60.129  1.00  0.00     0.000 A 
HETATM   19  C   UNL     1     -42.826  55.973 -59.448  1.00  0.00     0.001 A 
HETATM   20  C   UNL     1     -43.129  56.102 -58.091  1.00  0.00     0.009 A 
ENDBRANCH  11  15
ENDBRANCH   8  11
ENDBRANCH   1   7
BRANCH   5  21
HETATM   21  O   UNL     1     -40.732  53.252 -50.509  1.00  0.00    -0.289 OA
BRANCH  21  22
HETATM   22  C   UNL     1     -40.362  54.391 -49.743  1.00  0.00     0.505 C 
HETATM   23  F   UNL     1     -40.866  54.252 -48.490  1.00  0.00    -0.184 F 
HETATM   24  F   UNL     1     -39.011  54.373 -49.617  1.00  0.00    -0.184 F 
ENDBRANCH  21  22
ENDBRANCH   5  21
BRANCH   4  25
HETATM   25  C   UNL     1     -39.858  51.168 -52.251  1.00  0.00     0.013 A 
HETATM   26  C   UNL     1     -39.550  50.711 -50.948  1.00  0.00     0.152 A 
HETATM   27  N   UNL     1     -39.202  49.420 -50.923  1.00  0.00    -0.187 NA
HETATM   28  N   UNL     1     -39.287  49.045 -52.207  1.00  0.00    -0.289 N 
HETATM   29  H   UNL     1     -39.065  48.083 -52.442  1.00  0.00     0.188 HD
HETATM   30  C   UNL     1     -39.673  50.053 -53.043  1.00  0.00     0.123 A 
ENDBRANCH   4  25
TORSDOF 8
ENDMDL
MODEL 2
REMARK VINA RESULT:      -8.0      2.466      4.094
REMARK  8 active torsions:
REMARK  status: ('A' for Active; 'I' for Inactive)
REMARK    1  A    between atoms: O_1  and  C_2 
REMARK    2  A    between atoms: C_2  and  CA_3 
REMARK    3  A    between atoms: CA_3  and  N_4 
REMARK    4  A    between atoms: CA_3  and  C_23 
REMARK       I    between atoms: N_4  and  C_5 
REMARK    5  A    between atoms: C_5  and  C_7 
REMARK    6  A    between atoms: C_10  and  C_17 
REMARK    7  A    between atoms: C_11  and  O_12 
REMARK    8  A    between atoms: O_12  and  C_13 
ROOT
HETATM    1  C   UNL     1     -41.291  55.196 -54.106  1.00  0.00     0.034 A 
HETATM    2  C   UNL     1     -40.684  54.358 -55.045  1.00  0.00     0.018 A 
HETATM    3  C   UNL     1     -40.243  53.083 -54.674  1.00  0.00     0.016 A 
HETATM    4  C   UNL     1     -40.385  52.626 -53.354  1.00  0.00     0.011 A 
HETATM    5  C   UNL     1     -40.959  53.491 -52.405  1.00  0.00     0.087 A 
HETATM    6  C   UNL     1     -41.422  54.761 -52.781  1.00  0.00     0.054 A 
ENDROOT
BRANCH   1   7
HETATM    7  C   UNL     1     -41.763  56.539 -54.550  1.00  0.00     0.252 C 
HETATM    8  N   UNL     1     -42.214  57.381 -53.556  1.00  0.00    -0.346 N 
HETATM    9  H   UNL     1     -42.522  56.955 -52.693  1.00  0.00     0.163 HD
HETATM   10  O   UNL     1     -41.767  56.817 -55.743  1.00  0.00    -0.268 OA
BRANCH   8  11
HETATM   11  CA  UNL     1     -42.822  58.683 -53.835  1.00  0.00     0.141 C 
BRANCH  11  12
HETATM   12  C   UNL     1     -41.755  59.790 -53.990  1.00  0.00     0.194 C 
BRANCH  12  13
HETATM   13  O   UNL     1     -41.411  59.942 -55.374  1.00  0.00    -0.399 OA
HETATM   14  H   UNL     1     -40.448  59.819 -55.433  1.00  0.00     0.209 HD
ENDBRANCH  12  13
ENDBRANCH  11  12
BRANCH  11  15
HETATM   15  C   UNL     1     -43.978  58.979 -52.893  1.00  0.00    -0.033 A 
HETATM   16  C   UNL     1     -44.220  58.240 -51.726  1.00  0.00     0.009 A 
HETATM   17  C   UNL     1     -45.290  58.559 -50.884  1.00  0.00     0.001 A 
HETATM   18  C   UNL     1     -46.143  59.611 -51.204  1.00  0.00     0.000 A 
HETATM   19  C   UNL     1     -45.933  60.344 -52.369  1.00  0.00     0.001 A 
HETATM   20  C   UNL     1     -44.861  60.029 -53.207  1.00  0.00     0.009 A 
ENDBRANCH  11  15
ENDBRANCH   8  11
ENDBRANCH   1   7
BRANCH   5  21
HETATM   21  O   UNL     1     -41.126  53.058 -51.113  1.00  0.00    -0.289 OA
BRANCH  21  22
HETATM   22  C   UNL     1     -40.639  53.995 -50.160  1.00  0.00     0.505 C 
HETATM   23  F   UNL     1     -40.961  53.554 -48.917  1.00  0.00    -0.184 F 
HETATM   24  F   UNL     1     -39.284  53.979 -50.233  1.00  0.00    -0.184 F 
ENDBRANCH  21  22
ENDBRANCH   5  21
BRANCH   4  25
HETATM   25  C   UNL     1     -39.935  51.285 -53.005  1.00  0.00     0.013 A 
HETATM   26  C   UNL     1     -39.849  50.101 -53.775  1.00  0.00     0.152 A 
HETATM   27  N   UNL     1     -39.374  49.064 -53.077  1.00  0.00    -0.187 NA
HETATM   28  N   UNL     1     -39.153  49.579 -51.859  1.00  0.00    -0.289 N 
HETATM   29  H   UNL     1     -38.782  48.968 -51.139  1.00  0.00     0.188 HD
HETATM   30  C   UNL     1     -39.475  50.903 -51.762  1.00  0.00     0.123 A 
ENDBRANCH   4  25
TORSDOF 8
ENDMDL
MODEL 3
REMARK VINA RESULT:      -7.8      4.148      8.769
REMARK  8 active torsions:
REMARK  status: ('A' for Active; 'I' for Inactive)
REMARK    1  A    between atoms: O_1  and  C_2 
REMARK    2  A    between atoms: C_2  and  CA_3 
REMARK    3  A    between atoms: CA_3  and  N_4 
REMARK    4  A    between atoms: CA_3  and  C_23 
REMARK       I    between atoms: N_4  and  C_5 
REMARK    5  A    between atoms: C_5  and  C_7 
REMARK    6  A    between atoms: C_10  and  C_17 
REMARK    7  A    between atoms: C_11  and  O_12 
REMARK    8  A    between atoms: O_12  and  C_13 
ROOT
HETATM    1  C   UNL     1     -43.059  56.104 -55.873  1.00  0.00     0.034 A 
HETATM    2  C   UNL     1     -42.991  57.500 -55.837  1.00  0.00     0.018 A 
HETATM    3  C   UNL     1     -42.980  58.238 -57.025  1.00  0.00     0.016 A 
HETATM    4  C   UNL     1     -43.018  57.597 -58.273  1.00  0.00     0.011 A 
HETATM    5  C   UNL     1     -43.043  56.191 -58.302  1.00  0.00     0.087 A 
HETATM    6  C   UNL     1     -43.078  55.451 -57.111  1.00  0.00     0.054 A 
ENDROOT
BRANCH   1   7
HETATM    7  C   UNL     1     -43.088  55.359 -54.582  1.00  0.00     0.252 C 
HETATM    8  N   UNL     1     -41.927  55.388 -53.840  1.00  0.00    -0.346 N 
HETATM    9  H   UNL     1     -41.068  55.587 -54.332  1.00  0.00     0.163 HD
HETATM   10  O   UNL     1     -44.096  54.740 -54.261  1.00  0.00    -0.268 OA
BRANCH   8  11
HETATM   11  CA  UNL     1     -41.750  54.611 -52.612  1.00  0.00     0.141 C 
BRANCH  11  12
HETATM   12  C   UNL     1     -41.296  55.501 -51.433  1.00  0.00     0.194 C 
BRANCH  12  13
HETATM   13  O   UNL     1     -42.441  56.084 -50.795  1.00  0.00    -0.399 OA
HETATM   14  H   UNL     1     -43.014  56.413 -51.509  1.00  0.00     0.209 HD
ENDBRANCH  12  13
ENDBRANCH  11  12
BRANCH  11  15
HETATM   15  C   UNL     1     -40.948  53.343 -52.857  1.00  0.00    -0.033 A 
HETATM   16  C   UNL     1     -40.115  52.768 -51.886  1.00  0.00     0.009 A 
HETATM   17  C   UNL     1     -39.407  51.593 -52.155  1.00  0.00     0.001 A 
HETATM   18  C   UNL     1     -39.509  50.983 -53.402  1.00  0.00     0.000 A 
HETATM   19  C   UNL     1     -40.316  51.548 -54.385  1.00  0.00     0.001 A 
HETATM   20  C   UNL     1     -41.027  52.719 -54.116  1.00  0.00     0.009 A 
ENDBRANCH  11  15
ENDBRANCH   8  11
ENDBRANCH   1   7
BRANCH   5  21
HETATM   21  O   UNL     1     -43.102  55.543 -59.512  1.00  0.00    -0.289 OA
BRANCH  21  22
HETATM   22  C   UNL     1     -44.405  55.052 -59.801  1.00  0.00     0.505 C 
HETATM   23  F   UNL     1     -44.602  55.116 -61.143  1.00  0.00    -0.184 F 
HETATM   24  F   UNL     1     -44.424  53.736 -59.473  1.00  0.00    -0.184 F 
ENDBRANCH  21  22
ENDBRANCH   5  21
BRANCH   4  25
HETATM   25  C   UNL     1     -43.027  58.395 -59.492  1.00  0.00     0.013 A 
HETATM   26  C   UNL     1     -41.969  58.939 -60.258  1.00  0.00     0.152 A 
HETATM   27  N   UNL     1     -42.400  59.617 -61.327  1.00  0.00    -0.187 NA
HETATM   28  N   UNL     1     -43.735  59.509 -61.251  1.00  0.00    -0.289 N 
HETATM   29  H   UNL     1     -44.294  59.954 -61.972  1.00  0.00     0.188 HD
HETATM   30  C   UNL     1     -44.162  58.791 -60.170  1.00  0.00     0.123 A 
ENDBRANCH   4  25
TORSDOF 8
ENDMDL
MODEL 4
REMARK VINA RESULT:      -7.5      2.806      3.878
REMARK  8 active torsions:
REMARK  status: ('A' for Active; 'I' for Inactive)
REMARK    1  A    between atoms: O_1  and  C_2 
REMARK    2  A    between atoms: C_2  and  CA_3 
REMARK    3  A    between atoms: CA_3  and  N_4 
REMARK    4  A    between atoms: CA_3  and  C_23 
REMARK       I    between atoms: N_4  and  C_5 
REMARK    5  A    between atoms: C_5  and  C_7 
REMARK    6  A    between atoms: C_10  and  C_17 
REMARK    7  A    between atoms: C_11  and  O_12 
REMARK    8  A    between atoms: O_12  and  C_13 
ROOT
HETATM    1  C   UNL     1     -42.620  56.809 -54.671  1.00  0.00     0.034 A 
HETATM    2  C   UNL     1     -42.281  57.522 -53.518  1.00  0.00     0.018 A 
HETATM    3  C   UNL     1     -41.850  56.847 -52.371  1.00  0.00     0.016 A 
HETATM    4  C   UNL     1     -41.765  55.445 -52.347  1.00  0.00     0.011 A 
HETATM    5  C   UNL     1     -42.148  54.733 -53.499  1.00  0.00     0.087 A 
HETATM    6  C   UNL     1     -42.558  55.411 -54.656  1.00  0.00     0.054 A 
ENDROOT
BRANCH   1   7
HETATM    7  C   UNL     1     -43.055  57.572 -55.877  1.00  0.00     0.252 C 
HETATM    8  N   UNL     1     -44.282  57.227 -56.400  1.00  0.00    -0.346 N 
HETATM    9  H   UNL     1     -44.636  56.306 -56.184  1.00  0.00     0.163 HD
HETATM   10  O   UNL     1     -42.313  58.419 -56.360  1.00  0.00    -0.268 OA
BRANCH   8  11
HETATM   11  CA  UNL     1     -44.801  57.792 -57.646  1.00  0.00     0.141 C 
BRANCH  11  12
HETATM   12  C   UNL     1     -46.101  58.594 -57.414  1.00  0.00     0.194 C 
BRANCH  12  13
HETATM   13  O   UNL     1     -47.025  57.810 -56.648  1.00  0.00    -0.399 OA
HETATM   14  H   UNL     1     -46.544  57.011 -56.371  1.00  0.00     0.209 HD
ENDBRANCH  12  13
ENDBRANCH  11  12
BRANCH  11  15
HETATM   15  C   UNL     1     -44.826  56.762 -58.765  1.00  0.00    -0.033 A 
HETATM   16  C   UNL     1     -43.841  55.776 -58.917  1.00  0.00     0.009 A 
HETATM   17  C   UNL     1     -43.915  54.843 -59.955  1.00  0.00     0.001 A 
HETATM   18  C   UNL     1     -44.967  54.890 -60.866  1.00  0.00     0.000 A 
HETATM   19  C   UNL     1     -45.944  55.873 -60.744  1.00  0.00     0.001 A 
HETATM   20  C   UNL     1     -45.874  56.802 -59.704  1.00  0.00     0.009 A 
ENDBRANCH  11  15
ENDBRANCH   8  11
ENDBRANCH   1   7
BRANCH   5  21
HETATM   21  O   UNL     1     -42.054  53.363 -53.506  1.00  0.00    -0.289 OA
BRANCH  21  22
HETATM   22  C   UNL     1     -41.173  52.885 -54.515  1.00  0.00     0.505 C 
HETATM   23  F   UNL     1     -39.921  53.335 -54.243  1.00  0.00    -0.184 F 
HETATM   24  F   UNL     1     -41.128  51.534 -54.406  1.00  0.00    -0.184 F 
ENDBRANCH  21  22
ENDBRANCH   5  21
BRANCH   4  25
HETATM   25  C   UNL     1     -41.292  54.773 -51.145  1.00  0.00     0.013 A 
HETATM   26  C   UNL     1     -40.161  53.953 -50.919  1.00  0.00     0.152 A 
HETATM   27  N   UNL     1     -40.076  53.527 -49.655  1.00  0.00    -0.187 NA
HETATM   28  N   UNL     1     -41.150  54.072 -49.065  1.00  0.00    -0.289 N 
HETATM   29  H   UNL     1     -41.303  53.886 -48.079  1.00  0.00     0.188 HD
HETATM   30  C   UNL     1     -41.912  54.824 -49.913  1.00  0.00     0.123 A 
ENDBRANCH   4  25
TORSDOF 8
ENDMDL
MODEL 5
REMARK VINA RESULT:      -7.5      1.948      2.425
REMARK  8 active torsions:
REMARK  status: ('A' for Active; 'I' for Inactive)
REMARK    1  A    between atoms: O_1  and  C_2 
REMARK    2  A    between atoms: C_2  and  CA_3 
REMARK    3  A    between atoms: CA_3  and  N_4 
REMARK    4  A    between atoms: CA_3  and  C_23 
REMARK       I    between atoms: N_4  and  C_5 
REMARK    5  A    between atoms: C_5  and  C_7 
REMARK    6  A    between atoms: C_10  and  C_17 
REMARK    7  A    between atoms: C_11  and  O_12 
REMARK    8  A    between atoms: O_12  and  C_13 
ROOT
HETATM    1  C   UNL     1     -41.983  55.933 -54.910  1.00  0.00     0.034 A 
HETATM    2  C   UNL     1     -41.702  54.689 -55.481  1.00  0.00     0.018 A 
HETATM    3  C   UNL     1     -41.176  53.655 -54.699  1.00  0.00     0.016 A 
HETATM    4  C   UNL     1     -40.904  53.849 -53.335  1.00  0.00     0.011 A 
HETATM    5  C   UNL     1     -41.150  55.117 -52.777  1.00  0.00     0.087 A 
HETATM    6  C   UNL     1     -41.699  56.147 -53.556  1.00  0.00     0.054 A 
ENDROOT
BRANCH   1   7
HETATM    7  C   UNL     1     -42.561  57.000 -55.777  1.00  0.00     0.252 C 
HETATM    8  N   UNL     1     -43.691  56.656 -56.487  1.00  0.00    -0.346 N 
HETATM    9  H   UNL     1     -43.851  55.674 -56.657  1.00  0.00     0.163 HD
HETATM   10  O   UNL     1     -42.006  58.089 -55.851  1.00  0.00    -0.268 OA
BRANCH   8  11
HETATM   11  CA  UNL     1     -44.310  57.544 -57.472  1.00  0.00     0.141 C 
BRANCH  11  12
HETATM   12  C   UNL     1     -45.370  58.465 -56.826  1.00  0.00     0.194 C 
BRANCH  12  13
HETATM   13  O   UNL     1     -46.160  57.716 -55.893  1.00  0.00    -0.399 OA
HETATM   14  H   UNL     1     -46.613  57.026 -56.408  1.00  0.00     0.209 HD
ENDBRANCH  12  13
ENDBRANCH  11  12
BRANCH  11  15
HETATM   15  C   UNL     1     -44.733  56.791 -58.724  1.00  0.00    -0.033 A 
HETATM   16  C   UNL     1     -43.975  55.752 -59.281  1.00  0.00     0.009 A 
HETATM   17  C   UNL     1     -44.412  55.080 -60.427  1.00  0.00     0.001 A 
HETATM   18  C   UNL     1     -45.606  55.447 -61.041  1.00  0.00     0.000 A 
HETATM   19  C   UNL     1     -46.363  56.490 -60.515  1.00  0.00     0.001 A 
HETATM   20  C   UNL     1     -45.930  57.158 -59.368  1.00  0.00     0.009 A 
ENDBRANCH  11  15
ENDBRANCH   8  11
ENDBRANCH   1   7
BRANCH   5  21
HETATM   21  O   UNL     1     -40.911  55.324 -51.441  1.00  0.00    -0.289 OA
BRANCH  21  22
HETATM   22  C   UNL     1     -42.045  55.849 -50.762  1.00  0.00     0.505 C 
HETATM   23  F   UNL     1     -42.301  55.068 -49.682  1.00  0.00    -0.184 F 
HETATM   24  F   UNL     1     -41.699  57.069 -50.281  1.00  0.00    -0.184 F 
ENDBRANCH  21  22
ENDBRANCH   5  21
BRANCH   4  25
HETATM   25  C   UNL     1     -40.377  52.746 -52.542  1.00  0.00     0.013 A 
HETATM   26  C   UNL     1     -40.403  52.504 -51.148  1.00  0.00     0.152 A 
HETATM   27  N   UNL     1     -39.804  51.357 -50.812  1.00  0.00    -0.187 NA
HETATM   28  N   UNL     1     -39.393  50.859 -51.988  1.00  0.00    -0.289 N 
HETATM   29  H   UNL     1     -38.901  49.972 -51.988  1.00  0.00     0.188 HD
HETATM   30  C   UNL     1     -39.709  51.653 -53.054  1.00  0.00     0.123 A 
ENDBRANCH   4  25
TORSDOF 8
ENDMDL
MODEL 6
REMARK VINA RESULT:      -7.4      2.224      2.856
REMARK  8 active torsions:
REMARK  status: ('A' for Active; 'I' for Inactive)
REMARK    1  A    between atoms: O_1  and  C_2 
REMARK    2  A    between atoms: C_2  and  CA_3 
REMARK    3  A    between atoms: CA_3  and  N_4 
REMARK    4  A    between atoms: CA_3  and  C_23 
REMARK       I    between atoms: N_4  and  C_5 
REMARK    5  A    between atoms: C_5  and  C_7 
REMARK    6  A    between atoms: C_10  and  C_17 
REMARK    7  A    between atoms: C_11  and  O_12 
REMARK    8  A    between atoms: O_12  and  C_13 
ROOT
HETATM    1  C   UNL     1     -43.199  55.985 -55.251  1.00  0.00     0.034 A 
HETATM    2  C   UNL     1     -42.061  55.510 -55.909  1.00  0.00     0.018 A 
HETATM    3  C   UNL     1     -41.281  54.503 -55.331  1.00  0.00     0.016 A 
HETATM    4  C   UNL     1     -41.611  53.963 -54.078  1.00  0.00     0.011 A 
HETATM    5  C   UNL     1     -42.734  54.477 -53.403  1.00  0.00     0.087 A 
HETATM    6  C   UNL     1     -43.530  55.470 -53.993  1.00  0.00     0.054 A 
ENDROOT
BRANCH   1   7
HETATM    7  C   UNL     1     -44.013  57.046 -55.913  1.00  0.00     0.252 C 
HETATM    8  N   UNL     1     -44.141  56.944 -57.282  1.00  0.00    -0.346 N 
HETATM    9  H   UNL     1     -43.438  56.413 -57.775  1.00  0.00     0.163 HD
HETATM   10  O   UNL     1     -44.486  57.955 -55.242  1.00  0.00    -0.268 OA
BRANCH   8  11
HETATM   11  CA  UNL     1     -44.802  57.966 -58.094  1.00  0.00     0.141 C 
BRANCH  11  12
HETATM   12  C   UNL     1     -46.215  57.520 -58.534  1.00  0.00     0.194 C 
BRANCH  12  13
HETATM   13  O   UNL     1     -46.132  56.287 -59.261  1.00  0.00    -0.399 OA
HETATM   14  H   UNL     1     -45.575  55.692 -58.729  1.00  0.00     0.209 HD
ENDBRANCH  12  13
ENDBRANCH  11  12
BRANCH  11  15
HETATM   15  C   UNL     1     -43.887  58.500 -59.184  1.00  0.00    -0.033 A 
HETATM   16  C   UNL     1     -44.224  59.593 -59.995  1.00  0.00     0.009 A 
HETATM   17  C   UNL     1     -43.342  60.057 -60.976  1.00  0.00     0.001 A 
HETATM   18  C   UNL     1     -42.117  59.426 -61.172  1.00  0.00     0.000 A 
HETATM   19  C   UNL     1     -41.772  58.326 -60.390  1.00  0.00     0.001 A 
HETATM   20  C   UNL     1     -42.650  57.866 -59.406  1.00  0.00     0.009 A 
ENDBRANCH  11  15
ENDBRANCH   8  11
ENDBRANCH   1   7
BRANCH   5  21
HETATM   21  O   UNL     1     -43.087  53.949 -52.186  1.00  0.00    -0.289 OA
BRANCH  21  22
HETATM   22  C   UNL     1     -43.098  54.928 -51.154  1.00  0.00     0.505 C 
HETATM   23  F   UNL     1     -43.235  54.296 -49.961  1.00  0.00    -0.184 F 
HETATM   24  F   UNL     1     -41.875  55.515 -51.140  1.00  0.00    -0.184 F 
ENDBRANCH  21  22
ENDBRANCH   5  21
BRANCH   4  25
HETATM   25  C   UNL     1     -40.790  52.900 -53.514  1.00  0.00     0.013 A 
HETATM   26  C   UNL     1     -40.164  52.776 -52.251  1.00  0.00     0.152 A 
HETATM   27  N   UNL     1     -39.493  51.628 -52.117  1.00  0.00    -0.187 NA
HETATM   28  N   UNL     1     -39.688  51.010 -53.291  1.00  0.00    -0.289 N 
HETATM   29  H   UNL     1     -39.266  50.098 -53.430  1.00  0.00     0.188 HD
HETATM   30  C   UNL     1     -40.454  51.730 -54.163  1.00  0.00     0.123 A 
ENDBRANCH   4  25
TORSDOF 8
ENDMDL
MODEL 7
REMARK VINA RESULT:      -7.3      2.644      3.789
REMARK  8 active torsions:
REMARK  status: ('A' for Active; 'I' for Inactive)
REMARK    1  A    between atoms: O_1  and  C_2 
REMARK    2  A    between atoms: C_2  and  CA_3 
REMARK    3  A    between atoms: CA_3  and  N_4 
REMARK    4  A    between atoms: CA_3  and  C_23 
REMARK       I    between atoms: N_4  and  C_5 
REMARK    5  A    between atoms: C_5  and  C_7 
REMARK    6  A    between atoms: C_10  and  C_17 
REMARK    7  A    between atoms: C_11  and  O_12 
REMARK    8  A    between atoms: O_12  and  C_13 
ROOT
HETATM    1  C   UNL     1     -42.955  55.736 -56.108  1.00  0.00     0.034 A 
HETATM    2  C   UNL     1     -43.169  54.378 -55.855  1.00  0.00     0.018 A 
HETATM    3  C   UNL     1     -42.463  53.730 -54.836  1.00  0.00     0.016 A 
HETATM    4  C   UNL     1     -41.517  54.420 -54.061  1.00  0.00     0.011 A 
HETATM    5  C   UNL     1     -41.277  55.776 -54.350  1.00  0.00     0.087 A 
HETATM    6  C   UNL     1     -42.001  56.432 -55.357  1.00  0.00     0.054 A 
ENDROOT
BRANCH   1   7
HETATM    7  C   UNL     1     -43.743  56.390 -57.192  1.00  0.00     0.252 C 
HETATM    8  N   UNL     1     -43.835  55.695 -58.378  1.00  0.00    -0.346 N 
HETATM    9  H   UNL     1     -43.122  55.006 -58.567  1.00  0.00     0.163 HD
HETATM   10  O   UNL     1     -44.229  57.499 -57.004  1.00  0.00    -0.268 OA
BRANCH   8  11
HETATM   11  CA  UNL     1     -44.468  56.249 -59.576  1.00  0.00     0.141 C 
BRANCH  11  12
HETATM   12  C   UNL     1     -44.779  55.152 -60.618  1.00  0.00     0.194 C 
BRANCH  12  13
HETATM   13  O   UNL     1     -44.767  53.864 -59.986  1.00  0.00    -0.399 OA
HETATM   14  H   UNL     1     -45.613  53.441 -60.210  1.00  0.00     0.209 HD
ENDBRANCH  12  13
ENDBRANCH  11  12
BRANCH  11  15
HETATM   15  C   UNL     1     -43.735  57.482 -60.083  1.00  0.00    -0.033 A 
HETATM   16  C   UNL     1     -42.341  57.535 -60.224  1.00  0.00     0.009 A 
HETATM   17  C   UNL     1     -41.713  58.688 -60.706  1.00  0.00     0.001 A 
HETATM   18  C   UNL     1     -42.468  59.809 -61.041  1.00  0.00     0.000 A 
HETATM   19  C   UNL     1     -43.851  59.782 -60.889  1.00  0.00     0.001 A 
HETATM   20  C   UNL     1     -44.479  58.629 -60.412  1.00  0.00     0.009 A 
ENDBRANCH  11  15
ENDBRANCH   8  11
ENDBRANCH   1   7
BRANCH   5  21
HETATM   21  O   UNL     1     -40.371  56.476 -53.592  1.00  0.00    -0.289 OA
BRANCH  21  22
HETATM   22  C   UNL     1     -40.931  57.657 -53.032  1.00  0.00     0.505 C 
HETATM   23  F   UNL     1     -40.785  57.607 -51.684  1.00  0.00    -0.184 F 
HETATM   24  F   UNL     1     -40.181  58.704 -53.461  1.00  0.00    -0.184 F 
ENDBRANCH  21  22
ENDBRANCH   5  21
BRANCH   4  25
HETATM   25  C   UNL     1     -40.815  53.722 -52.992  1.00  0.00     0.013 A 
HETATM   26  C   UNL     1     -40.702  54.005 -51.610  1.00  0.00     0.152 A 
HETATM   27  N   UNL     1     -39.960  53.105 -50.958  1.00  0.00    -0.187 NA
HETATM   28  N   UNL     1     -39.596  52.241 -51.917  1.00  0.00    -0.289 N 
HETATM   29  H   UNL     1     -39.015  51.451 -51.656  1.00  0.00     0.188 HD
HETATM   30  C   UNL     1     -40.078  52.566 -53.152  1.00  0.00     0.123 A 
ENDBRANCH   4  25
TORSDOF 8
ENDMDL
MODEL 8
REMARK VINA RESULT:      -7.2      4.123      8.756
REMARK  8 active torsions:
REMARK  status: ('A' for Active; 'I' for Inactive)
REMARK    1  A    between atoms: O_1  and  C_2 
REMARK    2  A    between atoms: C_2  and  CA_3 
REMARK    3  A    between atoms: CA_3  and  N_4 
REMARK    4  A    between atoms: CA_3  and  C_23 
REMARK       I    between atoms: N_4  and  C_5 
REMARK    5  A    between atoms: C_5  and  C_7 
REMARK    6  A    between atoms: C_10  and  C_17 
REMARK    7  A    between atoms: C_11  and  O_12 
REMARK    8  A    between atoms: O_12  and  C_13 
ROOT
HETATM    1  C   UNL     1     -43.763  56.875 -54.855  1.00  0.00     0.034 A 
HETATM    2  C   UNL     1     -44.952  57.599 -54.737  1.00  0.00     0.018 A 
HETATM    3  C   UNL     1     -45.558  58.152 -55.870  1.00  0.00     0.016 A 
HETATM    4  C   UNL     1     -44.980  58.007 -57.141  1.00  0.00     0.011 A 
HETATM    5  C   UNL     1     -43.761  57.312 -57.246  1.00  0.00     0.087 A 
HETATM    6  C   UNL     1     -43.165  56.738 -56.113  1.00  0.00     0.054 A 
ENDROOT
BRANCH   1   7
HETATM    7  C   UNL     1     -43.162  56.287 -53.623  1.00  0.00     0.252 C 
HETATM    8  N   UNL     1     -43.685  55.080 -53.212  1.00  0.00    -0.346 N 
HETATM    9  H   UNL     1     -44.617  54.847 -53.525  1.00  0.00     0.163 HD
HETATM   10  O   UNL     1     -42.285  56.898 -53.024  1.00  0.00    -0.268 OA
BRANCH   8  11
HETATM   11  CA  UNL     1     -43.293  54.430 -51.961  1.00  0.00     0.141 C 
BRANCH  11  12
HETATM   12  C   UNL     1     -43.404  55.393 -50.757  1.00  0.00     0.194 C 
BRANCH  12  13
HETATM   13  O   UNL     1     -44.782  55.699 -50.506  1.00  0.00    -0.399 OA
HETATM   14  H   UNL     1     -44.805  56.188 -49.665  1.00  0.00     0.209 HD
ENDBRANCH  12  13
ENDBRANCH  11  12
BRANCH  11  15
HETATM   15  C   UNL     1     -41.984  53.669 -52.106  1.00  0.00    -0.033 A 
HETATM   16  C   UNL     1     -41.140  53.391 -51.021  1.00  0.00     0.009 A 
HETATM   17  C   UNL     1     -39.952  52.676 -51.203  1.00  0.00     0.001 A 
HETATM   18  C   UNL     1     -39.583  52.241 -52.472  1.00  0.00     0.000 A 
HETATM   19  C   UNL     1     -40.398  52.524 -53.565  1.00  0.00     0.001 A 
HETATM   20  C   UNL     1     -41.587  53.234 -53.383  1.00  0.00     0.009 A 
ENDBRANCH  11  15
ENDBRANCH   8  11
ENDBRANCH   1   7
BRANCH   5  21
HETATM   21  O   UNL     1     -43.187  57.140 -58.482  1.00  0.00    -0.289 OA
BRANCH  21  22
HETATM   22  C   UNL     1     -43.126  55.772 -58.865  1.00  0.00     0.505 C 
HETATM   23  F   UNL     1     -44.361  55.383 -59.275  1.00  0.00    -0.184 F 
HETATM   24  F   UNL     1     -42.318  55.692 -59.952  1.00  0.00    -0.184 F 
ENDBRANCH  21  22
ENDBRANCH   5  21
BRANCH   4  25
HETATM   25  C   UNL     1     -45.647  58.576 -58.305  1.00  0.00     0.013 A 
HETATM   26  C   UNL     1     -45.489  59.824 -58.953  1.00  0.00     0.152 A 
HETATM   27  N   UNL     1     -46.299  59.965 -60.006  1.00  0.00    -0.187 NA
HETATM   28  N   UNL     1     -46.979  58.809 -60.039  1.00  0.00    -0.289 N 
HETATM   29  H   UNL     1     -47.669  58.678 -60.771  1.00  0.00     0.188 HD
HETATM   30  C   UNL     1     -46.628  57.944 -59.041  1.00  0.00     0.123 A 
ENDBRANCH   4  25
TORSDOF 8
ENDMDL
MODEL 9
REMARK VINA RESULT:      -7.2      3.748      5.580
REMARK  8 active torsions:
REMARK  status: ('A' for Active; 'I' for Inactive)
REMARK    1  A    between atoms: O_1  and  C_2 
REMARK    2  A    between atoms: C_2  and  CA_3 
REMARK    3  A    between atoms: CA_3  and  N_4 
REMARK    4  A    between atoms: CA_3  and  C_23 
REMARK       I    between atoms: N_4  and  C_5 
REMARK    5  A    between atoms: C_5  and  C_7 
REMARK    6  A    between atoms: C_10  and  C_17 
REMARK    7  A    between atoms: C_11  and  O_12 
REMARK    8  A    between atoms: O_12  and  C_13 
ROOT
HETATM    1  C   UNL     1     -42.422  56.731 -55.421  1.00  0.00     0.034 A 
HETATM    2  C   UNL     1     -42.154  58.102 -55.368  1.00  0.00     0.018 A 
HETATM    3  C   UNL     1     -41.905  58.726 -54.141  1.00  0.00     0.016 A 
HETATM    4  C   UNL     1     -41.935  57.998 -52.942  1.00  0.00     0.011 A 
HETATM    5  C   UNL     1     -42.247  56.627 -52.999  1.00  0.00     0.087 A 
HETATM    6  C   UNL     1     -42.474  55.996 -54.231  1.00  0.00     0.054 A 
ENDROOT
BRANCH   1   7
HETATM    7  C   UNL     1     -42.663  56.104 -56.753  1.00  0.00     0.252 C 
HETATM    8  N   UNL     1     -42.592  56.947 -57.840  1.00  0.00    -0.346 N 
HETATM    9  H   UNL     1     -42.731  57.933 -57.672  1.00  0.00     0.163 HD
HETATM   10  O   UNL     1     -42.944  54.913 -56.820  1.00  0.00    -0.268 OA
BRANCH   8  11
HETATM   11  CA  UNL     1     -42.921  56.517 -59.200  1.00  0.00     0.141 C 
BRANCH  11  12
HETATM   12  C   UNL     1     -42.004  57.187 -60.249  1.00  0.00     0.194 C 
BRANCH  12  13
HETATM   13  O   UNL     1     -40.802  56.421 -60.403  1.00  0.00    -0.399 OA
HETATM   14  H   UNL     1     -40.341  56.459 -59.548  1.00  0.00     0.209 HD
ENDBRANCH  12  13
ENDBRANCH  11  12
BRANCH  11  15
HETATM   15  C   UNL     1     -44.417  56.577 -59.465  1.00  0.00    -0.033 A 
HETATM   16  C   UNL     1     -45.058  55.758 -60.406  1.00  0.00     0.009 A 
HETATM   17  C   UNL     1     -46.439  55.842 -60.605  1.00  0.00     0.001 A 
HETATM   18  C   UNL     1     -47.198  56.755 -59.878  1.00  0.00     0.000 A 
HETATM   19  C   UNL     1     -46.577  57.591 -58.954  1.00  0.00     0.001 A 
HETATM   20  C   UNL     1     -45.199  57.504 -58.751  1.00  0.00     0.009 A 
ENDBRANCH  11  15
ENDBRANCH   8  11
ENDBRANCH   1   7
BRANCH   5  21
HETATM   21  O   UNL     1     -42.262  55.890 -51.840  1.00  0.00    -0.289 OA
BRANCH  21  22
HETATM   22  C   UNL     1     -41.206  54.939 -51.789  1.00  0.00     0.505 C 
HETATM   23  F   UNL     1     -40.515  55.123 -50.636  1.00  0.00    -0.184 F 
HETATM   24  F   UNL     1     -41.773  53.709 -51.704  1.00  0.00    -0.184 F 
ENDBRANCH  21  22
ENDBRANCH   5  21
BRANCH   4  25
HETATM   25  C   UNL     1     -41.649  58.673 -51.683  1.00  0.00     0.013 A 
HETATM   26  C   UNL     1     -40.463  58.749 -50.914  1.00  0.00     0.152 A 
HETATM   27  N   UNL     1     -40.612  59.481 -49.806  1.00  0.00    -0.187 NA
HETATM   28  N   UNL     1     -41.892  59.879 -49.860  1.00  0.00    -0.289 N 
HETATM   29  H   UNL     1     -42.246  60.462 -49.108  1.00  0.00     0.188 HD
HETATM   30  C   UNL     1     -42.557  59.420 -50.961  1.00  0.00     0.123 A 
ENDBRANCH   4  25
TORSDOF 8
ENDMDL
MODEL 10
REMARK VINA RESULT:      -7.2      2.976      4.275
REMARK  8 active torsions:
REMARK  status: ('A' for Active; 'I' for Inactive)
REMARK    1  A    between atoms: O_1  and  C_2 
REMARK    2  A    between atoms: C_2  and  CA_3 
REMARK    3  A    between atoms: CA_3  and  N_4 
REMARK    4  A    between atoms: CA_3  and  C_23 
REMARK       I    between atoms: N_4  and  C_5 
REMARK    5  A    between atoms: C_5  and  C_7 
REMARK    6  A    between atoms: C_10  and  C_17 
REMARK    7  A    between atoms: C_11  and  O_12 
REMARK    8  A    between atoms: O_12  and  C_13 
ROOT
HETATM    1  C   UNL     1     -42.428  55.404 -55.584  1.00  0.00     0.034 A 
HETATM    2  C   UNL     1     -43.099  56.052 -54.543  1.00  0.00     0.018 A 
HETATM    3  C   UNL     1     -42.742  55.808 -53.213  1.00  0.00     0.016 A 
HETATM    4  C   UNL     1     -41.720  54.900 -52.894  1.00  0.00     0.011 A 
HETATM    5  C   UNL     1     -41.078  54.220 -53.946  1.00  0.00     0.087 A 
HETATM    6  C   UNL     1     -41.420  54.482 -55.281  1.00  0.00     0.054 A 
ENDROOT
BRANCH   1   7
HETATM    7  C   UNL     1     -42.828  55.709 -56.988  1.00  0.00     0.252 C 
HETATM    8  N   UNL     1     -42.317  56.871 -57.524  1.00  0.00    -0.346 N 
HETATM    9  H   UNL     1     -42.017  57.587 -56.878  1.00  0.00     0.163 HD
HETATM   10  O   UNL     1     -43.600  54.960 -57.575  1.00  0.00    -0.268 OA
BRANCH   8  11
HETATM   11  CA  UNL     1     -42.706  57.375 -58.842  1.00  0.00     0.141 C 
BRANCH  11  12
HETATM   12  C   UNL     1     -42.346  56.378 -59.966  1.00  0.00     0.194 C 
BRANCH  12  13
HETATM   13  O   UNL     1     -40.972  56.545 -60.342  1.00  0.00    -0.399 OA
HETATM   14  H   UNL     1     -40.692  55.701 -60.735  1.00  0.00     0.209 HD
ENDBRANCH  12  13
ENDBRANCH  11  12
BRANCH  11  15
HETATM   15  C   UNL     1     -42.270  58.818 -59.045  1.00  0.00    -0.033 A 
HETATM   16  C   UNL     1     -41.721  59.600 -58.019  1.00  0.00     0.009 A 
HETATM   17  C   UNL     1     -41.323  60.919 -58.259  1.00  0.00     0.001 A 
HETATM   18  C   UNL     1     -41.481  61.480 -59.523  1.00  0.00     0.000 A 
HETATM   19  C   UNL     1     -42.043  60.726 -60.550  1.00  0.00     0.001 A 
HETATM   20  C   UNL     1     -42.436  59.407 -60.312  1.00  0.00     0.009 A 
ENDBRANCH  11  15
ENDBRANCH   8  11
ENDBRANCH   1   7
BRANCH   5  21
HETATM   21  O   UNL     1     -40.062  53.342 -53.659  1.00  0.00    -0.289 OA
BRANCH  21  22
HETATM   22  C   UNL     1     -40.459  51.985 -53.810  1.00  0.00     0.505 C 
HETATM   23  F   UNL     1     -39.916  51.502 -54.956  1.00  0.00    -0.184 F 
HETATM   24  F   UNL     1     -39.899  51.284 -52.793  1.00  0.00    -0.184 F 
ENDBRANCH  21  22
ENDBRANCH   5  21
BRANCH   4  25
HETATM   25  C   UNL     1     -41.358  54.685 -51.500  1.00  0.00     0.013 A 
HETATM   26  C   UNL     1     -41.384  53.518 -50.699  1.00  0.00     0.152 A 
HETATM   27  N   UNL     1     -40.962  53.739 -49.450  1.00  0.00    -0.187 NA
HETATM   28  N   UNL     1     -40.661  55.046 -49.446  1.00  0.00    -0.289 N 
HETATM   29  H   UNL     1     -40.311  55.456 -48.586  1.00  0.00     0.188 HD
HETATM   30  C   UNL     1     -40.883  55.659 -50.646  1.00  0.00     0.123 A 
ENDBRANCH   4  25
TORSDOF 8
ENDMDL
