MODEL 1
REMARK VINA RESULT:      -9.5      0.000      0.000
REMARK  8 active torsions:
REMARK  status: ('A' for Active; 'I' for Inactive)
REMARK    1  A    between atoms: C_2  and  C_3 
REMARK    2  A    between atoms: C_3  and  C_4 
REMARK    3  A    between atoms: C_3  and  C_38 
REMARK    4  A    between atoms: C_6  and  C_7 
REMARK    5  A    between atoms: C_14  and  C_15 
REMARK    6  A    between atoms: C_18  and  C_19 
REMARK    7  A    between atoms: C_19  and  N_20 
REMARK       I    between atoms: N_20  and  C_21 
REMARK       I    between atoms: C_21  and  N_22 
REMARK    8  A    between atoms: N_22  and  C_23 
ROOT
HETATM    1  C   UNL     1     -45.083  60.852 -48.731  1.00  0.00     0.037 A 
HETATM    2  C   UNL     1     -45.766  59.995 -47.862  1.00  0.00     0.052 A 
HETATM    3  C   UNL     1     -46.141  60.429 -46.583  1.00  0.00     0.046 A 
HETATM    4  C   UNL     1     -46.833  59.531 -45.705  1.00  0.00     0.099 C 
HETATM    5  N   UNL     1     -47.397  58.788 -45.016  1.00  0.00    -0.191 NA
HETATM    6  C   UNL     1     -45.832  61.726 -46.167  1.00  0.00     0.023 A 
HETATM    7  C   UNL     1     -45.146  62.584 -47.026  1.00  0.00     0.004 A 
HETATM    8  C   UNL     1     -44.769  62.146 -48.300  1.00  0.00     0.029 A 
ENDROOT
BRANCH   1   9
HETATM    9  N   UNL     1     -44.647  60.466 -50.017  1.00  0.00    -0.309 N 
HETATM   10  C   UNL     1     -45.311  59.651 -50.896  1.00  0.00     0.320 C 
HETATM   11  N   UNL     1     -44.521  59.293 -51.965  1.00  0.00    -0.341 N 
HETATM   12  O   UNL     1     -46.480  59.287 -50.824  1.00  0.00    -0.247 OA
HETATM   13  H   UNL     1     -43.529  59.300 -51.755  1.00  0.00     0.164 HD
HETATM   14  H   UNL     1     -43.833  60.949 -50.375  1.00  0.00     0.170 HD
BRANCH  11  15
HETATM   15  C   UNL     1     -44.945  58.288 -52.940  1.00  0.00     0.157 C 
BRANCH  15  16
HETATM   16  C   UNL     1     -44.152  58.297 -54.270  1.00  0.00     0.206 C 
HETATM   17  C   UNL     1     -42.629  58.179 -54.085  1.00  0.00     0.040 C 
HETATM   18  C   UNL     1     -42.026  57.252 -55.166  1.00  0.00     0.001 C 
HETATM   19  C   UNL     1     -42.520  55.798 -54.929  1.00  0.00     0.068 C 
HETATM   20  C   UNL     1     -42.558  57.705 -56.547  1.00  0.00     0.033 C 
HETATM   21  C   UNL     1     -44.061  55.813 -54.815  1.00  0.00     0.246 C 
HETATM   22  N   UNL     1     -44.561  57.190 -55.239  1.00  0.00    -0.065 N 
HETATM   23  C   UNL     1     -44.078  57.518 -56.628  1.00  0.00     0.236 C 
HETATM   24  H   UNL     1     -45.603  57.133 -55.230  1.00  0.00     0.280 HD
BRANCH  19  25
HETATM   25  C   UNL     1     -41.827  55.119 -53.765  1.00  0.00     0.045 A 
HETATM   26  N   UNL     1     -41.464  53.831 -53.910  1.00  0.00    -0.233 NA
HETATM   27  C   UNL     1     -40.821  53.250 -52.871  1.00  0.00     0.160 A 
HETATM   28  N   UNL     1     -40.584  53.860 -51.696  1.00  0.00    -0.233 NA
HETATM   29  C   UNL     1     -40.966  55.145 -51.562  1.00  0.00     0.043 A 
HETATM   30  C   UNL     1     -41.593  55.820 -52.595  1.00  0.00     0.055 A 
BRANCH  27  31
HETATM   31  C   UNL     1     -40.305  51.881 -53.059  1.00  0.00     0.014 A 
HETATM   32  C   UNL     1     -40.311  51.262 -54.318  1.00  0.00     0.034 A 
HETATM   33  C   UNL     1     -39.843  49.964 -54.445  1.00  0.00     0.117 A 
HETATM   34  N   UNL     1     -39.367  49.238 -53.415  1.00  0.00    -0.273 NA
HETATM   35  C   UNL     1     -39.364  49.832 -52.207  1.00  0.00     0.117 A 
HETATM   36  C   UNL     1     -39.813  51.125 -51.985  1.00  0.00     0.034 A 
ENDBRANCH  27  31
BRANCH  29  37
HETATM   37  C   UNL     1     -40.716  55.846 -50.233  1.00  0.00     0.037 C 
BRANCH  37  38
HETATM   38  C   UNL     1     -41.267  55.039 -49.033  1.00  0.00     0.006 C 
HETATM   39  C   UNL     1     -40.282  54.110 -48.331  1.00  0.00     0.006 C 
ENDBRANCH  37  38
BRANCH  37  40
HETATM   40  C   UNL     1     -41.216  57.304 -50.249  1.00  0.00     0.006 C 
HETATM   41  C   UNL     1     -40.161  58.301 -50.716  1.00  0.00     0.006 C 
ENDBRANCH  37  40
ENDBRANCH  29  37
ENDBRANCH  19  25
ENDBRANCH  15  16
ENDBRANCH  11  15
ENDBRANCH   1   9
TORSDOF 8
ENDMDL
MODEL 2
REMARK VINA RESULT:      -9.5      3.023      6.164
REMARK  8 active torsions:
REMARK  status: ('A' for Active; 'I' for Inactive)
REMARK    1  A    between atoms: C_2  and  C_3 
REMARK    2  A    between atoms: C_3  and  C_4 
REMARK    3  A    between atoms: C_3  and  C_38 
REMARK    4  A    between atoms: C_6  and  C_7 
REMARK    5  A    between atoms: C_14  and  C_15 
REMARK    6  A    between atoms: C_18  and  C_19 
REMARK    7  A    between atoms: C_19  and  N_20 
REMARK       I    between atoms: N_20  and  C_21 
REMARK       I    between atoms: C_21  and  N_22 
REMARK    8  A    between atoms: N_22  and  C_23 
ROOT
HETATM    1  C   UNL     1     -41.512  59.963 -53.458  1.00  0.00     0.037 A 
HETATM    2  C   UNL     1     -42.290  60.703 -52.560  1.00  0.00     0.052 A 
HETATM    3  C   UNL     1     -42.370  60.329 -51.212  1.00  0.00     0.046 A 
HETATM    4  C   UNL     1     -43.180  61.097 -50.311  1.00  0.00     0.099 C 
HETATM    5  N   UNL     1     -43.837  61.737 -49.602  1.00  0.00    -0.191 NA
HETATM    6  C   UNL     1     -41.673  59.209 -50.755  1.00  0.00     0.023 A 
HETATM    7  C   UNL     1     -40.901  58.463 -51.645  1.00  0.00     0.004 A 
HETATM    8  C   UNL     1     -40.826  58.837 -52.991  1.00  0.00     0.029 A 
ENDROOT
BRANCH   1   9
HETATM    9  N   UNL     1     -41.417  60.266 -54.833  1.00  0.00    -0.309 N 
HETATM   10  C   UNL     1     -42.453  60.363 -55.725  1.00  0.00     0.320 C 
HETATM   11  N   UNL     1     -42.009  60.452 -57.024  1.00  0.00    -0.341 N 
HETATM   12  O   UNL     1     -43.649  60.418 -55.460  1.00  0.00    -0.247 OA
HETATM   13  H   UNL     1     -41.102  60.021 -57.172  1.00  0.00     0.164 HD
HETATM   14  H   UNL     1     -40.510  60.577 -55.158  1.00  0.00     0.170 HD
BRANCH  11  15
HETATM   15  C   UNL     1     -42.925  60.382 -58.163  1.00  0.00     0.157 C 
BRANCH  15  16
HETATM   16  C   UNL     1     -42.884  59.049 -58.950  1.00  0.00     0.206 C 
HETATM   17  C   UNL     1     -41.959  57.989 -58.328  1.00  0.00     0.040 C 
HETATM   18  C   UNL     1     -42.610  56.589 -58.414  1.00  0.00     0.001 C 
HETATM   19  C   UNL     1     -43.860  56.547 -57.493  1.00  0.00     0.068 C 
HETATM   20  C   UNL     1     -43.096  56.368 -59.867  1.00  0.00     0.033 C 
HETATM   21  C   UNL     1     -44.766  57.752 -57.834  1.00  0.00     0.246 C 
HETATM   22  N   UNL     1     -44.251  58.392 -59.119  1.00  0.00    -0.065 N 
HETATM   23  C   UNL     1     -44.198  57.372 -60.228  1.00  0.00     0.236 C 
HETATM   24  H   UNL     1     -44.934  59.143 -59.361  1.00  0.00     0.280 HD
BRANCH  19  25
HETATM   25  C   UNL     1     -43.509  56.443 -56.023  1.00  0.00     0.045 A 
HETATM   26  N   UNL     1     -44.169  57.235 -55.157  1.00  0.00    -0.233 NA
HETATM   27  C   UNL     1     -43.863  57.107 -53.846  1.00  0.00     0.160 A 
HETATM   28  N   UNL     1     -42.905  56.290 -53.373  1.00  0.00    -0.233 NA
HETATM   29  C   UNL     1     -42.243  55.515 -54.253  1.00  0.00     0.043 A 
HETATM   30  C   UNL     1     -42.528  55.559 -55.607  1.00  0.00     0.055 A 
BRANCH  27  31
HETATM   31  C   UNL     1     -44.663  57.875 -52.874  1.00  0.00     0.014 A 
HETATM   32  C   UNL     1     -45.345  59.043 -53.246  1.00  0.00     0.034 A 
HETATM   33  C   UNL     1     -46.063  59.750 -52.294  1.00  0.00     0.117 A 
HETATM   34  N   UNL     1     -46.156  59.380 -51.002  1.00  0.00    -0.273 NA
HETATM   35  C   UNL     1     -45.499  58.261 -50.645  1.00  0.00     0.117 A 
HETATM   36  C   UNL     1     -44.755  57.491 -51.527  1.00  0.00     0.034 A 
ENDBRANCH  27  31
BRANCH  29  37
HETATM   37  C   UNL     1     -41.146  54.593 -53.734  1.00  0.00     0.037 C 
BRANCH  37  38
HETATM   38  C   UNL     1     -40.648  53.608 -54.819  1.00  0.00     0.006 C 
HETATM   39  C   UNL     1     -40.426  52.167 -54.375  1.00  0.00     0.006 C 
ENDBRANCH  37  38
BRANCH  37  40
HETATM   40  C   UNL     1     -41.560  53.883 -52.430  1.00  0.00     0.006 C 
HETATM   41  C   UNL     1     -40.673  54.234 -51.241  1.00  0.00     0.006 C 
ENDBRANCH  37  40
ENDBRANCH  29  37
ENDBRANCH  19  25
ENDBRANCH  15  16
ENDBRANCH  11  15
ENDBRANCH   1   9
TORSDOF 8
ENDMDL
MODEL 3
REMARK VINA RESULT:      -9.4      2.769      8.143
REMARK  8 active torsions:
REMARK  status: ('A' for Active; 'I' for Inactive)
REMARK    1  A    between atoms: C_2  and  C_3 
REMARK    2  A    between atoms: C_3  and  C_4 
REMARK    3  A    between atoms: C_3  and  C_38 
REMARK    4  A    between atoms: C_6  and  C_7 
REMARK    5  A    between atoms: C_14  and  C_15 
REMARK    6  A    between atoms: C_18  and  C_19 
REMARK    7  A    between atoms: C_19  and  N_20 
REMARK       I    between atoms: N_20  and  C_21 
REMARK       I    between atoms: C_21  and  N_22 
REMARK    8  A    between atoms: N_22  and  C_23 
ROOT
HETATM    1  C   UNL     1     -40.733  54.093 -54.523  1.00  0.00     0.037 A 
HETATM    2  C   UNL     1     -40.446  52.761 -54.836  1.00  0.00     0.052 A 
HETATM    3  C   UNL     1     -40.113  51.848 -53.826  1.00  0.00     0.046 A 
HETATM    4  C   UNL     1     -39.814  50.489 -54.169  1.00  0.00     0.099 C 
HETATM    5  N   UNL     1     -39.581  49.394 -54.473  1.00  0.00    -0.191 NA
HETATM    6  C   UNL     1     -40.063  52.268 -52.495  1.00  0.00     0.023 A 
HETATM    7  C   UNL     1     -40.342  53.596 -52.176  1.00  0.00     0.004 A 
HETATM    8  C   UNL     1     -40.670  54.505 -53.187  1.00  0.00     0.029 A 
ENDROOT
BRANCH   1   9
HETATM    9  N   UNL     1     -41.041  55.068 -55.496  1.00  0.00    -0.309 N 
HETATM   10  C   UNL     1     -42.285  55.558 -55.800  1.00  0.00     0.320 C 
HETATM   11  N   UNL     1     -42.271  56.328 -56.940  1.00  0.00    -0.341 N 
HETATM   12  O   UNL     1     -43.315  55.405 -55.152  1.00  0.00    -0.247 OA
HETATM   13  H   UNL     1     -41.527  56.084 -57.585  1.00  0.00     0.164 HD
HETATM   14  H   UNL     1     -40.253  55.549 -55.910  1.00  0.00     0.170 HD
BRANCH  11  15
HETATM   15  C   UNL     1     -43.504  56.810 -57.565  1.00  0.00     0.157 C 
BRANCH  15  16
HETATM   16  C   UNL     1     -43.515  58.322 -57.900  1.00  0.00     0.206 C 
HETATM   17  C   UNL     1     -44.642  59.104 -57.204  1.00  0.00     0.040 C 
HETATM   18  C   UNL     1     -44.123  60.477 -56.717  1.00  0.00     0.001 C 
HETATM   19  C   UNL     1     -43.091  60.261 -55.576  1.00  0.00     0.068 C 
HETATM   20  C   UNL     1     -43.381  61.161 -57.892  1.00  0.00     0.033 C 
HETATM   21  C   UNL     1     -42.025  59.252 -56.060  1.00  0.00     0.246 C 
HETATM   22  N   UNL     1     -42.210  59.037 -57.558  1.00  0.00    -0.065 N 
HETATM   23  C   UNL     1     -42.139  60.354 -58.289  1.00  0.00     0.236 C 
HETATM   24  H   UNL     1     -41.424  58.421 -57.861  1.00  0.00     0.280 HD
BRANCH  19  25
HETATM   25  C   UNL     1     -43.735  59.884 -54.258  1.00  0.00     0.045 A 
HETATM   26  N   UNL     1     -43.212  58.852 -53.569  1.00  0.00    -0.233 NA
HETATM   27  C   UNL     1     -43.783  58.549 -52.382  1.00  0.00     0.160 A 
HETATM   28  N   UNL     1     -44.867  59.172 -51.886  1.00  0.00    -0.233 NA
HETATM   29  C   UNL     1     -45.388  60.193 -52.594  1.00  0.00     0.043 A 
HETATM   30  C   UNL     1     -44.835  60.589 -53.800  1.00  0.00     0.055 A 
BRANCH  27  31
HETATM   31  C   UNL     1     -43.145  57.506 -51.558  1.00  0.00     0.014 A 
HETATM   32  C   UNL     1     -43.810  56.310 -51.246  1.00  0.00     0.034 A 
HETATM   33  C   UNL     1     -43.186  55.367 -50.445  1.00  0.00     0.117 A 
HETATM   34  N   UNL     1     -41.949  55.523 -49.935  1.00  0.00    -0.273 NA
HETATM   35  C   UNL     1     -41.312  56.671 -50.232  1.00  0.00     0.117 A 
HETATM   36  C   UNL     1     -41.858  57.670 -51.023  1.00  0.00     0.034 A 
ENDBRANCH  27  31
BRANCH  29  37
HETATM   37  C   UNL     1     -46.624  60.900 -52.053  1.00  0.00     0.037 C 
BRANCH  37  38
HETATM   38  C   UNL     1     -47.242  61.872 -53.088  1.00  0.00     0.006 C 
HETATM   39  C   UNL     1     -48.709  62.235 -52.885  1.00  0.00     0.006 C 
ENDBRANCH  37  38
BRANCH  37  40
HETATM   40  C   UNL     1     -46.354  61.573 -50.692  1.00  0.00     0.006 C 
HETATM   41  C   UNL     1     -45.467  62.808 -50.794  1.00  0.00     0.006 C 
ENDBRANCH  37  40
ENDBRANCH  29  37
ENDBRANCH  19  25
ENDBRANCH  15  16
ENDBRANCH  11  15
ENDBRANCH   1   9
TORSDOF 8
ENDMDL
MODEL 4
REMARK VINA RESULT:      -9.3      2.445      8.525
REMARK  8 active torsions:
REMARK  status: ('A' for Active; 'I' for Inactive)
REMARK    1  A    between atoms: C_2  and  C_3 
REMARK    2  A    between atoms: C_3  and  C_4 
REMARK    3  A    between atoms: C_3  and  C_38 
REMARK    4  A    between atoms: C_6  and  C_7 
REMARK    5  A    between atoms: C_14  and  C_15 
REMARK    6  A    between atoms: C_18  and  C_19 
REMARK    7  A    between atoms: C_19  and  N_20 
REMARK       I    between atoms: N_20  and  C_21 
REMARK       I    between atoms: C_21  and  N_22 
REMARK    8  A    between atoms: N_22  and  C_23 
ROOT
HETATM    1  C   UNL     1     -40.791  52.961 -53.664  1.00  0.00     0.037 A 
HETATM    2  C   UNL     1     -40.877  53.379 -52.332  1.00  0.00     0.052 A 
HETATM    3  C   UNL     1     -40.294  52.620 -51.308  1.00  0.00     0.046 A 
HETATM    4  C   UNL     1     -40.402  53.062 -49.949  1.00  0.00     0.099 C 
HETATM    5  N   UNL     1     -40.498  53.445 -48.858  1.00  0.00    -0.191 NA
HETATM    6  C   UNL     1     -39.624  51.434 -51.615  1.00  0.00     0.023 A 
HETATM    7  C   UNL     1     -39.539  51.007 -52.939  1.00  0.00     0.004 A 
HETATM    8  C   UNL     1     -40.125  51.766 -53.958  1.00  0.00     0.029 A 
ENDROOT
BRANCH   1   9
HETATM    9  N   UNL     1     -41.385  53.662 -54.736  1.00  0.00    -0.309 N 
HETATM   10  C   UNL     1     -41.163  54.969 -55.084  1.00  0.00     0.320 C 
HETATM   11  N   UNL     1     -42.057  55.409 -56.032  1.00  0.00    -0.341 N 
HETATM   12  O   UNL     1     -40.266  55.698 -54.673  1.00  0.00    -0.247 OA
HETATM   13  H   UNL     1     -42.943  54.915 -56.014  1.00  0.00     0.164 HD
HETATM   14  H   UNL     1     -41.918  53.104 -55.391  1.00  0.00     0.170 HD
BRANCH  11  15
HETATM   15  C   UNL     1     -42.137  56.816 -56.429  1.00  0.00     0.157 C 
BRANCH  15  16
HETATM   16  C   UNL     1     -43.576  57.361 -56.607  1.00  0.00     0.206 C 
HETATM   17  C   UNL     1     -44.404  57.361 -55.310  1.00  0.00     0.040 C 
HETATM   18  C   UNL     1     -45.254  58.650 -55.215  1.00  0.00     0.001 C 
HETATM   19  C   UNL     1     -44.313  59.872 -55.029  1.00  0.00     0.068 C 
HETATM   20  C   UNL     1     -46.002  58.839 -56.556  1.00  0.00     0.033 C 
HETATM   21  C   UNL     1     -43.234  59.837 -56.134  1.00  0.00     0.246 C 
HETATM   22  N   UNL     1     -43.631  58.782 -57.161  1.00  0.00    -0.065 N 
HETATM   23  C   UNL     1     -45.009  59.070 -57.702  1.00  0.00     0.236 C 
HETATM   24  H   UNL     1     -42.928  58.848 -57.930  1.00  0.00     0.280 HD
BRANCH  19  25
HETATM   25  C   UNL     1     -43.749  59.978 -53.626  1.00  0.00     0.045 A 
HETATM   26  N   UNL     1     -44.452  60.671 -52.712  1.00  0.00    -0.233 NA
HETATM   27  C   UNL     1     -43.947  60.730 -51.459  1.00  0.00     0.160 A 
HETATM   28  N   UNL     1     -42.767  60.195 -51.097  1.00  0.00    -0.233 NA
HETATM   29  C   UNL     1     -42.068  59.517 -52.026  1.00  0.00     0.043 A 
HETATM   30  C   UNL     1     -42.539  59.379 -53.321  1.00  0.00     0.055 A 
BRANCH  27  31
HETATM   31  C   UNL     1     -44.765  61.377 -50.416  1.00  0.00     0.014 A 
HETATM   32  C   UNL     1     -46.026  61.920 -50.706  1.00  0.00     0.034 A 
HETATM   33  C   UNL     1     -46.750  62.545 -49.703  1.00  0.00     0.117 A 
HETATM   34  N   UNL     1     -46.315  62.665 -48.433  1.00  0.00    -0.273 NA
HETATM   35  C   UNL     1     -45.105  62.147 -48.157  1.00  0.00     0.117 A 
HETATM   36  C   UNL     1     -44.310  61.506 -49.095  1.00  0.00     0.034 A 
ENDBRANCH  27  31
BRANCH  29  37
HETATM   37  C   UNL     1     -40.723  58.917 -51.636  1.00  0.00     0.037 C 
BRANCH  37  38
HETATM   38  C   UNL     1     -40.763  57.370 -51.595  1.00  0.00     0.006 C 
HETATM   39  C   UNL     1     -41.384  56.740 -50.353  1.00  0.00     0.006 C 
ENDBRANCH  37  38
BRANCH  37  40
HETATM   40  C   UNL     1     -40.175  59.533 -50.333  1.00  0.00     0.006 C 
HETATM   41  C   UNL     1     -38.662  59.718 -50.341  1.00  0.00     0.006 C 
ENDBRANCH  37  40
ENDBRANCH  29  37
ENDBRANCH  19  25
ENDBRANCH  15  16
ENDBRANCH  11  15
ENDBRANCH   1   9
TORSDOF 8
ENDMDL
MODEL 5
REMARK VINA RESULT:      -9.1      3.651      9.197
REMARK  8 active torsions:
REMARK  status: ('A' for Active; 'I' for Inactive)
REMARK    1  A    between atoms: C_2  and  C_3 
REMARK    2  A    between atoms: C_3  and  C_4 
REMARK    3  A    between atoms: C_3  and  C_38 
REMARK    4  A    between atoms: C_6  and  C_7 
REMARK    5  A    between atoms: C_14  and  C_15 
REMARK    6  A    between atoms: C_18  and  C_19 
REMARK    7  A    between atoms: C_19  and  N_20 
REMARK       I    between atoms: N_20  and  C_21 
REMARK       I    between atoms: C_21  and  N_22 
REMARK    8  A    between atoms: N_22  and  C_23 
ROOT
HETATM    1  C   UNL     1     -40.826  53.757 -52.938  1.00  0.00     0.037 A 
HETATM    2  C   UNL     1     -40.630  52.630 -53.743  1.00  0.00     0.052 A 
HETATM    3  C   UNL     1     -40.018  51.482 -53.223  1.00  0.00     0.046 A 
HETATM    4  C   UNL     1     -39.820  50.341 -54.068  1.00  0.00     0.099 C 
HETATM    5  N   UNL     1     -39.676  49.429 -54.771  1.00  0.00    -0.191 NA
HETATM    6  C   UNL     1     -39.595  51.457 -51.892  1.00  0.00     0.023 A 
HETATM    7  C   UNL     1     -39.782  52.579 -51.086  1.00  0.00     0.004 A 
HETATM    8  C   UNL     1     -40.390  53.725 -51.609  1.00  0.00     0.029 A 
ENDROOT
BRANCH   1   9
HETATM    9  N   UNL     1     -41.404  54.955 -53.410  1.00  0.00    -0.309 N 
HETATM   10  C   UNL     1     -42.560  55.539 -52.962  1.00  0.00     0.320 C 
HETATM   11  N   UNL     1     -42.965  56.573 -53.774  1.00  0.00    -0.341 N 
HETATM   12  O   UNL     1     -43.182  55.254 -51.943  1.00  0.00    -0.247 OA
HETATM   13  H   UNL     1     -42.649  56.481 -54.734  1.00  0.00     0.164 HD
HETATM   14  H   UNL     1     -40.837  55.504 -54.043  1.00  0.00     0.170 HD
BRANCH  11  15
HETATM   15  C   UNL     1     -44.261  57.231 -53.605  1.00  0.00     0.157 C 
BRANCH  15  16
HETATM   16  C   UNL     1     -44.189  58.759 -53.365  1.00  0.00     0.206 C 
HETATM   17  C   UNL     1     -43.045  59.453 -54.123  1.00  0.00     0.040 C 
HETATM   18  C   UNL     1     -43.519  60.813 -54.687  1.00  0.00     0.001 C 
HETATM   19  C   UNL     1     -44.576  60.566 -55.798  1.00  0.00     0.068 C 
HETATM   20  C   UNL     1     -44.216  61.595 -53.547  1.00  0.00     0.033 C 
HETATM   21  C   UNL     1     -45.672  59.631 -55.239  1.00  0.00     0.246 C 
HETATM   22  N   UNL     1     -45.471  59.501 -53.733  1.00  0.00    -0.065 N 
HETATM   23  C   UNL     1     -45.482  60.862 -53.084  1.00  0.00     0.236 C 
HETATM   24  H   UNL     1     -46.275  58.936 -53.382  1.00  0.00     0.280 HD
BRANCH  19  25
HETATM   25  C   UNL     1     -43.967  60.086 -57.099  1.00  0.00     0.045 A 
HETATM   26  N   UNL     1     -44.344  58.881 -57.567  1.00  0.00    -0.233 NA
HETATM   27  C   UNL     1     -43.812  58.481 -58.744  1.00  0.00     0.160 A 
HETATM   28  N   UNL     1     -42.892  59.182 -59.431  1.00  0.00    -0.233 NA
HETATM   29  C   UNL     1     -42.514  60.379 -58.943  1.00  0.00     0.043 A 
HETATM   30  C   UNL     1     -43.044  60.875 -57.764  1.00  0.00     0.055 A 
BRANCH  27  31
HETATM   31  C   UNL     1     -44.308  57.223 -59.333  1.00  0.00     0.014 A 
HETATM   32  C   UNL     1     -45.584  57.137 -59.910  1.00  0.00     0.034 A 
HETATM   33  C   UNL     1     -46.023  55.929 -60.427  1.00  0.00     0.117 A 
HETATM   34  N   UNL     1     -45.285  54.801 -60.417  1.00  0.00    -0.273 NA
HETATM   35  C   UNL     1     -44.062  54.884 -59.861  1.00  0.00     0.117 A 
HETATM   36  C   UNL     1     -43.541  56.049 -59.318  1.00  0.00     0.034 A 
ENDBRANCH  27  31
BRANCH  29  37
HETATM   37  C   UNL     1     -41.463  61.179 -59.702  1.00  0.00     0.037 C 
BRANCH  37  38
HETATM   38  C   UNL     1     -40.625  62.082 -58.765  1.00  0.00     0.006 C 
HETATM   39  C   UNL     1     -39.494  62.870 -59.417  1.00  0.00     0.006 C 
ENDBRANCH  37  38
BRANCH  37  40
HETATM   40  C   UNL     1     -42.075  61.955 -60.886  1.00  0.00     0.006 C 
HETATM   41  C   UNL     1     -42.137  61.144 -62.175  1.00  0.00     0.006 C 
ENDBRANCH  37  40
ENDBRANCH  29  37
ENDBRANCH  19  25
ENDBRANCH  15  16
ENDBRANCH  11  15
ENDBRANCH   1   9
TORSDOF 8
ENDMDL
MODEL 6
REMARK VINA RESULT:      -9.1      3.794      9.823
REMARK  8 active torsions:
REMARK  status: ('A' for Active; 'I' for Inactive)
REMARK    1  A    between atoms: C_2  and  C_3 
REMARK    2  A    between atoms: C_3  and  C_4 
REMARK    3  A    between atoms: C_3  and  C_38 
REMARK    4  A    between atoms: C_6  and  C_7 
REMARK    5  A    between atoms: C_14  and  C_15 
REMARK    6  A    between atoms: C_18  and  C_19 
REMARK    7  A    between atoms: C_19  and  N_20 
REMARK       I    between atoms: N_20  and  C_21 
REMARK       I    between atoms: C_21  and  N_22 
REMARK    8  A    between atoms: N_22  and  C_23 
ROOT
HETATM    1  C   UNL     1     -40.807  53.824 -53.031  1.00  0.00     0.037 A 
HETATM    2  C   UNL     1     -40.569  52.663 -53.773  1.00  0.00     0.052 A 
HETATM    3  C   UNL     1     -39.984  51.540 -53.172  1.00  0.00     0.046 A 
HETATM    4  C   UNL     1     -39.741  50.363 -53.953  1.00  0.00     0.099 C 
HETATM    5  N   UNL     1     -39.559  49.421 -54.606  1.00  0.00    -0.191 NA
HETATM    6  C   UNL     1     -39.631  51.577 -51.821  1.00  0.00     0.023 A 
HETATM    7  C   UNL     1     -39.860  52.733 -51.076  1.00  0.00     0.004 A 
HETATM    8  C   UNL     1     -40.441  53.852 -51.681  1.00  0.00     0.029 A 
ENDROOT
BRANCH   1   9
HETATM    9  N   UNL     1     -41.361  54.997 -53.586  1.00  0.00    -0.309 N 
HETATM   10  C   UNL     1     -42.554  55.581 -53.245  1.00  0.00     0.320 C 
HETATM   11  N   UNL     1     -42.907  56.582 -54.120  1.00  0.00    -0.341 N 
HETATM   12  O   UNL     1     -43.247  55.323 -52.266  1.00  0.00    -0.247 OA
HETATM   13  H   UNL     1     -42.520  56.461 -55.050  1.00  0.00     0.164 HD
HETATM   14  H   UNL     1     -40.754  55.532 -54.193  1.00  0.00     0.170 HD
BRANCH  11  15
HETATM   15  C   UNL     1     -44.220  57.228 -54.071  1.00  0.00     0.157 C 
BRANCH  15  16
HETATM   16  C   UNL     1     -44.186  58.747 -53.774  1.00  0.00     0.206 C 
HETATM   17  C   UNL     1     -43.045  59.493 -54.487  1.00  0.00     0.040 C 
HETATM   18  C   UNL     1     -43.540  60.862 -55.009  1.00  0.00     0.001 C 
HETATM   19  C   UNL     1     -44.573  60.633 -56.147  1.00  0.00     0.068 C 
HETATM   20  C   UNL     1     -44.274  61.586 -53.854  1.00  0.00     0.033 C 
HETATM   21  C   UNL     1     -45.656  59.654 -55.642  1.00  0.00     0.246 C 
HETATM   22  N   UNL     1     -45.478  59.474 -54.138  1.00  0.00    -0.065 N 
HETATM   23  C   UNL     1     -45.530  60.810 -53.441  1.00  0.00     0.236 C 
HETATM   24  H   UNL     1     -46.275  58.879 -53.822  1.00  0.00     0.280 HD
BRANCH  19  25
HETATM   25  C   UNL     1     -43.931  60.214 -57.454  1.00  0.00     0.045 A 
HETATM   26  N   UNL     1     -43.072  61.069 -58.041  1.00  0.00    -0.233 NA
HETATM   27  C   UNL     1     -42.487  60.665 -59.191  1.00  0.00     0.160 A 
HETATM   28  N   UNL     1     -42.759  59.500 -59.805  1.00  0.00    -0.233 NA
HETATM   29  C   UNL     1     -43.631  58.661 -59.214  1.00  0.00     0.043 A 
HETATM   30  C   UNL     1     -44.241  58.986 -58.014  1.00  0.00     0.055 A 
BRANCH  27  31
HETATM   31  C   UNL     1     -41.452  61.535 -59.779  1.00  0.00     0.014 A 
HETATM   32  C   UNL     1     -41.402  61.784 -61.159  1.00  0.00     0.034 A 
HETATM   33  C   UNL     1     -40.395  62.585 -61.675  1.00  0.00     0.117 A 
HETATM   34  N   UNL     1     -39.438  63.160 -60.920  1.00  0.00    -0.273 NA
HETATM   35  C   UNL     1     -39.485  62.918 -59.597  1.00  0.00     0.117 A 
HETATM   36  C   UNL     1     -40.453  62.129 -58.993  1.00  0.00     0.034 A 
ENDBRANCH  27  31
BRANCH  29  37
HETATM   37  C   UNL     1     -43.959  57.343 -59.904  1.00  0.00     0.037 C 
BRANCH  37  38
HETATM   38  C   UNL     1     -45.391  56.853 -59.578  1.00  0.00     0.006 C 
HETATM   39  C   UNL     1     -46.507  57.380 -60.472  1.00  0.00     0.006 C 
ENDBRANCH  37  38
BRANCH  37  40
HETATM   40  C   UNL     1     -42.887  56.270 -59.634  1.00  0.00     0.006 C 
HETATM   41  C   UNL     1     -43.085  55.534 -58.314  1.00  0.00     0.006 C 
ENDBRANCH  37  40
ENDBRANCH  29  37
ENDBRANCH  19  25
ENDBRANCH  15  16
ENDBRANCH  11  15
ENDBRANCH   1   9
TORSDOF 8
ENDMDL
MODEL 7
REMARK VINA RESULT:      -9.1      3.312      7.445
REMARK  8 active torsions:
REMARK  status: ('A' for Active; 'I' for Inactive)
REMARK    1  A    between atoms: C_2  and  C_3 
REMARK    2  A    between atoms: C_3  and  C_4 
REMARK    3  A    between atoms: C_3  and  C_38 
REMARK    4  A    between atoms: C_6  and  C_7 
REMARK    5  A    between atoms: C_14  and  C_15 
REMARK    6  A    between atoms: C_18  and  C_19 
REMARK    7  A    between atoms: C_19  and  N_20 
REMARK       I    between atoms: N_20  and  C_21 
REMARK       I    between atoms: C_21  and  N_22 
REMARK    8  A    between atoms: N_22  and  C_23 
ROOT
HETATM    1  C   UNL     1     -45.272  58.797 -56.744  1.00  0.00     0.037 A 
HETATM    2  C   UNL     1     -45.959  58.041 -57.700  1.00  0.00     0.052 A 
HETATM    3  C   UNL     1     -46.101  58.511 -59.012  1.00  0.00     0.046 A 
HETATM    4  C   UNL     1     -46.816  57.724 -59.973  1.00  0.00     0.099 C 
HETATM    5  N   UNL     1     -47.394  57.065 -60.734  1.00  0.00    -0.191 NA
HETATM    6  C   UNL     1     -45.558  59.746 -59.374  1.00  0.00     0.023 A 
HETATM    7  C   UNL     1     -44.877  60.508 -58.425  1.00  0.00     0.004 A 
HETATM    8  C   UNL     1     -44.740  60.037 -57.115  1.00  0.00     0.029 A 
ENDROOT
BRANCH   1   9
HETATM    9  N   UNL     1     -45.123  58.395 -55.399  1.00  0.00    -0.309 N 
HETATM   10  C   UNL     1     -45.336  59.166 -54.286  1.00  0.00     0.320 C 
HETATM   11  N   UNL     1     -44.891  58.549 -53.139  1.00  0.00    -0.341 N 
HETATM   12  O   UNL     1     -45.892  60.258 -54.242  1.00  0.00    -0.247 OA
HETATM   13  H   UNL     1     -44.139  57.888 -53.301  1.00  0.00     0.164 HD
HETATM   14  H   UNL     1     -44.981  57.406 -55.244  1.00  0.00     0.170 HD
BRANCH  11  15
HETATM   15  C   UNL     1     -44.843  59.245 -51.852  1.00  0.00     0.157 C 
BRANCH  15  16
HETATM   16  C   UNL     1     -43.458  59.236 -51.160  1.00  0.00     0.206 C 
HETATM   17  C   UNL     1     -42.851  57.831 -51.004  1.00  0.00     0.040 C 
HETATM   18  C   UNL     1     -41.331  57.867 -51.288  1.00  0.00     0.001 C 
HETATM   19  C   UNL     1     -41.098  58.183 -52.791  1.00  0.00     0.068 C 
HETATM   20  C   UNL     1     -40.710  59.024 -50.468  1.00  0.00     0.033 C 
HETATM   21  C   UNL     1     -41.899  59.453 -53.159  1.00  0.00     0.246 C 
HETATM   22  N   UNL     1     -42.410  60.089 -51.870  1.00  0.00    -0.065 N 
HETATM   23  C   UNL     1     -41.262  60.376 -50.937  1.00  0.00     0.236 C 
HETATM   24  H   UNL     1     -42.869  60.983 -52.152  1.00  0.00     0.280 HD
BRANCH  19  25
HETATM   25  C   UNL     1     -41.378  57.000 -53.696  1.00  0.00     0.045 A 
HETATM   26  N   UNL     1     -41.819  57.248 -54.944  1.00  0.00    -0.233 NA
HETATM   27  C   UNL     1     -42.035  56.181 -55.745  1.00  0.00     0.160 A 
HETATM   28  N   UNL     1     -41.897  54.903 -55.351  1.00  0.00    -0.233 NA
HETATM   29  C   UNL     1     -41.470  54.671 -54.096  1.00  0.00     0.043 A 
HETATM   30  C   UNL     1     -41.188  55.712 -53.227  1.00  0.00     0.055 A 
BRANCH  27  31
HETATM   31  C   UNL     1     -42.397  56.439 -57.152  1.00  0.00     0.014 A 
HETATM   32  C   UNL     1     -42.034  57.631 -57.795  1.00  0.00     0.034 A 
HETATM   33  C   UNL     1     -42.418  57.846 -59.110  1.00  0.00     0.117 A 
HETATM   34  N   UNL     1     -43.131  56.960 -59.832  1.00  0.00    -0.273 NA
HETATM   35  C   UNL     1     -43.481  55.817 -59.213  1.00  0.00     0.117 A 
HETATM   36  C   UNL     1     -43.144  55.518 -57.902  1.00  0.00     0.034 A 
ENDBRANCH  27  31
BRANCH  29  37
HETATM   37  C   UNL     1     -41.321  53.228 -53.629  1.00  0.00     0.037 C 
BRANCH  37  38
HETATM   38  C   UNL     1     -41.237  53.117 -52.088  1.00  0.00     0.006 C 
HETATM   39  C   UNL     1     -39.857  52.835 -51.503  1.00  0.00     0.006 C 
ENDBRANCH  37  38
BRANCH  37  40
HETATM   40  C   UNL     1     -40.158  52.510 -54.343  1.00  0.00     0.006 C 
HETATM   41  C   UNL     1     -40.313  50.994 -54.379  1.00  0.00     0.006 C 
ENDBRANCH  37  40
ENDBRANCH  29  37
ENDBRANCH  19  25
ENDBRANCH  15  16
ENDBRANCH  11  15
ENDBRANCH   1   9
TORSDOF 8
ENDMDL
MODEL 8
REMARK VINA RESULT:      -9.0      2.241      3.388
REMARK  8 active torsions:
REMARK  status: ('A' for Active; 'I' for Inactive)
REMARK    1  A    between atoms: C_2  and  C_3 
REMARK    2  A    between atoms: C_3  and  C_4 
REMARK    3  A    between atoms: C_3  and  C_38 
REMARK    4  A    between atoms: C_6  and  C_7 
REMARK    5  A    between atoms: C_14  and  C_15 
REMARK    6  A    between atoms: C_18  and  C_19 
REMARK    7  A    between atoms: C_19  and  N_20 
REMARK       I    between atoms: N_20  and  C_21 
REMARK       I    between atoms: C_21  and  N_22 
REMARK    8  A    between atoms: N_22  and  C_23 
ROOT
HETATM    1  C   UNL     1     -44.741  61.355 -52.569  1.00  0.00     0.037 A 
HETATM    2  C   UNL     1     -45.485  61.159 -51.402  1.00  0.00     0.052 A 
HETATM    3  C   UNL     1     -44.908  61.379 -50.144  1.00  0.00     0.046 A 
HETATM    4  C   UNL     1     -45.687  61.163 -48.959  1.00  0.00     0.099 C 
HETATM    5  N   UNL     1     -46.339  60.987 -48.017  1.00  0.00    -0.191 NA
HETATM    6  C   UNL     1     -43.579  61.796 -50.049  1.00  0.00     0.023 A 
HETATM    7  C   UNL     1     -42.829  61.989 -51.209  1.00  0.00     0.004 A 
HETATM    8  C   UNL     1     -43.407  61.764 -52.462  1.00  0.00     0.029 A 
ENDROOT
BRANCH   1   9
HETATM    9  N   UNL     1     -45.253  61.118 -53.863  1.00  0.00    -0.309 N 
HETATM   10  C   UNL     1     -45.395  59.902 -54.478  1.00  0.00     0.320 C 
HETATM   11  N   UNL     1     -45.713  60.031 -55.810  1.00  0.00    -0.341 N 
HETATM   12  O   UNL     1     -45.311  58.797 -53.952  1.00  0.00    -0.247 OA
HETATM   13  H   UNL     1     -45.386  60.898 -56.222  1.00  0.00     0.164 HD
HETATM   14  H   UNL     1     -45.683  61.910 -54.324  1.00  0.00     0.170 HD
BRANCH  11  15
HETATM   15  C   UNL     1     -45.738  58.882 -56.717  1.00  0.00     0.157 C 
BRANCH  15  16
HETATM   16  C   UNL     1     -44.552  58.810 -57.709  1.00  0.00     0.206 C 
HETATM   17  C   UNL     1     -43.189  59.132 -57.071  1.00  0.00     0.040 C 
HETATM   18  C   UNL     1     -42.099  58.183 -57.621  1.00  0.00     0.001 C 
HETATM   19  C   UNL     1     -42.382  56.737 -57.128  1.00  0.00     0.068 C 
HETATM   20  C   UNL     1     -42.196  58.175 -59.166  1.00  0.00     0.033 C 
HETATM   21  C   UNL     1     -43.846  56.377 -57.467  1.00  0.00     0.246 C 
HETATM   22  N   UNL     1     -44.404  57.453 -58.393  1.00  0.00    -0.065 N 
HETATM   23  C   UNL     1     -43.538  57.588 -59.620  1.00  0.00     0.236 C 
HETATM   24  H   UNL     1     -45.358  57.132 -58.667  1.00  0.00     0.280 HD
BRANCH  19  25
HETATM   25  C   UNL     1     -42.023  56.527 -55.671  1.00  0.00     0.045 A 
HETATM   26  N   UNL     1     -41.607  55.304 -55.292  1.00  0.00    -0.233 NA
HETATM   27  C   UNL     1     -41.264  55.143 -53.994  1.00  0.00     0.160 A 
HETATM   28  N   UNL     1     -41.373  56.107 -53.061  1.00  0.00    -0.233 NA
HETATM   29  C   UNL     1     -41.804  57.321 -53.453  1.00  0.00     0.043 A 
HETATM   30  C   UNL     1     -42.136  57.574 -54.773  1.00  0.00     0.055 A 
BRANCH  27  31
HETATM   31  C   UNL     1     -40.688  53.848 -53.589  1.00  0.00     0.014 A 
HETATM   32  C   UNL     1     -40.373  52.858 -54.533  1.00  0.00     0.034 A 
HETATM   33  C   UNL     1     -39.860  51.643 -54.108  1.00  0.00     0.117 A 
HETATM   34  N   UNL     1     -39.632  51.341 -52.814  1.00  0.00    -0.273 NA
HETATM   35  C   UNL     1     -39.937  52.290 -51.909  1.00  0.00     0.117 A 
HETATM   36  C   UNL     1     -40.455  53.532 -52.242  1.00  0.00     0.034 A 
ENDBRANCH  27  31
BRANCH  29  37
HETATM   37  C   UNL     1     -41.945  58.419 -52.406  1.00  0.00     0.037 C 
BRANCH  37  38
HETATM   38  C   UNL     1     -40.611  59.160 -52.152  1.00  0.00     0.006 C 
HETATM   39  C   UNL     1     -40.206  59.347 -50.694  1.00  0.00     0.006 C 
ENDBRANCH  37  38
BRANCH  37  40
HETATM   40  C   UNL     1     -42.593  57.896 -51.109  1.00  0.00     0.006 C 
HETATM   41  C   UNL     1     -44.043  57.462 -51.287  1.00  0.00     0.006 C 
ENDBRANCH  37  40
ENDBRANCH  29  37
ENDBRANCH  19  25
ENDBRANCH  15  16
ENDBRANCH  11  15
ENDBRANCH   1   9
TORSDOF 8
ENDMDL
MODEL 9
REMARK VINA RESULT:      -9.0      3.645      9.009
REMARK  8 active torsions:
REMARK  status: ('A' for Active; 'I' for Inactive)
REMARK    1  A    between atoms: C_2  and  C_3 
REMARK    2  A    between atoms: C_3  and  C_4 
REMARK    3  A    between atoms: C_3  and  C_38 
REMARK    4  A    between atoms: C_6  and  C_7 
REMARK    5  A    between atoms: C_14  and  C_15 
REMARK    6  A    between atoms: C_18  and  C_19 
REMARK    7  A    between atoms: C_19  and  N_20 
REMARK       I    between atoms: N_20  and  C_21 
REMARK       I    between atoms: C_21  and  N_22 
REMARK    8  A    between atoms: N_22  and  C_23 
ROOT
HETATM    1  C   UNL     1     -40.760  53.997 -54.480  1.00  0.00     0.037 A 
HETATM    2  C   UNL     1     -40.400  52.656 -54.648  1.00  0.00     0.052 A 
HETATM    3  C   UNL     1     -40.065  51.864 -53.542  1.00  0.00     0.046 A 
HETATM    4  C   UNL     1     -39.692  50.494 -53.738  1.00  0.00     0.099 C 
HETATM    5  N   UNL     1     -39.399  49.387 -53.923  1.00  0.00    -0.191 NA
HETATM    6  C   UNL     1     -40.086  52.413 -52.258  1.00  0.00     0.023 A 
HETATM    7  C   UNL     1     -40.437  53.751 -52.083  1.00  0.00     0.004 A 
HETATM    8  C   UNL     1     -40.767  54.539 -53.190  1.00  0.00     0.029 A 
ENDROOT
BRANCH   1   9
HETATM    9  N   UNL     1     -41.074  54.856 -55.555  1.00  0.00    -0.309 N 
HETATM   10  C   UNL     1     -42.304  55.024 -56.137  1.00  0.00     0.320 C 
HETATM   11  N   UNL     1     -42.229  55.761 -57.296  1.00  0.00    -0.341 N 
HETATM   12  O   UNL     1     -43.383  54.633 -55.703  1.00  0.00    -0.247 OA
HETATM   13  H   UNL     1     -41.329  55.698 -57.759  1.00  0.00     0.164 HD
HETATM   14  H   UNL     1     -40.351  55.509 -55.828  1.00  0.00     0.170 HD
BRANCH  11  15
HETATM   15  C   UNL     1     -43.378  55.921 -58.188  1.00  0.00     0.157 C 
BRANCH  15  16
HETATM   16  C   UNL     1     -43.431  57.272 -58.945  1.00  0.00     0.206 C 
HETATM   17  C   UNL     1     -44.451  58.268 -58.366  1.00  0.00     0.040 C 
HETATM   18  C   UNL     1     -43.867  59.700 -58.372  1.00  0.00     0.001 C 
HETATM   19  C   UNL     1     -42.690  59.778 -57.361  1.00  0.00     0.068 C 
HETATM   20  C   UNL     1     -43.291  59.984 -59.780  1.00  0.00     0.033 C 
HETATM   21  C   UNL     1     -41.702  58.629 -57.664  1.00  0.00     0.246 C 
HETATM   22  N   UNL     1     -42.090  58.000 -58.997  1.00  0.00    -0.065 N 
HETATM   23  C   UNL     1     -42.116  59.046 -60.082  1.00  0.00     0.236 C 
HETATM   24  H   UNL     1     -41.354  57.290 -59.207  1.00  0.00     0.280 HD
BRANCH  19  25
HETATM   25  C   UNL     1     -43.150  59.825 -55.918  1.00  0.00     0.045 A 
HETATM   26  N   UNL     1     -44.240  60.559 -55.625  1.00  0.00    -0.233 NA
HETATM   27  C   UNL     1     -44.652  60.565 -54.337  1.00  0.00     0.160 A 
HETATM   28  N   UNL     1     -44.007  59.939 -53.336  1.00  0.00    -0.233 NA
HETATM   29  C   UNL     1     -42.911  59.220 -53.643  1.00  0.00     0.043 A 
HETATM   30  C   UNL     1     -42.449  59.132 -54.946  1.00  0.00     0.055 A 
BRANCH  27  31
HETATM   31  C   UNL     1     -45.914  61.261 -54.021  1.00  0.00     0.014 A 
HETATM   32  C   UNL     1     -46.468  61.224 -52.733  1.00  0.00     0.034 A 
HETATM   33  C   UNL     1     -47.670  61.868 -52.485  1.00  0.00     0.117 A 
HETATM   34  N   UNL     1     -48.358  62.549 -53.422  1.00  0.00    -0.273 NA
HETATM   35  C   UNL     1     -47.827  62.582 -54.659  1.00  0.00     0.117 A 
HETATM   36  C   UNL     1     -46.632  61.966 -54.999  1.00  0.00     0.034 A 
ENDBRANCH  27  31
BRANCH  29  37
HETATM   37  C   UNL     1     -42.161  58.516 -52.519  1.00  0.00     0.037 C 
BRANCH  37  38
HETATM   38  C   UNL     1     -43.121  57.844 -51.508  1.00  0.00     0.006 C 
HETATM   39  C   UNL     1     -43.707  56.498 -51.921  1.00  0.00     0.006 C 
ENDBRANCH  37  38
BRANCH  37  40
HETATM   40  C   UNL     1     -41.136  59.445 -51.841  1.00  0.00     0.006 C 
HETATM   41  C   UNL     1     -40.145  58.706 -50.949  1.00  0.00     0.006 C 
ENDBRANCH  37  40
ENDBRANCH  29  37
ENDBRANCH  19  25
ENDBRANCH  15  16
ENDBRANCH  11  15
ENDBRANCH   1   9
TORSDOF 8
ENDMDL
MODEL 10
REMARK VINA RESULT:      -8.9      3.589      8.353
REMARK  8 active torsions:
REMARK  status: ('A' for Active; 'I' for Inactive)
REMARK    1  A    between atoms: C_2  and  C_3 
REMARK    2  A    between atoms: C_3  and  C_4 
REMARK    3  A    between atoms: C_3  and  C_38 
REMARK    4  A    between atoms: C_6  and  C_7 
REMARK    5  A    between atoms: C_14  and  C_15 
REMARK    6  A    between atoms: C_18  and  C_19 
REMARK    7  A    between atoms: C_19  and  N_20 
REMARK       I    between atoms: N_20  and  C_21 
REMARK       I    between atoms: C_21  and  N_22 
REMARK    8  A    between atoms: N_22  and  C_23 
ROOT
HETATM    1  C   UNL     1     -41.752  61.032 -58.100  1.00  0.00     0.037 A 
HETATM    2  C   UNL     1     -40.770  61.960 -58.463  1.00  0.00     0.052 A 
HETATM    3  C   UNL     1     -40.554  62.278 -59.811  1.00  0.00     0.046 A 
HETATM    4  C   UNL     1     -39.537  63.225 -60.161  1.00  0.00     0.099 C 
HETATM    5  N   UNL     1     -38.712  63.999 -60.418  1.00  0.00    -0.191 NA
HETATM    6  C   UNL     1     -41.321  61.664 -60.804  1.00  0.00     0.023 A 
HETATM    7  C   UNL     1     -42.297  60.734 -60.450  1.00  0.00     0.004 A 
HETATM    8  C   UNL     1     -42.507  60.416 -59.104  1.00  0.00     0.029 A 
ENDROOT
BRANCH   1   9
HETATM    9  N   UNL     1     -41.995  60.644 -56.765  1.00  0.00    -0.309 N 
HETATM   10  C   UNL     1     -42.563  61.408 -55.779  1.00  0.00     0.320 C 
HETATM   11  N   UNL     1     -42.456  60.818 -54.541  1.00  0.00    -0.341 N 
HETATM   12  O   UNL     1     -43.153  62.474 -55.923  1.00  0.00    -0.247 OA
HETATM   13  H   UNL     1     -41.662  60.192 -54.459  1.00  0.00     0.164 HD
HETATM   14  H   UNL     1     -41.863  59.662 -56.556  1.00  0.00     0.170 HD
BRANCH  11  15
HETATM   15  C   UNL     1     -42.825  61.521 -53.312  1.00  0.00     0.157 C 
BRANCH  15  16
HETATM   16  C   UNL     1     -43.997  60.883 -52.525  1.00  0.00     0.206 C 
HETATM   17  C   UNL     1     -44.731  59.774 -53.297  1.00  0.00     0.040 C 
HETATM   18  C   UNL     1     -45.087  58.604 -52.349  1.00  0.00     0.001 C 
HETATM   19  C   UNL     1     -43.780  57.902 -51.888  1.00  0.00     0.068 C 
HETATM   20  C   UNL     1     -45.771  59.190 -51.090  1.00  0.00     0.033 C 
HETATM   21  C   UNL     1     -42.816  58.973 -51.331  1.00  0.00     0.246 C 
HETATM   22  N   UNL     1     -43.582  60.283 -51.184  1.00  0.00    -0.065 N 
HETATM   23  C   UNL     1     -44.797  60.084 -50.313  1.00  0.00     0.236 C 
HETATM   24  H   UNL     1     -42.925  60.952 -50.728  1.00  0.00     0.280 HD
BRANCH  19  25
HETATM   25  C   UNL     1     -43.168  57.026 -52.961  1.00  0.00     0.045 A 
HETATM   26  N   UNL     1     -43.609  57.172 -54.225  1.00  0.00    -0.233 NA
HETATM   27  C   UNL     1     -43.030  56.402 -55.174  1.00  0.00     0.160 A 
HETATM   28  N   UNL     1     -42.097  55.467 -54.919  1.00  0.00    -0.233 NA
HETATM   29  C   UNL     1     -41.677  55.323 -53.648  1.00  0.00     0.043 A 
HETATM   30  C   UNL     1     -42.192  56.102 -52.627  1.00  0.00     0.055 A 
BRANCH  27  31
HETATM   31  C   UNL     1     -43.411  56.637 -56.579  1.00  0.00     0.014 A 
HETATM   32  C   UNL     1     -44.316  57.649 -56.933  1.00  0.00     0.034 A 
HETATM   33  C   UNL     1     -44.669  57.819 -58.263  1.00  0.00     0.117 A 
HETATM   34  N   UNL     1     -44.185  57.060 -59.265  1.00  0.00    -0.273 NA
HETATM   35  C   UNL     1     -43.319  56.088 -58.925  1.00  0.00     0.117 A 
HETATM   36  C   UNL     1     -42.910  55.844 -57.622  1.00  0.00     0.034 A 
ENDBRANCH  27  31
BRANCH  29  37
HETATM   37  C   UNL     1     -40.630  54.259 -53.341  1.00  0.00     0.037 C 
BRANCH  37  38
HETATM   38  C   UNL     1     -40.343  53.351 -54.561  1.00  0.00     0.006 C 
HETATM   39  C   UNL     1     -40.259  51.854 -54.286  1.00  0.00     0.006 C 
ENDBRANCH  37  38
BRANCH  37  40
HETATM   40  C   UNL     1     -40.980  53.458 -52.071  1.00  0.00     0.006 C 
HETATM   41  C   UNL     1     -39.904  53.532 -50.993  1.00  0.00     0.006 C 
ENDBRANCH  37  40
ENDBRANCH  29  37
ENDBRANCH  19  25
ENDBRANCH  15  16
ENDBRANCH  11  15
ENDBRANCH   1   9
TORSDOF 8
ENDMDL
