MODEL 1
REMARK VINA RESULT:      -7.9      0.000      0.000
REMARK  3 active torsions:
REMARK  status: ('A' for Active; 'I' for Inactive)
REMARK    1  A    between atoms: C_12  and  C_13 
REMARK    2  A    between atoms: C_13  and  N_14 
REMARK    3  A    between atoms: C_18  and  C_19 
ROOT
HETATM    1  N   UNL     1     -42.770  55.805 -55.579  1.00  0.00    -0.067 N 
HETATM    2  H   UNL     1     -41.744  55.764 -55.578  1.00  0.00     0.280 HD
HETATM    3  C   UNL     1     -43.248  55.073 -56.816  1.00  0.00     0.236 C 
HETATM    4  C   UNL     1     -42.802  55.800 -58.076  1.00  0.00     0.040 C 
HETATM    5  C   UNL     1     -43.229  57.268 -58.099  1.00  0.00     0.062 C 
HETATM    6  C   UNL     1     -42.748  57.970 -56.828  1.00  0.00     0.040 C 
HETATM    7  C   UNL     1     -43.185  57.260 -55.558  1.00  0.00     0.236 C 
ENDROOT
BRANCH   1   8
HETATM    8  C   UNL     1     -43.236  55.130 -54.300  1.00  0.00     0.273 C 
BRANCH   8   9
HETATM    9  C   UNL     1     -42.214  54.219 -53.678  1.00  0.00    -0.028 A 
HETATM   10  C   UNL     1     -41.686  53.146 -54.410  1.00  0.00     0.048 A 
HETATM   11  C   UNL     1     -40.712  52.312 -53.855  1.00  0.00     0.103 A 
HETATM   12  C   UNL     1     -40.235  52.543 -52.563  1.00  0.00     0.119 A 
HETATM   13  O   UNL     1     -40.191  51.365 -54.693  1.00  0.00    -0.348 OA
HETATM   14  O   UNL     1     -39.190  51.828 -52.043  1.00  0.00    -0.347 OA
HETATM   15  C   UNL     1     -40.750  53.619 -51.831  1.00  0.00     0.047 A 
HETATM   16  C   UNL     1     -39.503  50.445 -51.876  1.00  0.00     0.178 C 
HETATM   17  C   UNL     1     -39.304  49.667 -53.167  1.00  0.00     0.053 C 
HETATM   18  C   UNL     1     -40.360  50.035 -54.196  1.00  0.00     0.178 C 
HETATM   19 BR   UNL     1     -40.136  54.010 -50.078  1.00  0.00    -0.048 Br
HETATM   20  C   UNL     1     -41.739  54.447 -52.378  1.00  0.00     0.031 A 
ENDBRANCH   8   9
ENDBRANCH   1   8
BRANCH   5  21
HETATM   21  C   UNL     1     -44.703  57.416 -58.307  1.00  0.00     0.151 A 
HETATM   22  N   UNL     1     -45.391  56.644 -59.148  1.00  0.00    -0.158 NA
HETATM   23  N   UNL     1     -46.641  57.111 -58.995  1.00  0.00    -0.270 N 
HETATM   24  H   UNL     1     -47.402  56.698 -59.526  1.00  0.00     0.190 HD
HETATM   25  C   UNL     1     -46.669  58.126 -58.089  1.00  0.00     0.227 A 
HETATM   26  N   UNL     1     -45.454  58.344 -57.633  1.00  0.00    -0.225 NA
ENDBRANCH   5  21
TORSDOF 3
ENDMDL
MODEL 2
REMARK VINA RESULT:      -7.6      1.987      2.970
REMARK  3 active torsions:
REMARK  status: ('A' for Active; 'I' for Inactive)
REMARK    1  A    between atoms: C_12  and  C_13 
REMARK    2  A    between atoms: C_13  and  N_14 
REMARK    3  A    between atoms: C_18  and  C_19 
ROOT
HETATM    1  N   UNL     1     -43.423  56.012 -55.552  1.00  0.00    -0.067 N 
HETATM    2  H   UNL     1     -42.482  56.295 -55.254  1.00  0.00     0.280 HD
HETATM    3  C   UNL     1     -43.263  55.144 -56.782  1.00  0.00     0.236 C 
HETATM    4  C   UNL     1     -42.688  55.952 -57.937  1.00  0.00     0.040 C 
HETATM    5  C   UNL     1     -43.499  57.210 -58.247  1.00  0.00     0.062 C 
HETATM    6  C   UNL     1     -43.658  58.051 -56.979  1.00  0.00     0.040 C 
HETATM    7  C   UNL     1     -44.233  57.263 -55.814  1.00  0.00     0.236 C 
ENDROOT
BRANCH   1   8
HETATM    8  C   UNL     1     -44.038  55.248 -54.391  1.00  0.00     0.273 C 
BRANCH   8   9
HETATM    9  C   UNL     1     -43.031  54.647 -53.449  1.00  0.00    -0.028 A 
HETATM   10  C   UNL     1     -43.090  54.934 -52.077  1.00  0.00     0.048 A 
HETATM   11  C   UNL     1     -42.181  54.357 -51.187  1.00  0.00     0.103 A 
HETATM   12  C   UNL     1     -41.206  53.469 -51.647  1.00  0.00     0.119 A 
HETATM   13  O   UNL     1     -42.397  54.621 -49.862  1.00  0.00    -0.348 OA
HETATM   14  O   UNL     1     -40.391  52.787 -50.785  1.00  0.00    -0.347 OA
HETATM   15  C   UNL     1     -41.150  53.170 -53.013  1.00  0.00     0.047 A 
HETATM   16  C   UNL     1     -39.519  53.652 -50.056  1.00  0.00     0.178 C 
HETATM   17  C   UNL     1     -40.207  54.237 -48.833  1.00  0.00     0.053 C 
HETATM   18  C   UNL     1     -41.273  55.244 -49.235  1.00  0.00     0.178 C 
HETATM   19 BR   UNL     1     -39.867  51.956 -53.709  1.00  0.00    -0.048 Br
HETATM   20  C   UNL     1     -42.048  53.760 -53.911  1.00  0.00     0.031 A 
ENDBRANCH   8   9
ENDBRANCH   1   8
BRANCH   5  21
HETATM   21  C   UNL     1     -44.814  56.884 -58.881  1.00  0.00     0.151 A 
HETATM   22  N   UNL     1     -45.033  55.743 -59.535  1.00  0.00    -0.158 NA
HETATM   23  N   UNL     1     -46.318  55.876 -59.902  1.00  0.00    -0.270 N 
HETATM   24  H   UNL     1     -46.770  55.135 -60.431  1.00  0.00     0.190 HD
HETATM   25  C   UNL     1     -46.823  57.063 -59.470  1.00  0.00     0.227 A 
HETATM   26  N   UNL     1     -45.894  57.726 -58.817  1.00  0.00    -0.225 NA
ENDBRANCH   5  21
TORSDOF 3
ENDMDL
MODEL 3
REMARK VINA RESULT:      -7.6      3.390      5.453
REMARK  3 active torsions:
REMARK  status: ('A' for Active; 'I' for Inactive)
REMARK    1  A    between atoms: C_12  and  C_13 
REMARK    2  A    between atoms: C_13  and  N_14 
REMARK    3  A    between atoms: C_18  and  C_19 
ROOT
HETATM    1  N   UNL     1     -43.621  57.523 -54.380  1.00  0.00    -0.067 N 
HETATM    2  H   UNL     1     -44.129  57.924 -55.177  1.00  0.00     0.280 HD
HETATM    3  C   UNL     1     -44.077  58.259 -53.138  1.00  0.00     0.236 C 
HETATM    4  C   UNL     1     -43.663  59.722 -53.199  1.00  0.00     0.040 C 
HETATM    5  C   UNL     1     -42.163  59.907 -53.434  1.00  0.00     0.062 C 
HETATM    6  C   UNL     1     -41.735  59.135 -54.683  1.00  0.00     0.040 C 
HETATM    7  C   UNL     1     -42.138  57.670 -54.640  1.00  0.00     0.236 C 
ENDROOT
BRANCH   1   8
HETATM    8  C   UNL     1     -43.980  56.047 -54.332  1.00  0.00     0.273 C 
BRANCH   8   9
HETATM    9  C   UNL     1     -43.073  55.221 -53.463  1.00  0.00    -0.028 A 
HETATM   10  C   UNL     1     -43.131  55.342 -52.067  1.00  0.00     0.048 A 
HETATM   11  C   UNL     1     -42.316  54.556 -51.247  1.00  0.00     0.103 A 
HETATM   12  C   UNL     1     -41.440  53.623 -51.805  1.00  0.00     0.119 A 
HETATM   13  O   UNL     1     -42.532  54.678 -49.902  1.00  0.00    -0.348 OA
HETATM   14  O   UNL     1     -40.729  52.749 -51.028  1.00  0.00    -0.347 OA
HETATM   15  C   UNL     1     -41.385  53.490 -53.197  1.00  0.00     0.047 A 
HETATM   16  C   UNL     1     -39.781  53.409 -50.188  1.00  0.00     0.178 C 
HETATM   17  C   UNL     1     -40.427  53.916 -48.908  1.00  0.00     0.053 C 
HETATM   18  C   UNL     1     -41.359  55.083 -49.191  1.00  0.00     0.178 C 
HETATM   19 BR   UNL     1     -40.235  52.230 -54.028  1.00  0.00    -0.048 Br
HETATM   20  C   UNL     1     -42.187  54.288 -54.023  1.00  0.00     0.031 A 
ENDBRANCH   8   9
ENDBRANCH   1   8
BRANCH   5  21
HETATM   21  C   UNL     1     -41.360  59.533 -52.229  1.00  0.00     0.151 A 
HETATM   22  N   UNL     1     -40.083  59.158 -52.305  1.00  0.00    -0.158 NA
HETATM   23  N   UNL     1     -39.779  58.945 -51.014  1.00  0.00    -0.270 N 
HETATM   24  H   UNL     1     -38.843  58.642 -50.760  1.00  0.00     0.190 HD
HETATM   25  C   UNL     1     -40.855  59.192 -50.218  1.00  0.00     0.227 A 
HETATM   26  N   UNL     1     -41.874  59.568 -50.959  1.00  0.00    -0.225 NA
ENDBRANCH   5  21
TORSDOF 3
ENDMDL
MODEL 4
REMARK VINA RESULT:      -7.6      3.002      4.711
REMARK  3 active torsions:
REMARK  status: ('A' for Active; 'I' for Inactive)
REMARK    1  A    between atoms: C_12  and  C_13 
REMARK    2  A    between atoms: C_13  and  N_14 
REMARK    3  A    between atoms: C_18  and  C_19 
ROOT
HETATM    1  N   UNL     1     -43.642  57.427 -54.257  1.00  0.00    -0.067 N 
HETATM    2  H   UNL     1     -44.196  57.780 -55.046  1.00  0.00     0.280 HD
HETATM    3  C   UNL     1     -44.056  58.211 -53.030  1.00  0.00     0.236 C 
HETATM    4  C   UNL     1     -43.678  59.678 -53.177  1.00  0.00     0.040 C 
HETATM    5  C   UNL     1     -42.196  59.883 -53.493  1.00  0.00     0.062 C 
HETATM    6  C   UNL     1     -41.810  59.061 -54.724  1.00  0.00     0.040 C 
HETATM    7  C   UNL     1     -42.177  57.592 -54.595  1.00  0.00     0.236 C 
ENDROOT
BRANCH   1   8
HETATM    8  C   UNL     1     -43.964  55.948 -54.124  1.00  0.00     0.273 C 
BRANCH   8   9
HETATM    9  C   UNL     1     -42.884  55.140 -53.460  1.00  0.00    -0.028 A 
HETATM   10  C   UNL     1     -42.070  54.289 -54.221  1.00  0.00     0.048 A 
HETATM   11  C   UNL     1     -41.042  53.557 -53.620  1.00  0.00     0.103 A 
HETATM   12  C   UNL     1     -40.797  53.674 -52.250  1.00  0.00     0.119 A 
HETATM   13  O   UNL     1     -40.243  52.845 -54.471  1.00  0.00    -0.348 OA
HETATM   14  O   UNL     1     -39.717  53.076 -51.659  1.00  0.00    -0.347 OA
HETATM   15  C   UNL     1     -41.599  54.530 -51.488  1.00  0.00     0.047 A 
HETATM   16  C   UNL     1     -39.785  51.650 -51.711  1.00  0.00     0.178 C 
HETATM   17  C   UNL     1     -39.270  51.114 -53.037  1.00  0.00     0.053 C 
HETATM   18  C   UNL     1     -40.227  51.447 -54.171  1.00  0.00     0.178 C 
HETATM   19 BR   UNL     1     -41.314  54.757 -49.625  1.00  0.00    -0.048 Br
HETATM   20  C   UNL     1     -42.642  55.251 -52.083  1.00  0.00     0.031 A 
ENDBRANCH   8   9
ENDBRANCH   1   8
BRANCH   5  21
HETATM   21  C   UNL     1     -41.328  59.582 -52.313  1.00  0.00     0.151 A 
HETATM   22  N   UNL     1     -40.046  59.239 -52.432  1.00  0.00    -0.158 NA
HETATM   23  N   UNL     1     -39.678  59.090 -51.149  1.00  0.00    -0.270 N 
HETATM   24  H   UNL     1     -38.723  58.824 -50.926  1.00  0.00     0.190 HD
HETATM   25  C   UNL     1     -40.723  59.341 -50.315  1.00  0.00     0.227 A 
HETATM   26  N   UNL     1     -41.786  59.657 -51.022  1.00  0.00    -0.225 NA
ENDBRANCH   5  21
TORSDOF 3
ENDMDL
MODEL 5
REMARK VINA RESULT:      -7.6      2.588      3.082
REMARK  3 active torsions:
REMARK  status: ('A' for Active; 'I' for Inactive)
REMARK    1  A    between atoms: C_12  and  C_13 
REMARK    2  A    between atoms: C_13  and  N_14 
REMARK    3  A    between atoms: C_18  and  C_19 
ROOT
HETATM    1  N   UNL     1     -42.666  56.866 -53.331  1.00  0.00    -0.067 N 
HETATM    2  H   UNL     1     -42.484  56.798 -52.323  1.00  0.00     0.280 HD
HETATM    3  C   UNL     1     -41.429  57.458 -53.973  1.00  0.00     0.236 C 
HETATM    4  C   UNL     1     -41.209  58.887 -53.495  1.00  0.00     0.040 C 
HETATM    5  C   UNL     1     -42.430  59.782 -53.710  1.00  0.00     0.062 C 
HETATM    6  C   UNL     1     -43.662  59.143 -53.067  1.00  0.00     0.040 C 
HETATM    7  C   UNL     1     -43.900  57.716 -53.533  1.00  0.00     0.236 C 
ENDROOT
BRANCH   1   8
HETATM    8  C   UNL     1     -42.941  55.453 -53.820  1.00  0.00     0.273 C 
BRANCH   8   9
HETATM    9  C   UNL     1     -41.995  54.419 -53.277  1.00  0.00    -0.028 A 
HETATM   10  C   UNL     1     -41.516  53.396 -54.108  1.00  0.00     0.048 A 
HETATM   11  C   UNL     1     -40.611  52.447 -53.625  1.00  0.00     0.103 A 
HETATM   12  C   UNL     1     -40.154  52.512 -52.307  1.00  0.00     0.119 A 
HETATM   13  O   UNL     1     -40.128  51.561 -54.548  1.00  0.00    -0.348 OA
HETATM   14  O   UNL     1     -39.170  51.680 -51.845  1.00  0.00    -0.347 OA
HETATM   15  C   UNL     1     -40.619  53.537 -51.476  1.00  0.00     0.047 A 
HETATM   16  C   UNL     1     -39.572  50.311 -51.830  1.00  0.00     0.178 C 
HETATM   17  C   UNL     1     -39.388  49.660 -53.192  1.00  0.00     0.053 C 
HETATM   18  C   UNL     1     -40.393  50.200 -54.197  1.00  0.00     0.178 C 
HETATM   19 BR   UNL     1     -40.028  53.703 -49.680  1.00  0.00    -0.048 Br
HETATM   20  C   UNL     1     -41.540  54.479 -51.952  1.00  0.00     0.031 A 
ENDBRANCH   8   9
ENDBRANCH   1   8
BRANCH   5  21
HETATM   21  C   UNL     1     -42.642  60.097 -55.157  1.00  0.00     0.151 A 
HETATM   22  N   UNL     1     -43.838  60.402 -55.658  1.00  0.00    -0.158 NA
HETATM   23  N   UNL     1     -43.551  60.621 -56.952  1.00  0.00    -0.270 N 
HETATM   24  H   UNL     1     -44.291  60.881 -57.596  1.00  0.00     0.190 HD
HETATM   25  C   UNL     1     -42.222  60.445 -57.186  1.00  0.00     0.227 A 
HETATM   26  N   UNL     1     -41.617  60.112 -56.067  1.00  0.00    -0.225 NA
ENDBRANCH   5  21
TORSDOF 3
ENDMDL
MODEL 6
REMARK VINA RESULT:      -7.5      1.770      2.102
REMARK  3 active torsions:
REMARK  status: ('A' for Active; 'I' for Inactive)
REMARK    1  A    between atoms: C_12  and  C_13 
REMARK    2  A    between atoms: C_13  and  N_14 
REMARK    3  A    between atoms: C_18  and  C_19 
ROOT
HETATM    1  N   UNL     1     -42.556  56.567 -57.096  1.00  0.00    -0.067 N 
HETATM    2  H   UNL     1     -41.620  56.157 -56.994  1.00  0.00     0.280 HD
HETATM    3  C   UNL     1     -43.275  55.783 -58.173  1.00  0.00     0.236 C 
HETATM    4  C   UNL     1     -42.592  55.970 -59.520  1.00  0.00     0.040 C 
HETATM    5  C   UNL     1     -42.440  57.441 -59.911  1.00  0.00     0.062 C 
HETATM    6  C   UNL     1     -41.729  58.205 -58.793  1.00  0.00     0.040 C 
HETATM    7  C   UNL     1     -42.398  58.031 -57.439  1.00  0.00     0.236 C 
ENDROOT
BRANCH   1   8
HETATM    8  C   UNL     1     -43.239  56.437 -55.745  1.00  0.00     0.273 C 
BRANCH   8   9
HETATM    9  C   UNL     1     -42.430  55.697 -54.715  1.00  0.00    -0.028 A 
HETATM   10  C   UNL     1     -41.612  54.624 -55.099  1.00  0.00     0.048 A 
HETATM   11  C   UNL     1     -40.832  53.949 -54.157  1.00  0.00     0.103 A 
HETATM   12  C   UNL     1     -40.840  54.342 -52.817  1.00  0.00     0.119 A 
HETATM   13  O   UNL     1     -39.992  52.992 -54.657  1.00  0.00    -0.348 OA
HETATM   14  O   UNL     1     -39.989  53.788 -51.900  1.00  0.00    -0.347 OA
HETATM   15  C   UNL     1     -41.646  55.418 -52.431  1.00  0.00     0.047 A 
HETATM   16  C   UNL     1     -40.244  52.400 -51.683  1.00  0.00     0.178 C 
HETATM   17  C   UNL     1     -39.564  51.537 -52.734  1.00  0.00     0.053 C 
HETATM   18  C   UNL     1     -40.229  51.700 -54.091  1.00  0.00     0.178 C 
HETATM   19 BR   UNL     1     -41.695  56.024 -50.632  1.00  0.00    -0.048 Br
HETATM   20  C   UNL     1     -42.444  56.087 -53.368  1.00  0.00     0.031 A 
ENDBRANCH   8   9
ENDBRANCH   1   8
BRANCH   5  21
HETATM   21  C   UNL     1     -43.752  58.059 -60.277  1.00  0.00     0.151 A 
HETATM   22  N   UNL     1     -44.854  57.338 -60.483  1.00  0.00    -0.158 NA
HETATM   23  N   UNL     1     -45.762  58.288 -60.758  1.00  0.00    -0.270 N 
HETATM   24  H   UNL     1     -46.721  58.026 -60.962  1.00  0.00     0.190 HD
HETATM   25  C   UNL     1     -45.195  59.525 -60.710  1.00  0.00     0.227 A 
HETATM   26  N   UNL     1     -43.920  59.413 -60.407  1.00  0.00    -0.225 NA
ENDBRANCH   5  21
TORSDOF 3
ENDMDL
MODEL 7
REMARK VINA RESULT:      -7.4      4.875      6.142
REMARK  3 active torsions:
REMARK  status: ('A' for Active; 'I' for Inactive)
REMARK    1  A    between atoms: C_12  and  C_13 
REMARK    2  A    between atoms: C_13  and  N_14 
REMARK    3  A    between atoms: C_18  and  C_19 
ROOT
HETATM    1  N   UNL     1     -42.564  58.299 -51.575  1.00  0.00    -0.067 N 
HETATM    2  H   UNL     1     -42.477  58.272 -52.597  1.00  0.00     0.280 HD
HETATM    3  C   UNL     1     -44.000  57.958 -51.235  1.00  0.00     0.236 C 
HETATM    4  C   UNL     1     -44.944  59.031 -51.759  1.00  0.00     0.040 C 
HETATM    5  C   UNL     1     -44.577  60.435 -51.276  1.00  0.00     0.062 C 
HETATM    6  C   UNL     1     -43.116  60.736 -51.618  1.00  0.00     0.040 C 
HETATM    7  C   UNL     1     -42.157  59.677 -51.101  1.00  0.00     0.236 C 
ENDROOT
BRANCH   1   8
HETATM    8  C   UNL     1     -41.589  57.270 -51.027  1.00  0.00     0.273 C 
BRANCH   8   9
HETATM    9  C   UNL     1     -41.474  56.025 -51.863  1.00  0.00    -0.028 A 
HETATM   10  C   UNL     1     -41.030  54.826 -51.286  1.00  0.00     0.048 A 
HETATM   11  C   UNL     1     -40.950  53.655 -52.045  1.00  0.00     0.103 A 
HETATM   12  C   UNL     1     -41.328  53.655 -53.389  1.00  0.00     0.119 A 
HETATM   13  O   UNL     1     -40.608  52.524 -51.357  1.00  0.00    -0.348 OA
HETATM   14  O   UNL     1     -41.387  52.499 -54.119  1.00  0.00    -0.347 OA
HETATM   15  C   UNL     1     -41.783  54.846 -53.967  1.00  0.00     0.047 A 
HETATM   16  C   UNL     1     -40.106  51.893 -54.291  1.00  0.00     0.178 C 
HETATM   17  C   UNL     1     -39.728  51.037 -53.093  1.00  0.00     0.053 C 
HETATM   18  C   UNL     1     -39.432  51.898 -51.876  1.00  0.00     0.178 C 
HETATM   19 BR   UNL     1     -42.333  54.919 -55.782  1.00  0.00    -0.048 Br
HETATM   20  C   UNL     1     -41.847  56.026 -53.215  1.00  0.00     0.031 A 
ENDBRANCH   8   9
ENDBRANCH   1   8
BRANCH   5  21
HETATM   21  C   UNL     1     -44.871  60.618 -49.821  1.00  0.00     0.151 A 
HETATM   22  N   UNL     1     -45.765  59.876 -49.170  1.00  0.00    -0.158 NA
HETATM   23  N   UNL     1     -45.679  60.368 -47.923  1.00  0.00    -0.270 N 
HETATM   24  H   UNL     1     -46.263  59.981 -47.187  1.00  0.00     0.190 HD
HETATM   25  C   UNL     1     -44.758  61.367 -47.861  1.00  0.00     0.227 A 
HETATM   26  N   UNL     1     -44.226  61.551 -49.050  1.00  0.00    -0.225 NA
ENDBRANCH   5  21
TORSDOF 3
ENDMDL
MODEL 8
REMARK VINA RESULT:      -7.1      4.381      8.196
REMARK  3 active torsions:
REMARK  status: ('A' for Active; 'I' for Inactive)
REMARK    1  A    between atoms: C_12  and  C_13 
REMARK    2  A    between atoms: C_13  and  N_14 
REMARK    3  A    between atoms: C_18  and  C_19 
ROOT
HETATM    1  N   UNL     1     -42.046  55.872 -53.374  1.00  0.00    -0.067 N 
HETATM    2  H   UNL     1     -42.631  55.510 -54.136  1.00  0.00     0.280 HD
HETATM    3  C   UNL     1     -40.829  54.976 -53.275  1.00  0.00     0.236 C 
HETATM    4  C   UNL     1     -41.231  53.569 -52.856  1.00  0.00     0.040 C 
HETATM    5  C   UNL     1     -42.046  53.544 -51.562  1.00  0.00     0.062 C 
HETATM    6  C   UNL     1     -43.254  54.474 -51.690  1.00  0.00     0.040 C 
HETATM    7  C   UNL     1     -42.872  55.885 -52.107  1.00  0.00     0.236 C 
ENDROOT
BRANCH   1   8
HETATM    8  C   UNL     1     -41.675  57.297 -53.748  1.00  0.00     0.273 C 
BRANCH   8   9
HETATM    9  C   UNL     1     -42.118  57.707 -55.126  1.00  0.00    -0.028 A 
HETATM   10  C   UNL     1     -42.595  56.745 -56.028  1.00  0.00     0.048 A 
HETATM   11  C   UNL     1     -43.039  57.117 -57.299  1.00  0.00     0.103 A 
HETATM   12  C   UNL     1     -43.032  58.458 -57.688  1.00  0.00     0.119 A 
HETATM   13  O   UNL     1     -43.583  56.116 -58.056  1.00  0.00    -0.348 OA
HETATM   14  O   UNL     1     -43.583  58.867 -58.872  1.00  0.00    -0.347 OA
HETATM   15  C   UNL     1     -42.567  59.423 -56.788  1.00  0.00     0.047 A 
HETATM   16  C   UNL     1     -42.892  58.345 -60.007  1.00  0.00     0.178 C 
HETATM   17  C   UNL     1     -43.364  56.942 -60.351  1.00  0.00     0.053 C 
HETATM   18  C   UNL     1     -42.907  55.939 -59.304  1.00  0.00     0.178 C 
HETATM   19 BR   UNL     1     -42.546  61.268 -57.236  1.00  0.00    -0.048 Br
HETATM   20  C   UNL     1     -42.104  59.053 -55.519  1.00  0.00     0.031 A 
ENDBRANCH   8   9
ENDBRANCH   1   8
BRANCH   5  21
HETATM   21  C   UNL     1     -41.205  53.864 -50.367  1.00  0.00     0.151 A 
HETATM   22  N   UNL     1     -39.876  53.775 -50.380  1.00  0.00    -0.158 NA
HETATM   23  N   UNL     1     -39.559  54.166 -49.134  1.00  0.00    -0.270 N 
HETATM   24  H   UNL     1     -38.585  54.200 -48.849  1.00  0.00     0.190 HD
HETATM   25  C   UNL     1     -40.680  54.472 -48.426  1.00  0.00     0.227 A 
HETATM   26  N   UNL     1     -41.742  54.291 -49.180  1.00  0.00    -0.225 NA
ENDBRANCH   5  21
TORSDOF 3
ENDMDL
MODEL 9
REMARK VINA RESULT:      -7.1      3.632      4.458
REMARK  3 active torsions:
REMARK  status: ('A' for Active; 'I' for Inactive)
REMARK    1  A    between atoms: C_12  and  C_13 
REMARK    2  A    between atoms: C_13  and  N_14 
REMARK    3  A    between atoms: C_18  and  C_19 
ROOT
HETATM    1  N   UNL     1     -43.497  57.491 -51.995  1.00  0.00    -0.067 N 
HETATM    2  H   UNL     1     -42.964  57.209 -51.164  1.00  0.00     0.280 HD
HETATM    3  C   UNL     1     -42.884  58.778 -52.506  1.00  0.00     0.236 C 
HETATM    4  C   UNL     1     -43.070  59.900 -51.495  1.00  0.00     0.040 C 
HETATM    5  C   UNL     1     -44.531  60.102 -51.092  1.00  0.00     0.062 C 
HETATM    6  C   UNL     1     -45.122  58.780 -50.600  1.00  0.00     0.040 C 
HETATM    7  C   UNL     1     -44.948  57.646 -51.598  1.00  0.00     0.236 C 
ENDROOT
BRANCH   1   8
HETATM    8  C   UNL     1     -43.368  56.359 -53.000  1.00  0.00     0.273 C 
BRANCH   8   9
HETATM    9  C   UNL     1     -42.349  55.318 -52.628  1.00  0.00    -0.028 A 
HETATM   10  C   UNL     1     -41.790  54.492 -53.614  1.00  0.00     0.048 A 
HETATM   11  C   UNL     1     -40.819  53.543 -53.286  1.00  0.00     0.103 A 
HETATM   12  C   UNL     1     -40.374  53.412 -51.968  1.00  0.00     0.119 A 
HETATM   13  O   UNL     1     -40.266  52.869 -54.339  1.00  0.00    -0.348 OA
HETATM   14  O   UNL     1     -39.332  52.587 -51.640  1.00  0.00    -0.347 OA
HETATM   15  C   UNL     1     -40.920  54.241 -50.982  1.00  0.00     0.047 A 
HETATM   16  C   UNL     1     -39.631  51.210 -51.869  1.00  0.00     0.178 C 
HETATM   17  C   UNL     1     -39.392  50.821 -53.319  1.00  0.00     0.053 C 
HETATM   18  C   UNL     1     -40.430  51.452 -54.233  1.00  0.00     0.178 C 
HETATM   19 BR   UNL     1     -40.351  54.136 -49.174  1.00  0.00    -0.048 Br
HETATM   20  C   UNL     1     -41.906  55.181 -51.304  1.00  0.00     0.031 A 
ENDBRANCH   8   9
ENDBRANCH   1   8
BRANCH   5  21
HETATM   21  C   UNL     1     -45.335  60.709 -52.197  1.00  0.00     0.151 A 
HETATM   22  N   UNL     1     -46.663  60.609 -52.259  1.00  0.00    -0.158 NA
HETATM   23  N   UNL     1     -46.942  61.301 -53.376  1.00  0.00    -0.270 N 
HETATM   24  H   UNL     1     -47.906  61.398 -53.681  1.00  0.00     0.190 HD
HETATM   25  C   UNL     1     -45.803  61.786 -53.940  1.00  0.00     0.227 A 
HETATM   26  N   UNL     1     -44.765  61.428 -53.216  1.00  0.00    -0.225 NA
ENDBRANCH   5  21
TORSDOF 3
ENDMDL
MODEL 10
REMARK VINA RESULT:      -7.0      4.221      7.147
REMARK  3 active torsions:
REMARK  status: ('A' for Active; 'I' for Inactive)
REMARK    1  A    between atoms: C_12  and  C_13 
REMARK    2  A    between atoms: C_13  and  N_14 
REMARK    3  A    between atoms: C_18  and  C_19 
ROOT
HETATM    1  N   UNL     1     -41.703  55.194 -55.519  1.00  0.00    -0.067 N 
HETATM    2  H   UNL     1     -41.631  54.831 -56.477  1.00  0.00     0.280 HD
HETATM    3  C   UNL     1     -40.323  55.113 -54.901  1.00  0.00     0.236 C 
HETATM    4  C   UNL     1     -39.883  53.663 -54.762  1.00  0.00     0.040 C 
HETATM    5  C   UNL     1     -40.888  52.806 -53.991  1.00  0.00     0.062 C 
HETATM    6  C   UNL     1     -42.272  52.928 -54.631  1.00  0.00     0.040 C 
HETATM    7  C   UNL     1     -42.731  54.369 -54.777  1.00  0.00     0.236 C 
ENDROOT
BRANCH   1   8
HETATM    8  C   UNL     1     -42.194  56.628 -55.633  1.00  0.00     0.273 C 
BRANCH   8   9
HETATM    9  C   UNL     1     -42.116  57.408 -54.350  1.00  0.00    -0.028 A 
HETATM   10  C   UNL     1     -40.913  58.018 -53.967  1.00  0.00     0.048 A 
HETATM   11  C   UNL     1     -40.836  58.773 -52.793  1.00  0.00     0.103 A 
HETATM   12  C   UNL     1     -41.964  58.946 -51.988  1.00  0.00     0.119 A 
HETATM   13  O   UNL     1     -39.647  59.410 -52.573  1.00  0.00    -0.348 OA
HETATM   14  O   UNL     1     -41.954  59.786 -50.908  1.00  0.00    -0.347 OA
HETATM   15  C   UNL     1     -43.170  58.349 -52.371  1.00  0.00     0.047 A 
HETATM   16  C   UNL     1     -41.064  59.348 -49.881  1.00  0.00     0.178 C 
HETATM   17  C   UNL     1     -39.636  59.791 -50.153  1.00  0.00     0.053 C 
HETATM   18  C   UNL     1     -39.043  59.036 -51.332  1.00  0.00     0.178 C 
HETATM   19 BR   UNL     1     -44.750  58.557 -51.340  1.00  0.00    -0.048 Br
HETATM   20  C   UNL     1     -43.247  57.577 -53.537  1.00  0.00     0.031 A 
ENDBRANCH   8   9
ENDBRANCH   1   8
BRANCH   5  21
HETATM   21  C   UNL     1     -40.903  53.140 -52.533  1.00  0.00     0.151 A 
HETATM   22  N   UNL     1     -41.930  53.754 -51.947  1.00  0.00    -0.158 NA
HETATM   23  N   UNL     1     -41.519  53.826 -50.670  1.00  0.00    -0.270 N 
HETATM   24  H   UNL     1     -42.117  54.257 -49.972  1.00  0.00     0.190 HD
HETATM   25  C   UNL     1     -40.287  53.266 -50.528  1.00  0.00     0.227 A 
HETATM   26  N   UNL     1     -39.868  52.821 -51.693  1.00  0.00    -0.225 NA
ENDBRANCH   5  21
TORSDOF 3
ENDMDL
