MODEL 1
REMARK VINA RESULT:      -9.7      0.000      0.000
REMARK  4 active torsions:
REMARK  status: ('A' for Active; 'I' for Inactive)
REMARK    1  A    between atoms: C_2  and  C_3 
REMARK    2  A    between atoms: C_2  and  C_19 
REMARK       I    between atoms: C_3  and  N_4 
REMARK    3  A    between atoms: N_4  and  C_5 
REMARK    4  A    between atoms: C_12  and  C_13 
REMARK       I    between atoms: C_13  and  N_14 
ROOT
HETATM    1  C   UNL     1     -42.741  55.975 -54.485  1.00  0.00     0.230 C 
HETATM    2  N   UNL     1     -42.417  56.662 -55.641  1.00  0.00    -0.327 N 
HETATM    3  O   UNL     1     -43.830  55.455 -54.251  1.00  0.00    -0.272 OA
HETATM    4  H   UNL     1     -41.432  56.821 -55.812  1.00  0.00     0.169 HD
ENDROOT
BRANCH   2   5
HETATM    5  C   UNL     1     -43.288  57.063 -56.674  1.00  0.00     0.035 A 
HETATM    6  C   UNL     1     -43.632  56.244 -57.758  1.00  0.00     0.046 A 
HETATM    7  C   UNL     1     -44.566  56.707 -58.712  1.00  0.00     0.030 A 
HETATM    8  C   UNL     1     -45.106  57.977 -58.559  1.00  0.00     0.063 A 
HETATM    9  C   UNL     1     -45.180  56.184 -59.890  1.00  0.00     0.156 A 
HETATM   10  N   UNL     1     -45.954  58.141 -59.618  1.00  0.00    -0.277 N 
HETATM   11  C   UNL     1     -44.781  58.822 -57.496  1.00  0.00     0.034 A 
HETATM   12  H   UNL     1     -46.520  58.955 -59.831  1.00  0.00     0.189 HD
HETATM   13  N   UNL     1     -46.032  57.081 -60.439  1.00  0.00    -0.168 NA
HETATM   14  C   UNL     1     -43.869  58.333 -56.554  1.00  0.00     0.032 A 
BRANCH   9  15
HETATM   15  C   UNL     1     -44.988  54.855 -60.488  1.00  0.00     0.270 C 
HETATM   16  N   UNL     1     -45.005  53.829 -59.582  1.00  0.00    -0.365 N 
HETATM   17  H   UNL     1     -45.130  54.049 -58.601  1.00  0.00     0.159 HD
HETATM   18  H   UNL     1     -44.863  52.883 -59.897  1.00  0.00     0.159 HD
HETATM   19  O   UNL     1     -44.814  54.643 -61.683  1.00  0.00    -0.266 OA
ENDBRANCH   9  15
ENDBRANCH   2   5
BRANCH   1  20
HETATM   20  C   UNL     1     -41.655  55.982 -53.396  1.00  0.00     0.107 C 
HETATM   21  C   UNL     1     -40.590  57.010 -53.789  1.00  0.00     0.025 C 
BRANCH  20  22
HETATM   22  C   UNL     1     -41.094  54.608 -53.049  1.00  0.00    -0.044 A 
HETATM   23  C   UNL     1     -40.983  53.573 -53.996  1.00  0.00     0.020 A 
HETATM   24  C   UNL     1     -40.494  52.304 -53.644  1.00  0.00    -0.025 A 
HETATM   25  C   UNL     1     -40.089  52.062 -52.313  1.00  0.00    -0.026 A 
HETATM   26  C   UNL     1     -40.401  51.268 -54.588  1.00  0.00     0.012 A 
HETATM   27  C   UNL     1     -40.196  53.093 -51.369  1.00  0.00     0.013 A 
HETATM   28  C   UNL     1     -39.592  50.795 -51.965  1.00  0.00     0.012 A 
HETATM   29  C   UNL     1     -40.700  54.346 -51.730  1.00  0.00     0.009 A 
HETATM   30  C   UNL     1     -39.504  49.777 -52.915  1.00  0.00     0.001 A 
HETATM   31  C   UNL     1     -39.910  50.013 -54.225  1.00  0.00     0.001 A 
ENDBRANCH  20  22
ENDBRANCH   1  20
TORSDOF 4
ENDMDL
MODEL 2
REMARK VINA RESULT:      -9.7      1.594      1.671
REMARK  4 active torsions:
REMARK  status: ('A' for Active; 'I' for Inactive)
REMARK    1  A    between atoms: C_2  and  C_3 
REMARK    2  A    between atoms: C_2  and  C_19 
REMARK       I    between atoms: C_3  and  N_4 
REMARK    3  A    between atoms: N_4  and  C_5 
REMARK    4  A    between atoms: C_12  and  C_13 
REMARK       I    between atoms: C_13  and  N_14 
ROOT
HETATM    1  C   UNL     1     -41.596  56.527 -53.788  1.00  0.00     0.230 C 
HETATM    2  N   UNL     1     -42.684  56.505 -54.642  1.00  0.00    -0.327 N 
HETATM    3  O   UNL     1     -40.490  56.989 -54.062  1.00  0.00    -0.272 OA
HETATM    4  H   UNL     1     -43.587  56.329 -54.220  1.00  0.00     0.169 HD
ENDROOT
BRANCH   2   5
HETATM    5  C   UNL     1     -42.704  56.820 -56.017  1.00  0.00     0.035 A 
HETATM    6  C   UNL     1     -43.210  55.960 -57.000  1.00  0.00     0.046 A 
HETATM    7  C   UNL     1     -43.250  56.388 -58.346  1.00  0.00     0.030 A 
HETATM    8  C   UNL     1     -42.765  57.651 -58.662  1.00  0.00     0.063 A 
HETATM    9  C   UNL     1     -43.703  55.846 -59.587  1.00  0.00     0.156 A 
HETATM   10  N   UNL     1     -42.927  57.775 -60.013  1.00  0.00    -0.277 N 
HETATM   11  C   UNL     1     -42.247  58.530 -57.709  1.00  0.00     0.034 A 
HETATM   12  H   UNL     1     -42.678  58.570 -60.591  1.00  0.00     0.189 HD
HETATM   13  N   UNL     1     -43.495  56.712 -60.606  1.00  0.00    -0.168 NA
HETATM   14  C   UNL     1     -42.237  58.091 -56.380  1.00  0.00     0.032 A 
BRANCH   9  15
HETATM   15  C   UNL     1     -44.340  54.541 -59.817  1.00  0.00     0.270 C 
HETATM   16  N   UNL     1     -44.890  54.401 -61.062  1.00  0.00    -0.365 N 
HETATM   17  H   UNL     1     -44.834  55.181 -61.708  1.00  0.00     0.159 HD
HETATM   18  H   UNL     1     -45.364  53.547 -61.305  1.00  0.00     0.159 HD
HETATM   19  O   UNL     1     -44.402  53.637 -58.991  1.00  0.00    -0.266 OA
ENDBRANCH   9  15
ENDBRANCH   2   5
BRANCH   1  20
HETATM   20  C   UNL     1     -41.808  55.810 -52.444  1.00  0.00     0.107 C 
HETATM   21  C   UNL     1     -41.397  56.767 -51.322  1.00  0.00     0.025 C 
BRANCH  20  22
HETATM   22  C   UNL     1     -41.164  54.432 -52.352  1.00  0.00    -0.044 A 
HETATM   23  C   UNL     1     -41.107  53.547 -53.444  1.00  0.00     0.020 A 
HETATM   24  C   UNL     1     -40.538  52.267 -53.324  1.00  0.00    -0.025 A 
HETATM   25  C   UNL     1     -39.999  51.862 -52.084  1.00  0.00    -0.026 A 
HETATM   26  C   UNL     1     -40.497  51.380 -54.413  1.00  0.00     0.012 A 
HETATM   27  C   UNL     1     -40.053  52.744 -50.995  1.00  0.00     0.013 A 
HETATM   28  C   UNL     1     -39.423  50.586 -51.968  1.00  0.00     0.012 A 
HETATM   29  C   UNL     1     -40.636  54.007 -51.125  1.00  0.00     0.009 A 
HETATM   30  C   UNL     1     -39.388  49.717 -53.060  1.00  0.00     0.001 A 
HETATM   31  C   UNL     1     -39.927  50.113 -54.280  1.00  0.00     0.001 A 
ENDBRANCH  20  22
ENDBRANCH   1  20
TORSDOF 4
ENDMDL
MODEL 3
REMARK VINA RESULT:      -9.3      2.888      4.466
REMARK  4 active torsions:
REMARK  status: ('A' for Active; 'I' for Inactive)
REMARK    1  A    between atoms: C_2  and  C_3 
REMARK    2  A    between atoms: C_2  and  C_19 
REMARK       I    between atoms: C_3  and  N_4 
REMARK    3  A    between atoms: N_4  and  C_5 
REMARK    4  A    between atoms: C_12  and  C_13 
REMARK       I    between atoms: C_13  and  N_14 
ROOT
HETATM    1  C   UNL     1     -41.566  55.054 -49.884  1.00  0.00     0.230 C 
HETATM    2  N   UNL     1     -42.806  54.985 -50.493  1.00  0.00    -0.327 N 
HETATM    3  O   UNL     1     -40.813  56.025 -49.918  1.00  0.00    -0.272 OA
HETATM    4  H   UNL     1     -43.420  54.242 -50.186  1.00  0.00     0.169 HD
ENDROOT
BRANCH   2   5
HETATM    5  C   UNL     1     -43.367  55.902 -51.405  1.00  0.00     0.035 A 
HETATM    6  C   UNL     1     -43.102  55.885 -52.781  1.00  0.00     0.046 A 
HETATM    7  C   UNL     1     -43.762  56.802 -53.629  1.00  0.00     0.030 A 
HETATM    8  C   UNL     1     -44.647  57.715 -53.069  1.00  0.00     0.063 A 
HETATM    9  C   UNL     1     -43.791  57.072 -55.031  1.00  0.00     0.156 A 
HETATM   10  N   UNL     1     -45.113  58.458 -54.117  1.00  0.00    -0.277 N 
HETATM   11  C   UNL     1     -44.929  57.766 -51.703  1.00  0.00     0.034 A 
HETATM   12  H   UNL     1     -45.777  59.224 -54.079  1.00  0.00     0.189 HD
HETATM   13  N   UNL     1     -44.627  58.098 -55.316  1.00  0.00    -0.168 NA
HETATM   14  C   UNL     1     -44.277  56.833 -50.886  1.00  0.00     0.032 A 
BRANCH   9  15
HETATM   15  C   UNL     1     -43.061  56.370 -56.095  1.00  0.00     0.270 C 
HETATM   16  N   UNL     1     -43.420  55.058 -56.246  1.00  0.00    -0.365 N 
HETATM   17  H   UNL     1     -44.128  54.675 -55.629  1.00  0.00     0.159 HD
HETATM   18  H   UNL     1     -42.960  54.491 -56.939  1.00  0.00     0.159 HD
HETATM   19  O   UNL     1     -42.193  56.874 -56.800  1.00  0.00    -0.266 OA
ENDBRANCH   9  15
ENDBRANCH   2   5
BRANCH   1  20
HETATM   20  C   UNL     1     -41.095  53.752 -49.215  1.00  0.00     0.107 C 
HETATM   21  C   UNL     1     -40.045  54.109 -48.158  1.00  0.00     0.025 C 
BRANCH  20  22
HETATM   22  C   UNL     1     -40.654  52.663 -50.185  1.00  0.00    -0.044 A 
HETATM   23  C   UNL     1     -40.517  52.889 -51.567  1.00  0.00     0.020 A 
HETATM   24  C   UNL     1     -40.142  51.859 -52.446  1.00  0.00    -0.025 A 
HETATM   25  C   UNL     1     -39.882  50.570 -51.933  1.00  0.00    -0.026 A 
HETATM   26  C   UNL     1     -40.021  52.084 -53.828  1.00  0.00     0.012 A 
HETATM   27  C   UNL     1     -40.015  50.344 -50.556  1.00  0.00     0.013 A 
HETATM   28  C   UNL     1     -39.498  49.544 -52.812  1.00  0.00     0.012 A 
HETATM   29  C   UNL     1     -40.406  51.373 -49.695  1.00  0.00     0.009 A 
HETATM   30  C   UNL     1     -39.381  49.784 -54.182  1.00  0.00     0.001 A 
HETATM   31  C   UNL     1     -39.645  51.053 -54.690  1.00  0.00     0.001 A 
ENDBRANCH  20  22
ENDBRANCH   1  20
TORSDOF 4
ENDMDL
MODEL 4
REMARK VINA RESULT:      -9.2      2.498      3.317
REMARK  4 active torsions:
REMARK  status: ('A' for Active; 'I' for Inactive)
REMARK    1  A    between atoms: C_2  and  C_3 
REMARK    2  A    between atoms: C_2  and  C_19 
REMARK       I    between atoms: C_3  and  N_4 
REMARK    3  A    between atoms: N_4  and  C_5 
REMARK    4  A    between atoms: C_12  and  C_13 
REMARK       I    between atoms: C_13  and  N_14 
ROOT
HETATM    1  C   UNL     1     -41.601  56.553 -53.815  1.00  0.00     0.230 C 
HETATM    2  N   UNL     1     -42.694  56.471 -54.659  1.00  0.00    -0.327 N 
HETATM    3  O   UNL     1     -40.508  57.030 -54.116  1.00  0.00    -0.272 OA
HETATM    4  H   UNL     1     -43.589  56.292 -54.224  1.00  0.00     0.169 HD
ENDROOT
BRANCH   2   5
HETATM    5  C   UNL     1     -42.730  56.729 -56.045  1.00  0.00     0.035 A 
HETATM    6  C   UNL     1     -42.421  57.974 -56.609  1.00  0.00     0.046 A 
HETATM    7  C   UNL     1     -42.420  58.122 -58.013  1.00  0.00     0.030 A 
HETATM    8  C   UNL     1     -42.747  57.026 -58.803  1.00  0.00     0.063 A 
HETATM    9  C   UNL     1     -42.137  59.172 -58.939  1.00  0.00     0.156 A 
HETATM   10  N   UNL     1     -42.667  57.471 -60.092  1.00  0.00    -0.277 N 
HETATM   11  C   UNL     1     -43.067  55.774 -58.275  1.00  0.00     0.034 A 
HETATM   12  H   UNL     1     -42.845  56.939 -60.937  1.00  0.00     0.189 HD
HETATM   13  N   UNL     1     -42.297  58.755 -60.217  1.00  0.00    -0.168 NA
HETATM   14  C   UNL     1     -43.042  55.648 -56.881  1.00  0.00     0.032 A 
BRANCH   9  15
HETATM   15  C   UNL     1     -41.706  60.544 -58.635  1.00  0.00     0.270 C 
HETATM   16  N   UNL     1     -42.173  61.482 -59.515  1.00  0.00    -0.365 N 
HETATM   17  H   UNL     1     -42.749  61.176 -60.291  1.00  0.00     0.159 HD
HETATM   18  H   UNL     1     -41.915  62.449 -59.398  1.00  0.00     0.159 HD
HETATM   19  O   UNL     1     -40.986  60.860 -57.695  1.00  0.00    -0.266 OA
ENDBRANCH   9  15
ENDBRANCH   2   5
BRANCH   1  20
HETATM   20  C   UNL     1     -41.786  55.887 -52.442  1.00  0.00     0.107 C 
HETATM   21  C   UNL     1     -41.329  56.875 -51.365  1.00  0.00     0.025 C 
BRANCH  20  22
HETATM   22  C   UNL     1     -41.164  54.501 -52.319  1.00  0.00    -0.044 A 
HETATM   23  C   UNL     1     -41.082  53.608 -53.402  1.00  0.00     0.020 A 
HETATM   24  C   UNL     1     -40.534  52.322 -53.255  1.00  0.00    -0.025 A 
HETATM   25  C   UNL     1     -40.039  51.920 -51.996  1.00  0.00    -0.026 A 
HETATM   26  C   UNL     1     -40.469  51.427 -54.335  1.00  0.00     0.012 A 
HETATM   27  C   UNL     1     -40.117  52.811 -50.915  1.00  0.00     0.013 A 
HETATM   28  C   UNL     1     -39.483  50.638 -51.852  1.00  0.00     0.012 A 
HETATM   29  C   UNL     1     -40.680  54.080 -51.072  1.00  0.00     0.009 A 
HETATM   30  C   UNL     1     -39.425  49.761 -52.936  1.00  0.00     0.001 A 
HETATM   31  C   UNL     1     -39.919  50.154 -54.176  1.00  0.00     0.001 A 
ENDBRANCH  20  22
ENDBRANCH   1  20
TORSDOF 4
ENDMDL
MODEL 5
REMARK VINA RESULT:      -9.2      3.564      5.557
REMARK  4 active torsions:
REMARK  status: ('A' for Active; 'I' for Inactive)
REMARK    1  A    between atoms: C_2  and  C_3 
REMARK    2  A    between atoms: C_2  and  C_19 
REMARK       I    between atoms: C_3  and  N_4 
REMARK    3  A    between atoms: N_4  and  C_5 
REMARK    4  A    between atoms: C_12  and  C_13 
REMARK       I    between atoms: C_13  and  N_14 
ROOT
HETATM    1  C   UNL     1     -41.799  56.613 -54.322  1.00  0.00     0.230 C 
HETATM    2  N   UNL     1     -43.182  56.635 -54.318  1.00  0.00    -0.327 N 
HETATM    3  O   UNL     1     -41.074  57.527 -53.932  1.00  0.00    -0.272 OA
HETATM    4  H   UNL     1     -43.649  55.744 -54.426  1.00  0.00     0.169 HD
ENDROOT
BRANCH   2   5
HETATM    5  C   UNL     1     -44.023  57.736 -54.057  1.00  0.00     0.035 A 
HETATM    6  C   UNL     1     -44.361  58.163 -52.766  1.00  0.00     0.046 A 
HETATM    7  C   UNL     1     -45.157  59.319 -52.601  1.00  0.00     0.030 A 
HETATM    8  C   UNL     1     -45.601  59.994 -53.731  1.00  0.00     0.063 A 
HETATM    9  C   UNL     1     -45.670  60.068 -51.498  1.00  0.00     0.156 A 
HETATM   10  N   UNL     1     -46.338  61.044 -53.261  1.00  0.00    -0.277 N 
HETATM   11  C   UNL     1     -45.288  59.593 -55.032  1.00  0.00     0.034 A 
HETATM   12  H   UNL     1     -46.819  61.750 -53.807  1.00  0.00     0.189 HD
HETATM   13  N   UNL     1     -46.398  61.127 -51.922  1.00  0.00    -0.168 NA
HETATM   14  C   UNL     1     -44.482  58.457 -55.168  1.00  0.00     0.032 A 
BRANCH   9  15
HETATM   15  C   UNL     1     -45.468  59.808 -50.066  1.00  0.00     0.270 C 
HETATM   16  N   UNL     1     -44.430  60.508 -49.513  1.00  0.00    -0.365 N 
HETATM   17  H   UNL     1     -43.886  61.121 -50.110  1.00  0.00     0.159 HD
HETATM   18  H   UNL     1     -44.204  60.381 -48.540  1.00  0.00     0.159 HD
HETATM   19  O   UNL     1     -46.140  59.034 -49.393  1.00  0.00    -0.266 OA
ENDBRANCH   9  15
ENDBRANCH   2   5
BRANCH   1  20
HETATM   20  C   UNL     1     -41.169  55.370 -54.972  1.00  0.00     0.107 C 
HETATM   21  C   UNL     1     -42.086  54.905 -56.106  1.00  0.00     0.025 C 
BRANCH  20  22
HETATM   22  C   UNL     1     -40.785  54.266 -53.992  1.00  0.00    -0.044 A 
HETATM   23  C   UNL     1     -40.484  52.956 -54.406  1.00  0.00     0.020 A 
HETATM   24  C   UNL     1     -40.166  51.948 -53.480  1.00  0.00    -0.025 A 
HETATM   25  C   UNL     1     -40.133  52.257 -52.103  1.00  0.00    -0.026 A 
HETATM   26  C   UNL     1     -39.881  50.637 -53.896  1.00  0.00     0.012 A 
HETATM   27  C   UNL     1     -40.430  53.563 -51.689  1.00  0.00     0.013 A 
HETATM   28  C   UNL     1     -39.806  51.250 -51.180  1.00  0.00     0.012 A 
HETATM   29  C   UNL     1     -40.761  54.552 -52.620  1.00  0.00     0.009 A 
HETATM   30  C   UNL     1     -39.524  49.953 -51.609  1.00  0.00     0.001 A 
HETATM   31  C   UNL     1     -39.564  49.645 -52.966  1.00  0.00     0.001 A 
ENDBRANCH  20  22
ENDBRANCH   1  20
TORSDOF 4
ENDMDL
MODEL 6
REMARK VINA RESULT:      -8.7      1.656      2.186
REMARK  4 active torsions:
REMARK  status: ('A' for Active; 'I' for Inactive)
REMARK    1  A    between atoms: C_2  and  C_3 
REMARK    2  A    between atoms: C_2  and  C_19 
REMARK       I    between atoms: C_3  and  N_4 
REMARK    3  A    between atoms: N_4  and  C_5 
REMARK    4  A    between atoms: C_12  and  C_13 
REMARK       I    between atoms: C_13  and  N_14 
ROOT
HETATM    1  C   UNL     1     -42.413  57.329 -53.562  1.00  0.00     0.230 C 
HETATM    2  N   UNL     1     -43.646  57.182 -54.173  1.00  0.00    -0.327 N 
HETATM    3  O   UNL     1     -41.531  58.106 -53.924  1.00  0.00    -0.272 OA
HETATM    4  H   UNL     1     -44.360  56.703 -53.641  1.00  0.00     0.169 HD
ENDROOT
BRANCH   2   5
HETATM    5  C   UNL     1     -44.065  57.728 -55.404  1.00  0.00     0.035 A 
HETATM    6  C   UNL     1     -43.639  57.247 -56.649  1.00  0.00     0.046 A 
HETATM    7  C   UNL     1     -44.164  57.814 -57.831  1.00  0.00     0.030 A 
HETATM    8  C   UNL     1     -45.081  58.854 -57.727  1.00  0.00     0.063 A 
HETATM    9  C   UNL     1     -44.018  57.592 -59.234  1.00  0.00     0.156 A 
HETATM   10  N   UNL     1     -45.395  59.191 -59.012  1.00  0.00    -0.277 N 
HETATM   11  C   UNL     1     -45.521  59.362 -56.503  1.00  0.00     0.034 A 
HETATM   12  H   UNL     1     -46.035  59.916 -59.318  1.00  0.00     0.189 HD
HETATM   13  N   UNL     1     -44.782  58.450 -59.950  1.00  0.00    -0.168 NA
HETATM   14  C   UNL     1     -45.001  58.770 -55.346  1.00  0.00     0.032 A 
BRANCH   9  15
HETATM   15  C   UNL     1     -43.188  56.578 -59.900  1.00  0.00     0.270 C 
HETATM   16  N   UNL     1     -41.845  56.837 -59.852  1.00  0.00    -0.365 N 
HETATM   17  H   UNL     1     -41.531  57.683 -59.390  1.00  0.00     0.159 HD
HETATM   18  H   UNL     1     -41.199  56.207 -60.297  1.00  0.00     0.159 HD
HETATM   19  O   UNL     1     -43.621  55.581 -60.468  1.00  0.00    -0.266 OA
ENDBRANCH   9  15
ENDBRANCH   2   5
BRANCH   1  20
HETATM   20  C   UNL     1     -42.135  56.348 -52.412  1.00  0.00     0.107 C 
HETATM   21  C   UNL     1     -41.229  57.048 -51.394  1.00  0.00     0.025 C 
BRANCH  20  22
HETATM   22  C   UNL     1     -41.631  54.979 -52.853  1.00  0.00    -0.044 A 
HETATM   23  C   UNL     1     -41.015  54.076 -51.967  1.00  0.00     0.020 A 
HETATM   24  C   UNL     1     -40.528  52.833 -52.406  1.00  0.00    -0.025 A 
HETATM   25  C   UNL     1     -40.671  52.472 -53.763  1.00  0.00    -0.026 A 
HETATM   26  C   UNL     1     -39.899  51.940 -51.522  1.00  0.00     0.012 A 
HETATM   27  C   UNL     1     -41.288  53.370 -54.647  1.00  0.00     0.013 A 
HETATM   28  C   UNL     1     -40.192  51.225 -54.198  1.00  0.00     0.012 A 
HETATM   29  C   UNL     1     -41.752  54.610 -54.200  1.00  0.00     0.009 A 
HETATM   30  C   UNL     1     -39.571  50.349 -53.307  1.00  0.00     0.001 A 
HETATM   31  C   UNL     1     -39.422  50.707 -51.970  1.00  0.00     0.001 A 
ENDBRANCH  20  22
ENDBRANCH   1  20
TORSDOF 4
ENDMDL
MODEL 7
REMARK VINA RESULT:      -8.7      3.867      6.050
REMARK  4 active torsions:
REMARK  status: ('A' for Active; 'I' for Inactive)
REMARK    1  A    between atoms: C_2  and  C_3 
REMARK    2  A    between atoms: C_2  and  C_19 
REMARK       I    between atoms: C_3  and  N_4 
REMARK    3  A    between atoms: N_4  and  C_5 
REMARK    4  A    between atoms: C_12  and  C_13 
REMARK       I    between atoms: C_13  and  N_14 
ROOT
HETATM    1  C   UNL     1     -42.029  56.457 -54.269  1.00  0.00     0.230 C 
HETATM    2  N   UNL     1     -41.231  57.515 -53.870  1.00  0.00    -0.327 N 
HETATM    3  O   UNL     1     -43.233  56.352 -54.043  1.00  0.00    -0.272 OA
HETATM    4  H   UNL     1     -40.332  57.600 -54.326  1.00  0.00     0.169 HD
ENDROOT
BRANCH   2   5
HETATM    5  C   UNL     1     -41.572  58.563 -52.991  1.00  0.00     0.035 A 
HETATM    6  C   UNL     1     -42.122  59.780 -53.414  1.00  0.00     0.046 A 
HETATM    7  C   UNL     1     -42.493  60.747 -52.454  1.00  0.00     0.030 A 
HETATM    8  C   UNL     1     -42.284  60.471 -51.108  1.00  0.00     0.063 A 
HETATM    9  C   UNL     1     -43.093  62.043 -52.475  1.00  0.00     0.156 A 
HETATM   10  N   UNL     1     -42.728  61.575 -50.438  1.00  0.00    -0.277 N 
HETATM   11  C   UNL     1     -41.732  59.272 -50.652  1.00  0.00     0.034 A 
HETATM   12  H   UNL     1     -42.725  61.727 -49.435  1.00  0.00     0.189 HD
HETATM   13  N   UNL     1     -43.229  62.542 -51.224  1.00  0.00    -0.168 NA
HETATM   14  C   UNL     1     -41.390  58.322 -51.622  1.00  0.00     0.032 A 
BRANCH   9  15
HETATM   15  C   UNL     1     -43.551  62.801 -53.649  1.00  0.00     0.270 C 
HETATM   16  N   UNL     1     -42.682  63.778 -54.054  1.00  0.00    -0.365 N 
HETATM   17  H   UNL     1     -41.826  63.914 -53.530  1.00  0.00     0.159 HD
HETATM   18  H   UNL     1     -42.919  64.361 -54.840  1.00  0.00     0.159 HD
HETATM   19  O   UNL     1     -44.611  62.613 -54.234  1.00  0.00    -0.266 OA
ENDBRANCH   9  15
ENDBRANCH   2   5
BRANCH   1  20
HETATM   20  C   UNL     1     -41.282  55.299 -54.952  1.00  0.00     0.107 C 
HETATM   21  C   UNL     1     -42.118  54.829 -56.146  1.00  0.00     0.025 C 
BRANCH  20  22
HETATM   22  C   UNL     1     -40.854  54.177 -54.013  1.00  0.00    -0.044 A 
HETATM   23  C   UNL     1     -40.576  52.874 -54.465  1.00  0.00     0.020 A 
HETATM   24  C   UNL     1     -40.217  51.848 -53.574  1.00  0.00    -0.025 A 
HETATM   25  C   UNL     1     -40.117  52.132 -52.195  1.00  0.00    -0.026 A 
HETATM   26  C   UNL     1     -39.955  50.545 -54.027  1.00  0.00     0.012 A 
HETATM   27  C   UNL     1     -40.390  53.431 -51.743  1.00  0.00     0.013 A 
HETATM   28  C   UNL     1     -39.748  51.108 -51.307  1.00  0.00     0.012 A 
HETATM   29  C   UNL     1     -40.764  54.437 -52.638  1.00  0.00     0.009 A 
HETATM   30  C   UNL     1     -39.491  49.818 -51.773  1.00  0.00     0.001 A 
HETATM   31  C   UNL     1     -39.596  49.536 -53.131  1.00  0.00     0.001 A 
ENDBRANCH  20  22
ENDBRANCH   1  20
TORSDOF 4
ENDMDL
MODEL 8
REMARK VINA RESULT:      -8.6      2.056      2.853
REMARK  4 active torsions:
REMARK  status: ('A' for Active; 'I' for Inactive)
REMARK    1  A    between atoms: C_2  and  C_3 
REMARK    2  A    between atoms: C_2  and  C_19 
REMARK       I    between atoms: C_3  and  N_4 
REMARK    3  A    between atoms: N_4  and  C_5 
REMARK    4  A    between atoms: C_12  and  C_13 
REMARK       I    between atoms: C_13  and  N_14 
ROOT
HETATM    1  C   UNL     1     -41.919  56.592 -53.367  1.00  0.00     0.230 C 
HETATM    2  N   UNL     1     -43.146  56.389 -53.973  1.00  0.00    -0.327 N 
HETATM    3  O   UNL     1     -40.965  57.178 -53.875  1.00  0.00    -0.272 OA
HETATM    4  H   UNL     1     -43.910  56.120 -53.368  1.00  0.00     0.169 HD
ENDROOT
BRANCH   2   5
HETATM    5  C   UNL     1     -43.489  56.633 -55.319  1.00  0.00     0.035 A 
HETATM    6  C   UNL     1     -44.444  57.579 -55.715  1.00  0.00     0.046 A 
HETATM    7  C   UNL     1     -44.674  57.801 -57.091  1.00  0.00     0.030 A 
HETATM    8  C   UNL     1     -43.958  57.057 -58.020  1.00  0.00     0.063 A 
HETATM    9  C   UNL     1     -45.502  58.666 -57.870  1.00  0.00     0.156 A 
HETATM   10  N   UNL     1     -44.395  57.483 -59.242  1.00  0.00    -0.277 N 
HETATM   11  C   UNL     1     -43.005  56.102 -57.660  1.00  0.00     0.034 A 
HETATM   12  H   UNL     1     -44.092  57.154 -60.152  1.00  0.00     0.189 HD
HETATM   13  N   UNL     1     -45.320  58.456 -59.195  1.00  0.00    -0.168 NA
HETATM   14  C   UNL     1     -42.780  55.914 -56.291  1.00  0.00     0.032 A 
BRANCH   9  15
HETATM   15  C   UNL     1     -46.440  59.688 -57.385  1.00  0.00     0.270 C 
HETATM   16  N   UNL     1     -46.030  60.323 -56.243  1.00  0.00    -0.365 N 
HETATM   17  H   UNL     1     -45.151  60.045 -55.823  1.00  0.00     0.159 HD
HETATM   18  H   UNL     1     -46.616  61.027 -55.826  1.00  0.00     0.159 HD
HETATM   19  O   UNL     1     -47.507  59.970 -57.918  1.00  0.00    -0.266 OA
ENDBRANCH   9  15
ENDBRANCH   2   5
BRANCH   1  20
HETATM   20  C   UNL     1     -41.751  55.919 -51.994  1.00  0.00     0.107 C 
HETATM   21  C   UNL     1     -41.031  56.901 -51.065  1.00  0.00     0.025 C 
BRANCH  20  22
HETATM   22  C   UNL     1     -41.122  54.531 -52.039  1.00  0.00    -0.044 A 
HETATM   23  C   UNL     1     -41.102  53.746 -53.206  1.00  0.00     0.020 A 
HETATM   24  C   UNL     1     -40.546  52.455 -53.214  1.00  0.00    -0.025 A 
HETATM   25  C   UNL     1     -39.982  51.937 -52.028  1.00  0.00    -0.026 A 
HETATM   26  C   UNL     1     -40.541  51.668 -54.377  1.00  0.00     0.012 A 
HETATM   27  C   UNL     1     -39.999  52.720 -50.865  1.00  0.00     0.013 A 
HETATM   28  C   UNL     1     -39.418  50.650 -52.039  1.00  0.00     0.012 A 
HETATM   29  C   UNL     1     -40.570  53.995 -50.868  1.00  0.00     0.009 A 
HETATM   30  C   UNL     1     -39.420  49.881 -53.204  1.00  0.00     0.001 A 
HETATM   31  C   UNL     1     -39.983  50.388 -54.371  1.00  0.00     0.001 A 
ENDBRANCH  20  22
ENDBRANCH   1  20
TORSDOF 4
ENDMDL
MODEL 9
REMARK VINA RESULT:      -8.5      3.050      8.839
REMARK  4 active torsions:
REMARK  status: ('A' for Active; 'I' for Inactive)
REMARK    1  A    between atoms: C_2  and  C_3 
REMARK    2  A    between atoms: C_2  and  C_19 
REMARK       I    between atoms: C_3  and  N_4 
REMARK    3  A    between atoms: N_4  and  C_5 
REMARK    4  A    between atoms: C_12  and  C_13 
REMARK       I    between atoms: C_13  and  N_14 
ROOT
HETATM    1  C   UNL     1     -42.595  56.590 -54.924  1.00  0.00     0.230 C 
HETATM    2  N   UNL     1     -41.327  56.236 -54.499  1.00  0.00    -0.327 N 
HETATM    3  O   UNL     1     -43.640  56.058 -54.554  1.00  0.00    -0.272 OA
HETATM    4  H   UNL     1     -40.587  56.901 -54.682  1.00  0.00     0.169 HD
ENDROOT
BRANCH   2   5
HETATM    5  C   UNL     1     -40.961  55.112 -53.730  1.00  0.00     0.035 A 
HETATM    6  C   UNL     1     -40.951  55.103 -52.328  1.00  0.00     0.046 A 
HETATM    7  C   UNL     1     -40.635  53.910 -51.642  1.00  0.00     0.030 A 
HETATM    8  C   UNL     1     -40.321  52.775 -52.380  1.00  0.00     0.063 A 
HETATM    9  C   UNL     1     -40.553  53.497 -50.277  1.00  0.00     0.156 A 
HETATM   10  N   UNL     1     -40.060  51.803 -51.457  1.00  0.00    -0.277 N 
HETATM   11  C   UNL     1     -40.315  52.750 -53.776  1.00  0.00     0.034 A 
HETATM   12  H   UNL     1     -39.792  50.841 -51.637  1.00  0.00     0.189 HD
HETATM   13  N   UNL     1     -40.194  52.195 -50.180  1.00  0.00    -0.168 NA
HETATM   14  C   UNL     1     -40.651  53.940 -54.433  1.00  0.00     0.032 A 
BRANCH   9  15
HETATM   15  C   UNL     1     -40.822  54.303 -49.078  1.00  0.00     0.270 C 
HETATM   16  N   UNL     1     -40.502  53.678 -47.903  1.00  0.00    -0.365 N 
HETATM   17  H   UNL     1     -40.128  52.737 -47.941  1.00  0.00     0.159 HD
HETATM   18  H   UNL     1     -40.668  54.146 -47.028  1.00  0.00     0.159 HD
HETATM   19  O   UNL     1     -41.300  55.431 -49.086  1.00  0.00    -0.266 OA
ENDBRANCH   9  15
ENDBRANCH   2   5
BRANCH   1  20
HETATM   20  C   UNL     1     -42.638  57.664 -56.023  1.00  0.00     0.107 C 
HETATM   21  C   UNL     1     -42.758  59.034 -55.349  1.00  0.00     0.025 C 
BRANCH  20  22
HETATM   22  C   UNL     1     -43.672  57.416 -57.114  1.00  0.00    -0.044 A 
HETATM   23  C   UNL     1     -43.484  56.466 -58.136  1.00  0.00     0.020 A 
HETATM   24  C   UNL     1     -44.439  56.280 -59.150  1.00  0.00    -0.025 A 
HETATM   25  C   UNL     1     -45.622  57.050 -59.139  1.00  0.00    -0.026 A 
HETATM   26  C   UNL     1     -44.240  55.343 -60.177  1.00  0.00     0.012 A 
HETATM   27  C   UNL     1     -45.812  57.995 -58.120  1.00  0.00     0.013 A 
HETATM   28  C   UNL     1     -46.579  56.856 -60.149  1.00  0.00     0.012 A 
HETATM   29  C   UNL     1     -44.846  58.182 -57.127  1.00  0.00     0.009 A 
HETATM   30  C   UNL     1     -46.367  55.920 -61.162  1.00  0.00     0.001 A 
HETATM   31  C   UNL     1     -45.198  55.165 -61.177  1.00  0.00     0.001 A 
ENDBRANCH  20  22
ENDBRANCH   1  20
TORSDOF 4
ENDMDL
MODEL 10
REMARK VINA RESULT:      -8.2      5.440      7.440
REMARK  4 active torsions:
REMARK  status: ('A' for Active; 'I' for Inactive)
REMARK    1  A    between atoms: C_2  and  C_3 
REMARK    2  A    between atoms: C_2  and  C_19 
REMARK       I    between atoms: C_3  and  N_4 
REMARK    3  A    between atoms: N_4  and  C_5 
REMARK    4  A    between atoms: C_12  and  C_13 
REMARK       I    between atoms: C_13  and  N_14 
ROOT
HETATM    1  C   UNL     1     -43.105  57.262 -51.027  1.00  0.00     0.230 C 
HETATM    2  N   UNL     1     -43.051  58.622 -51.275  1.00  0.00    -0.327 N 
HETATM    3  O   UNL     1     -44.134  56.591 -50.977  1.00  0.00    -0.272 OA
HETATM    4  H   UNL     1     -42.149  58.999 -51.534  1.00  0.00     0.169 HD
ENDROOT
BRANCH   2   5
HETATM    5  C   UNL     1     -44.129  59.529 -51.329  1.00  0.00     0.035 A 
HETATM    6  C   UNL     1     -44.511  60.342 -50.254  1.00  0.00     0.046 A 
HETATM    7  C   UNL     1     -45.564  61.269 -50.422  1.00  0.00     0.030 A 
HETATM    8  C   UNL     1     -46.209  61.336 -51.651  1.00  0.00     0.063 A 
HETATM    9  C   UNL     1     -46.203  62.260 -49.616  1.00  0.00     0.156 A 
HETATM   10  N   UNL     1     -47.166  62.300 -51.507  1.00  0.00    -0.277 N 
HETATM   11  C   UNL     1     -45.859  60.536 -52.741  1.00  0.00     0.034 A 
HETATM   12  H   UNL     1     -47.831  62.614 -52.205  1.00  0.00     0.189 HD
HETATM   13  N   UNL     1     -47.190  62.886 -50.299  1.00  0.00    -0.168 NA
HETATM   14  C   UNL     1     -44.800  59.639 -52.555  1.00  0.00     0.032 A 
BRANCH   9  15
HETATM   15  C   UNL     1     -45.884  62.632 -48.230  1.00  0.00     0.270 C 
HETATM   16  N   UNL     1     -46.387  61.770 -47.293  1.00  0.00    -0.365 N 
HETATM   17  H   UNL     1     -46.933  60.976 -47.607  1.00  0.00     0.159 HD
HETATM   18  H   UNL     1     -46.235  61.953 -46.315  1.00  0.00     0.159 HD
HETATM   19  O   UNL     1     -45.239  63.620 -47.901  1.00  0.00    -0.266 OA
ENDBRANCH   9  15
ENDBRANCH   2   5
BRANCH   1  20
HETATM   20  C   UNL     1     -41.755  56.606 -50.692  1.00  0.00     0.107 C 
HETATM   21  C   UNL     1     -40.703  57.713 -50.568  1.00  0.00     0.025 C 
BRANCH  20  22
HETATM   22  C   UNL     1     -41.353  55.468 -51.622  1.00  0.00    -0.044 A 
HETATM   23  C   UNL     1     -40.822  54.254 -51.150  1.00  0.00     0.020 A 
HETATM   24  C   UNL     1     -40.427  53.232 -52.031  1.00  0.00    -0.025 A 
HETATM   25  C   UNL     1     -40.579  53.419 -53.421  1.00  0.00    -0.026 A 
HETATM   26  C   UNL     1     -39.883  52.028 -51.556  1.00  0.00     0.012 A 
HETATM   27  C   UNL     1     -41.111  54.628 -53.894  1.00  0.00     0.013 A 
HETATM   28  C   UNL     1     -40.193  52.394 -54.300  1.00  0.00     0.012 A 
HETATM   29  C   UNL     1     -41.484  55.642 -53.007  1.00  0.00     0.009 A 
HETATM   30  C   UNL     1     -39.654  51.202 -53.812  1.00  0.00     0.001 A 
HETATM   31  C   UNL     1     -39.498  51.020 -52.441  1.00  0.00     0.001 A 
ENDBRANCH  20  22
ENDBRANCH   1  20
TORSDOF 4
ENDMDL
