MODEL 1
REMARK VINA RESULT:      -8.1      0.000      0.000
REMARK  5 active torsions:
REMARK  status: ('A' for Active; 'I' for Inactive)
REMARK    1  A    between atoms: C_8  and  C_9 
REMARK    2  A    between atoms: N_10  and  N_11 
REMARK       I    between atoms: N_11  and  C_12 
REMARK    3  A    between atoms: C_12  and  C_13 
REMARK    4  A    between atoms: C_13  and  O_14 
REMARK    5  A    between atoms: O_14  and  C_15 
ROOT
HETATM    1  N   UNL     1     -41.613  56.522 -54.890  1.00  0.00    -0.246 N 
HETATM    2  C   UNL     1     -42.729  57.348 -54.829  1.00  0.00     0.261 C 
HETATM    3  O   UNL     1     -43.543  57.408 -53.909  1.00  0.00    -0.269 OA
HETATM    4  H   UNL     1     -40.927  56.737 -55.613  1.00  0.00     0.192 HD
ENDROOT
BRANCH   1   5
HETATM    5  N   UNL     1     -41.139  55.696 -53.899  1.00  0.00    -0.184 NA
HETATM    6  C   UNL     1     -40.995  54.433 -54.141  1.00  0.00     0.152 C 
BRANCH   6   7
HETATM    7  C   UNL     1     -40.543  53.548 -53.085  1.00  0.00     0.011 A 
HETATM    8  C   UNL     1     -40.237  52.154 -53.210  1.00  0.00     0.004 A 
HETATM    9  C   UNL     1     -40.270  51.231 -54.278  1.00  0.00     0.014 A 
HETATM   10  C   UNL     1     -39.842  51.697 -51.951  1.00  0.00     0.043 A 
HETATM   11  C   UNL     1     -39.912  49.898 -54.051  1.00  0.00     0.001 A 
HETATM   12  C   UNL     1     -39.520  49.475 -52.783  1.00  0.00     0.002 A 
HETATM   13  C   UNL     1     -39.476  50.367 -51.708  1.00  0.00     0.030 A 
HETATM   14  N   UNL     1     -39.904  52.771 -51.094  1.00  0.00    -0.364 N 
HETATM   15  H   UNL     1     -39.674  52.733 -50.111  1.00  0.00     0.165 HD
HETATM   16  C   UNL     1     -40.330  53.887 -51.761  1.00  0.00     0.102 A 
ENDBRANCH   6   7
ENDBRANCH   1   5
BRANCH   2  17
HETATM   17  C   UNL     1     -42.927  58.181 -56.094  1.00  0.00     0.280 C 
BRANCH  17  18
HETATM   18  O   UNL     1     -42.130  57.702 -57.173  1.00  0.00    -0.341 OA
BRANCH  18  19
HETATM   19  C   UNL     1     -42.813  57.026 -58.154  1.00  0.00     0.086 A 
HETATM   20  C   UNL     1     -43.070  57.707 -59.355  1.00  0.00     0.045 A 
HETATM   21 BR   UNL     1     -42.514  59.506 -59.607  1.00  0.00    -0.048 Br
HETATM   22  C   UNL     1     -43.761  57.082 -60.396  1.00  0.00     0.046 A 
HETATM   23  C   UNL     1     -44.186  55.766 -60.243  1.00  0.00     0.035 A 
HETATM   24 CL   UNL     1     -45.044  54.989 -61.516  1.00  0.00    -0.084 Cl
HETATM   25  C   UNL     1     -43.917  55.068 -59.067  1.00  0.00     0.026 A 
HETATM   26  C   UNL     1     -43.227  55.696 -58.026  1.00  0.00     0.040 A 
ENDBRANCH  18  19
ENDBRANCH  17  18
ENDBRANCH   2  17
TORSDOF 5
ENDMDL
MODEL 2
REMARK VINA RESULT:      -7.9      2.167      2.732
REMARK  5 active torsions:
REMARK  status: ('A' for Active; 'I' for Inactive)
REMARK    1  A    between atoms: C_8  and  C_9 
REMARK    2  A    between atoms: N_10  and  N_11 
REMARK       I    between atoms: N_11  and  C_12 
REMARK    3  A    between atoms: C_12  and  C_13 
REMARK    4  A    between atoms: C_13  and  O_14 
REMARK    5  A    between atoms: O_14  and  C_15 
ROOT
HETATM    1  N   UNL     1     -41.493  57.325 -53.434  1.00  0.00    -0.246 N 
HETATM    2  C   UNL     1     -40.980  58.615 -53.444  1.00  0.00     0.261 C 
HETATM    3  O   UNL     1     -40.076  59.047 -52.732  1.00  0.00    -0.269 OA
HETATM    4  H   UNL     1     -42.089  57.064 -54.220  1.00  0.00     0.192 HD
ENDROOT
BRANCH   1   5
HETATM    5  N   UNL     1     -41.025  56.252 -52.712  1.00  0.00    -0.184 NA
HETATM    6  C   UNL     1     -41.050  55.071 -53.240  1.00  0.00     0.152 C 
BRANCH   6   7
HETATM    7  C   UNL     1     -40.605  53.929 -52.465  1.00  0.00     0.011 A 
HETATM    8  C   UNL     1     -40.324  52.615 -52.962  1.00  0.00     0.004 A 
HETATM    9  C   UNL     1     -40.382  52.013 -54.238  1.00  0.00     0.014 A 
HETATM   10  C   UNL     1     -39.927  51.833 -51.877  1.00  0.00     0.043 A 
HETATM   11  C   UNL     1     -40.045  50.662 -54.380  1.00  0.00     0.001 A 
HETATM   12  C   UNL     1     -39.650  49.910 -53.277  1.00  0.00     0.002 A 
HETATM   13  C   UNL     1     -39.582  50.482 -52.003  1.00  0.00     0.030 A 
HETATM   14  N   UNL     1     -39.963  52.639 -50.763  1.00  0.00    -0.364 N 
HETATM   15  H   UNL     1     -39.726  52.336 -49.829  1.00  0.00     0.165 HD
HETATM   16  C   UNL     1     -40.376  53.898 -51.102  1.00  0.00     0.102 A 
ENDBRANCH   6   7
ENDBRANCH   1   5
BRANCH   2  17
HETATM   17  C   UNL     1     -41.709  59.541 -54.417  1.00  0.00     0.280 C 
BRANCH  17  18
HETATM   18  O   UNL     1     -42.610  58.824 -55.256  1.00  0.00    -0.341 OA
BRANCH  18  19
HETATM   19  C   UNL     1     -42.413  58.985 -56.604  1.00  0.00     0.086 A 
HETATM   20  C   UNL     1     -42.490  57.840 -57.414  1.00  0.00     0.045 A 
HETATM   21 BR   UNL     1     -42.834  56.127 -56.669  1.00  0.00    -0.048 Br
HETATM   22  C   UNL     1     -42.299  57.928 -58.796  1.00  0.00     0.046 A 
HETATM   23  C   UNL     1     -42.042  59.168 -59.373  1.00  0.00     0.035 A 
HETATM   24 CL   UNL     1     -41.797  59.286 -61.073  1.00  0.00    -0.084 Cl
HETATM   25  C   UNL     1     -41.985  60.317 -58.587  1.00  0.00     0.026 A 
HETATM   26  C   UNL     1     -42.176  60.226 -57.205  1.00  0.00     0.040 A 
ENDBRANCH  18  19
ENDBRANCH  17  18
ENDBRANCH   2  17
TORSDOF 5
ENDMDL
MODEL 3
REMARK VINA RESULT:      -7.9      2.054      2.302
REMARK  5 active torsions:
REMARK  status: ('A' for Active; 'I' for Inactive)
REMARK    1  A    between atoms: C_8  and  C_9 
REMARK    2  A    between atoms: N_10  and  N_11 
REMARK       I    between atoms: N_11  and  C_12 
REMARK    3  A    between atoms: C_12  and  C_13 
REMARK    4  A    between atoms: C_13  and  O_14 
REMARK    5  A    between atoms: O_14  and  C_15 
ROOT
HETATM    1  N   UNL     1     -41.826  55.155 -55.886  1.00  0.00    -0.246 N 
HETATM    2  C   UNL     1     -42.755  56.188 -55.863  1.00  0.00     0.261 C 
HETATM    3  O   UNL     1     -43.587  56.402 -54.984  1.00  0.00    -0.269 OA
HETATM    4  H   UNL     1     -41.074  55.233 -56.570  1.00  0.00     0.192 HD
ENDROOT
BRANCH   1   5
HETATM    5  N   UNL     1     -41.579  54.242 -54.888  1.00  0.00    -0.184 NA
HETATM    6  C   UNL     1     -40.719  54.528 -53.964  1.00  0.00     0.152 C 
BRANCH   6   7
HETATM    7  C   UNL     1     -40.416  53.549 -52.938  1.00  0.00     0.011 A 
HETATM    8  C   UNL     1     -40.123  52.161 -53.140  1.00  0.00     0.004 A 
HETATM    9  C   UNL     1     -40.043  51.328 -54.277  1.00  0.00     0.014 A 
HETATM   10  C   UNL     1     -39.895  51.594 -51.885  1.00  0.00     0.043 A 
HETATM   11  C   UNL     1     -39.740  49.971 -54.120  1.00  0.00     0.001 A 
HETATM   12  C   UNL     1     -39.515  49.437 -52.854  1.00  0.00     0.002 A 
HETATM   13  C   UNL     1     -39.586  50.239 -51.711  1.00  0.00     0.030 A 
HETATM   14  N   UNL     1     -40.041  52.597 -50.956  1.00  0.00    -0.364 N 
HETATM   15  H   UNL     1     -39.934  52.475 -49.959  1.00  0.00     0.165 HD
HETATM   16  C   UNL     1     -40.361  53.775 -51.575  1.00  0.00     0.102 A 
ENDBRANCH   6   7
ENDBRANCH   1   5
BRANCH   2  17
HETATM   17  C   UNL     1     -42.716  57.055 -57.120  1.00  0.00     0.280 C 
BRANCH  17  18
HETATM   18  O   UNL     1     -43.263  56.377 -58.248  1.00  0.00    -0.341 OA
BRANCH  18  19
HETATM   19  C   UNL     1     -44.326  57.001 -58.851  1.00  0.00     0.086 A 
HETATM   20  C   UNL     1     -45.148  56.226 -59.684  1.00  0.00     0.045 A 
HETATM   21 BR   UNL     1     -44.792  54.384 -59.984  1.00  0.00    -0.048 Br
HETATM   22  C   UNL     1     -46.247  56.795 -60.333  1.00  0.00     0.046 A 
HETATM   23  C   UNL     1     -46.535  58.142 -60.138  1.00  0.00     0.035 A 
HETATM   24 CL   UNL     1     -47.882  58.855 -60.938  1.00  0.00    -0.084 Cl
HETATM   25  C   UNL     1     -45.743  58.920 -59.296  1.00  0.00     0.026 A 
HETATM   26  C   UNL     1     -44.643  58.349 -58.649  1.00  0.00     0.040 A 
ENDBRANCH  18  19
ENDBRANCH  17  18
ENDBRANCH   2  17
TORSDOF 5
ENDMDL
MODEL 4
REMARK VINA RESULT:      -7.8      1.856      2.251
REMARK  5 active torsions:
REMARK  status: ('A' for Active; 'I' for Inactive)
REMARK    1  A    between atoms: C_8  and  C_9 
REMARK    2  A    between atoms: N_10  and  N_11 
REMARK       I    between atoms: N_11  and  C_12 
REMARK    3  A    between atoms: C_12  and  C_13 
REMARK    4  A    between atoms: C_13  and  O_14 
REMARK    5  A    between atoms: O_14  and  C_15 
ROOT
HETATM    1  N   UNL     1     -42.672  55.661 -54.688  1.00  0.00    -0.246 N 
HETATM    2  C   UNL     1     -43.626  56.651 -54.495  1.00  0.00     0.261 C 
HETATM    3  O   UNL     1     -44.335  56.798 -53.500  1.00  0.00    -0.269 OA
HETATM    4  H   UNL     1     -42.026  55.795 -55.465  1.00  0.00     0.192 HD
ENDROOT
BRANCH   1   5
HETATM    5  N   UNL     1     -42.253  54.723 -53.772  1.00  0.00    -0.184 NA
HETATM    6  C   UNL     1     -40.986  54.558 -53.567  1.00  0.00     0.152 C 
BRANCH   6   7
HETATM    7  C   UNL     1     -40.537  53.537 -52.640  1.00  0.00     0.011 A 
HETATM    8  C   UNL     1     -40.226  52.175 -52.955  1.00  0.00     0.004 A 
HETATM    9  C   UNL     1     -40.251  51.408 -54.140  1.00  0.00     0.014 A 
HETATM   10  C   UNL     1     -39.837  51.549 -51.769  1.00  0.00     0.043 A 
HETATM   11  C   UNL     1     -39.890  50.057 -54.097  1.00  0.00     0.001 A 
HETATM   12  C   UNL     1     -39.504  49.464 -52.898  1.00  0.00     0.002 A 
HETATM   13  C   UNL     1     -39.468  50.200 -51.710  1.00  0.00     0.030 A 
HETATM   14  N   UNL     1     -39.906  52.495 -50.772  1.00  0.00    -0.364 N 
HETATM   15  H   UNL     1     -39.682  52.322 -49.802  1.00  0.00     0.165 HD
HETATM   16  C   UNL     1     -40.333  53.691 -51.281  1.00  0.00     0.102 A 
ENDBRANCH   6   7
ENDBRANCH   1   5
BRANCH   2  17
HETATM   17  C   UNL     1     -43.796  57.563 -55.708  1.00  0.00     0.280 C 
BRANCH  17  18
HETATM   18  O   UNL     1     -43.506  56.883 -56.926  1.00  0.00    -0.341 OA
BRANCH  18  19
HETATM   19  C   UNL     1     -43.088  57.681 -57.961  1.00  0.00     0.086 A 
HETATM   20  C   UNL     1     -43.195  57.166 -59.264  1.00  0.00     0.045 A 
HETATM   21 BR   UNL     1     -43.873  55.421 -59.582  1.00  0.00    -0.048 Br
HETATM   22  C   UNL     1     -42.787  57.922 -60.366  1.00  0.00     0.046 A 
HETATM   23  C   UNL     1     -42.282  59.204 -60.168  1.00  0.00     0.035 A 
HETATM   24 CL   UNL     1     -41.770  60.140 -61.518  1.00  0.00    -0.084 Cl
HETATM   25  C   UNL     1     -42.192  59.738 -58.885  1.00  0.00     0.026 A 
HETATM   26  C   UNL     1     -42.600  58.980 -57.783  1.00  0.00     0.040 A 
ENDBRANCH  18  19
ENDBRANCH  17  18
ENDBRANCH   2  17
TORSDOF 5
ENDMDL
MODEL 5
REMARK VINA RESULT:      -7.3      3.889      8.699
REMARK  5 active torsions:
REMARK  status: ('A' for Active; 'I' for Inactive)
REMARK    1  A    between atoms: C_8  and  C_9 
REMARK    2  A    between atoms: N_10  and  N_11 
REMARK       I    between atoms: N_11  and  C_12 
REMARK    3  A    between atoms: C_12  and  C_13 
REMARK    4  A    between atoms: C_13  and  O_14 
REMARK    5  A    between atoms: O_14  and  C_15 
ROOT
HETATM    1  N   UNL     1     -43.309  56.182 -55.129  1.00  0.00    -0.246 N 
HETATM    2  C   UNL     1     -42.367  56.591 -54.194  1.00  0.00     0.261 C 
HETATM    3  O   UNL     1     -41.579  57.527 -54.312  1.00  0.00    -0.269 OA
HETATM    4  H   UNL     1     -44.023  55.532 -54.803  1.00  0.00     0.192 HD
ENDROOT
BRANCH   1   5
HETATM    5  N   UNL     1     -43.622  56.804 -56.314  1.00  0.00    -0.184 NA
HETATM    6  C   UNL     1     -43.022  56.438 -57.401  1.00  0.00     0.152 C 
BRANCH   6   7
HETATM    7  C   UNL     1     -43.311  57.124 -58.645  1.00  0.00     0.011 A 
HETATM    8  C   UNL     1     -42.830  58.413 -59.044  1.00  0.00     0.004 A 
HETATM    9  C   UNL     1     -42.003  59.384 -58.439  1.00  0.00     0.014 A 
HETATM   10  C   UNL     1     -43.354  58.683 -60.309  1.00  0.00     0.043 A 
HETATM   11  C   UNL     1     -41.733  60.580 -59.114  1.00  0.00     0.001 A 
HETATM   12  C   UNL     1     -42.269  60.817 -60.376  1.00  0.00     0.002 A 
HETATM   13  C   UNL     1     -43.089  59.872 -61.000  1.00  0.00     0.030 A 
HETATM   14  N   UNL     1     -44.123  57.601 -60.668  1.00  0.00    -0.364 N 
HETATM   15  H   UNL     1     -44.628  57.521 -61.539  1.00  0.00     0.165 HD
HETATM   16  C   UNL     1     -44.111  56.661 -59.674  1.00  0.00     0.102 A 
ENDBRANCH   6   7
ENDBRANCH   1   5
BRANCH   2  17
HETATM   17  C   UNL     1     -42.326  55.697 -52.955  1.00  0.00     0.280 C 
BRANCH  17  18
HETATM   18  O   UNL     1     -40.993  55.333 -52.609  1.00  0.00    -0.341 OA
BRANCH  18  19
HETATM   19  C   UNL     1     -40.637  54.042 -52.910  1.00  0.00     0.086 A 
HETATM   20  C   UNL     1     -40.168  53.235 -51.861  1.00  0.00     0.045 A 
HETATM   21 BR   UNL     1     -40.010  53.909 -50.092  1.00  0.00    -0.048 Br
HETATM   22  C   UNL     1     -39.786  51.911 -52.095  1.00  0.00     0.046 A 
HETATM   23  C   UNL     1     -39.886  51.386 -53.380  1.00  0.00     0.035 A 
HETATM   24 CL   UNL     1     -39.412  49.759 -53.680  1.00  0.00    -0.084 Cl
HETATM   25  C   UNL     1     -40.373  52.166 -54.426  1.00  0.00     0.026 A 
HETATM   26  C   UNL     1     -40.753  53.491 -54.191  1.00  0.00     0.040 A 
ENDBRANCH  18  19
ENDBRANCH  17  18
ENDBRANCH   2  17
TORSDOF 5
ENDMDL
MODEL 6
REMARK VINA RESULT:      -7.3      3.947      8.601
REMARK  5 active torsions:
REMARK  status: ('A' for Active; 'I' for Inactive)
REMARK    1  A    between atoms: C_8  and  C_9 
REMARK    2  A    between atoms: N_10  and  N_11 
REMARK       I    between atoms: N_11  and  C_12 
REMARK    3  A    between atoms: C_12  and  C_13 
REMARK    4  A    between atoms: C_13  and  O_14 
REMARK    5  A    between atoms: O_14  and  C_15 
ROOT
HETATM    1  N   UNL     1     -41.879  56.510 -55.557  1.00  0.00    -0.246 N 
HETATM    2  C   UNL     1     -42.046  56.877 -54.228  1.00  0.00     0.261 C 
HETATM    3  O   UNL     1     -42.820  57.729 -53.797  1.00  0.00    -0.269 OA
HETATM    4  H   UNL     1     -41.359  55.651 -55.732  1.00  0.00     0.192 HD
ENDROOT
BRANCH   1   5
HETATM    5  N   UNL     1     -42.617  56.943 -56.634  1.00  0.00    -0.184 NA
HETATM    6  C   UNL     1     -43.110  56.073 -57.457  1.00  0.00     0.152 C 
BRANCH   6   7
HETATM    7  C   UNL     1     -43.845  56.524 -58.622  1.00  0.00     0.011 A 
HETATM    8  C   UNL     1     -45.006  57.364 -58.627  1.00  0.00     0.004 A 
HETATM    9  C   UNL     1     -45.779  57.980 -57.620  1.00  0.00     0.014 A 
HETATM   10  C   UNL     1     -45.386  57.545 -59.959  1.00  0.00     0.043 A 
HETATM   11  C   UNL     1     -46.894  58.747 -57.976  1.00  0.00     0.001 A 
HETATM   12  C   UNL     1     -47.244  58.910 -59.314  1.00  0.00     0.002 A 
HETATM   13  C   UNL     1     -46.495  58.313 -60.332  1.00  0.00     0.030 A 
HETATM   14  N   UNL     1     -44.490  56.844 -60.733  1.00  0.00    -0.364 N 
HETATM   15  H   UNL     1     -44.522  56.794 -61.742  1.00  0.00     0.165 HD
HETATM   16  C   UNL     1     -43.565  56.221 -59.941  1.00  0.00     0.102 A 
ENDBRANCH   6   7
ENDBRANCH   1   5
BRANCH   2  17
HETATM   17  C   UNL     1     -41.090  56.150 -53.283  1.00  0.00     0.280 C 
BRANCH  17  18
HETATM   18  O   UNL     1     -41.705  55.019 -52.675  1.00  0.00    -0.341 OA
BRANCH  18  19
HETATM   19  C   UNL     1     -41.152  53.804 -52.996  1.00  0.00     0.086 A 
HETATM   20  C   UNL     1     -40.393  53.154 -52.010  1.00  0.00     0.045 A 
HETATM   21 BR   UNL     1     -40.121  53.935 -50.300  1.00  0.00    -0.048 Br
HETATM   22  C   UNL     1     -39.799  51.915 -52.267  1.00  0.00     0.046 A 
HETATM   23  C   UNL     1     -39.975  51.316 -53.510  1.00  0.00     0.035 A 
HETATM   24 CL   UNL     1     -39.242  49.795 -53.840  1.00  0.00    -0.084 Cl
HETATM   25  C   UNL     1     -40.746  51.937 -54.491  1.00  0.00     0.026 A 
HETATM   26  C   UNL     1     -41.338  53.176 -54.232  1.00  0.00     0.040 A 
ENDBRANCH  18  19
ENDBRANCH  17  18
ENDBRANCH   2  17
TORSDOF 5
ENDMDL
MODEL 7
REMARK VINA RESULT:      -7.2      2.333      3.279
REMARK  5 active torsions:
REMARK  status: ('A' for Active; 'I' for Inactive)
REMARK    1  A    between atoms: C_8  and  C_9 
REMARK    2  A    between atoms: N_10  and  N_11 
REMARK       I    between atoms: N_11  and  C_12 
REMARK    3  A    between atoms: C_12  and  C_13 
REMARK    4  A    between atoms: C_13  and  O_14 
REMARK    5  A    between atoms: O_14  and  C_15 
ROOT
HETATM    1  N   UNL     1     -43.611  55.890 -55.554  1.00  0.00    -0.246 N 
HETATM    2  C   UNL     1     -43.281  57.151 -56.034  1.00  0.00     0.261 C 
HETATM    3  O   UNL     1     -42.339  57.850 -55.665  1.00  0.00    -0.269 OA
HETATM    4  H   UNL     1     -44.285  55.356 -56.101  1.00  0.00     0.192 HD
ENDROOT
BRANCH   1   5
HETATM    5  N   UNL     1     -42.894  55.131 -54.660  1.00  0.00    -0.184 NA
HETATM    6  C   UNL     1     -41.918  54.397 -55.089  1.00  0.00     0.152 C 
BRANCH   6   7
HETATM    7  C   UNL     1     -41.190  53.556 -54.158  1.00  0.00     0.011 A 
HETATM    8  C   UNL     1     -40.943  53.828 -52.773  1.00  0.00     0.004 A 
HETATM    9  C   UNL     1     -41.266  54.894 -51.907  1.00  0.00     0.014 A 
HETATM   10  C   UNL     1     -40.208  52.757 -52.261  1.00  0.00     0.043 A 
HETATM   11  C   UNL     1     -40.846  54.853 -50.573  1.00  0.00     0.001 A 
HETATM   12  C   UNL     1     -40.118  53.768 -50.093  1.00  0.00     0.002 A 
HETATM   13  C   UNL     1     -39.786  52.697 -50.927  1.00  0.00     0.030 A 
HETATM   14  N   UNL     1     -40.018  51.867 -53.293  1.00  0.00    -0.364 N 
HETATM   15  H   UNL     1     -39.515  50.995 -53.211  1.00  0.00     0.165 HD
HETATM   16  C   UNL     1     -40.597  52.339 -54.439  1.00  0.00     0.102 A 
ENDBRANCH   6   7
ENDBRANCH   1   5
BRANCH   2  17
HETATM   17  C   UNL     1     -44.274  57.675 -57.071  1.00  0.00     0.280 C 
BRANCH  17  18
HETATM   18  O   UNL     1     -44.062  57.086 -58.350  1.00  0.00    -0.341 OA
BRANCH  18  19
HETATM   19  C   UNL     1     -45.138  57.123 -59.201  1.00  0.00     0.086 A 
HETATM   20  C   UNL     1     -45.458  55.946 -59.898  1.00  0.00     0.045 A 
HETATM   21 BR   UNL     1     -44.426  54.365 -59.688  1.00  0.00    -0.048 Br
HETATM   22  C   UNL     1     -46.540  55.912 -60.782  1.00  0.00     0.046 A 
HETATM   23  C   UNL     1     -47.314  57.053 -60.961  1.00  0.00     0.035 A 
HETATM   24 CL   UNL     1     -48.644  57.023 -62.053  1.00  0.00    -0.084 Cl
HETATM   25  C   UNL     1     -47.025  58.222 -60.260  1.00  0.00     0.026 A 
HETATM   26  C   UNL     1     -45.942  58.255 -59.376  1.00  0.00     0.040 A 
ENDBRANCH  18  19
ENDBRANCH  17  18
ENDBRANCH   2  17
TORSDOF 5
ENDMDL
MODEL 8
REMARK VINA RESULT:      -7.2      5.641      7.266
REMARK  5 active torsions:
REMARK  status: ('A' for Active; 'I' for Inactive)
REMARK    1  A    between atoms: C_8  and  C_9 
REMARK    2  A    between atoms: N_10  and  N_11 
REMARK       I    between atoms: N_11  and  C_12 
REMARK    3  A    between atoms: C_12  and  C_13 
REMARK    4  A    between atoms: C_13  and  O_14 
REMARK    5  A    between atoms: O_14  and  C_15 
ROOT
HETATM    1  N   UNL     1     -41.310  57.787 -50.041  1.00  0.00    -0.246 N 
HETATM    2  C   UNL     1     -40.690  58.936 -50.515  1.00  0.00     0.261 C 
HETATM    3  O   UNL     1     -39.566  59.009 -51.008  1.00  0.00    -0.269 OA
HETATM    4  H   UNL     1     -42.311  57.851 -49.858  1.00  0.00     0.192 HD
ENDROOT
BRANCH   1   5
HETATM    5  N   UNL     1     -40.841  56.497 -50.127  1.00  0.00    -0.184 NA
HETATM    6  C   UNL     1     -41.302  55.715 -51.049  1.00  0.00     0.152 C 
BRANCH   6   7
HETATM    7  C   UNL     1     -40.849  54.339 -51.114  1.00  0.00     0.011 A 
HETATM    8  C   UNL     1     -40.570  53.586 -52.301  1.00  0.00     0.004 A 
HETATM    9  C   UNL     1     -40.637  53.867 -53.683  1.00  0.00     0.014 A 
HETATM   10  C   UNL     1     -40.164  52.311 -51.902  1.00  0.00     0.043 A 
HETATM   11  C   UNL     1     -40.299  52.872 -54.607  1.00  0.00     0.001 A 
HETATM   12  C   UNL     1     -39.895  51.612 -54.176  1.00  0.00     0.002 A 
HETATM   13  C   UNL     1     -39.817  51.307 -52.814  1.00  0.00     0.030 A 
HETATM   14  N   UNL     1     -40.192  52.290 -50.527  1.00  0.00    -0.364 N 
HETATM   15  H   UNL     1     -39.947  51.489 -49.961  1.00  0.00     0.165 HD
HETATM   16  C   UNL     1     -40.609  53.499 -50.042  1.00  0.00     0.102 A 
ENDBRANCH   6   7
ENDBRANCH   1   5
BRANCH   2  17
HETATM   17  C   UNL     1     -41.528  60.197 -50.306  1.00  0.00     0.280 C 
BRANCH  17  18
HETATM   18  O   UNL     1     -42.824  60.073 -50.884  1.00  0.00    -0.341 OA
BRANCH  18  19
HETATM   19  C   UNL     1     -43.723  61.047 -50.528  1.00  0.00     0.086 A 
HETATM   20  C   UNL     1     -45.077  60.683 -50.447  1.00  0.00     0.045 A 
HETATM   21 BR   UNL     1     -45.649  58.914 -50.836  1.00  0.00    -0.048 Br
HETATM   22  C   UNL     1     -46.048  61.623 -50.091  1.00  0.00     0.046 A 
HETATM   23  C   UNL     1     -45.665  62.929 -49.803  1.00  0.00     0.035 A 
HETATM   24 CL   UNL     1     -46.854  64.096 -49.372  1.00  0.00    -0.084 Cl
HETATM   25  C   UNL     1     -44.323  63.300 -49.855  1.00  0.00     0.026 A 
HETATM   26  C   UNL     1     -43.353  62.358 -50.212  1.00  0.00     0.040 A 
ENDBRANCH  18  19
ENDBRANCH  17  18
ENDBRANCH   2  17
TORSDOF 5
ENDMDL
MODEL 9
REMARK VINA RESULT:      -7.1      3.791      8.269
REMARK  5 active torsions:
REMARK  status: ('A' for Active; 'I' for Inactive)
REMARK    1  A    between atoms: C_8  and  C_9 
REMARK    2  A    between atoms: N_10  and  N_11 
REMARK       I    between atoms: N_11  and  C_12 
REMARK    3  A    between atoms: C_12  and  C_13 
REMARK    4  A    between atoms: C_13  and  O_14 
REMARK    5  A    between atoms: O_14  and  C_15 
ROOT
HETATM    1  N   UNL     1     -42.384  56.325 -54.678  1.00  0.00    -0.246 N 
HETATM    2  C   UNL     1     -42.240  56.896 -53.421  1.00  0.00     0.261 C 
HETATM    3  O   UNL     1     -42.860  57.863 -52.982  1.00  0.00    -0.269 OA
HETATM    4  H   UNL     1     -41.957  55.409 -54.816  1.00  0.00     0.192 HD
ENDROOT
BRANCH   1   5
HETATM    5  N   UNL     1     -43.317  56.652 -55.635  1.00  0.00    -0.184 NA
HETATM    6  C   UNL     1     -42.919  56.987 -56.820  1.00  0.00     0.152 C 
BRANCH   6   7
HETATM    7  C   UNL     1     -43.894  57.383 -57.818  1.00  0.00     0.011 A 
HETATM    8  C   UNL     1     -44.406  56.571 -58.882  1.00  0.00     0.004 A 
HETATM    9  C   UNL     1     -44.171  55.247 -59.309  1.00  0.00     0.014 A 
HETATM   10  C   UNL     1     -45.317  57.348 -59.600  1.00  0.00     0.043 A 
HETATM   11  C   UNL     1     -44.847  54.751 -60.430  1.00  0.00     0.001 A 
HETATM   12  C   UNL     1     -45.752  55.552 -61.122  1.00  0.00     0.002 A 
HETATM   13  C   UNL     1     -46.006  56.866 -60.720  1.00  0.00     0.030 A 
HETATM   14  N   UNL     1     -45.359  58.583 -58.996  1.00  0.00    -0.364 N 
HETATM   15  H   UNL     1     -45.935  59.353 -59.306  1.00  0.00     0.165 HD
HETATM   16  C   UNL     1     -44.503  58.619 -57.929  1.00  0.00     0.102 A 
ENDBRANCH   6   7
ENDBRANCH   1   5
BRANCH   2  17
HETATM   17  C   UNL     1     -41.138  56.240 -52.589  1.00  0.00     0.280 C 
BRANCH  17  18
HETATM   18  O   UNL     1     -41.590  55.044 -51.962  1.00  0.00    -0.341 OA
BRANCH  18  19
HETATM   19  C   UNL     1     -41.049  53.882 -52.451  1.00  0.00     0.086 A 
HETATM   20  C   UNL     1     -40.270  53.107 -51.576  1.00  0.00     0.045 A 
HETATM   21 BR   UNL     1     -39.958  53.657 -49.785  1.00  0.00    -0.048 Br
HETATM   22  C   UNL     1     -39.686  51.913 -52.007  1.00  0.00     0.046 A 
HETATM   23  C   UNL     1     -39.892  51.482 -53.314  1.00  0.00     0.035 A 
HETATM   24 CL   UNL     1     -39.172  50.017 -53.857  1.00  0.00    -0.084 Cl
HETATM   25  C   UNL     1     -40.682  52.227 -54.188  1.00  0.00     0.026 A 
HETATM   26  C   UNL     1     -41.264  53.422 -53.755  1.00  0.00     0.040 A 
ENDBRANCH  18  19
ENDBRANCH  17  18
ENDBRANCH   2  17
TORSDOF 5
ENDMDL
MODEL 10
REMARK VINA RESULT:      -7.0      5.119      6.033
REMARK  5 active torsions:
REMARK  status: ('A' for Active; 'I' for Inactive)
REMARK    1  A    between atoms: C_8  and  C_9 
REMARK    2  A    between atoms: N_10  and  N_11 
REMARK       I    between atoms: N_11  and  C_12 
REMARK    3  A    between atoms: C_12  and  C_13 
REMARK    4  A    between atoms: C_13  and  O_14 
REMARK    5  A    between atoms: O_14  and  C_15 
ROOT
HETATM    1  N   UNL     1     -41.725  58.351 -51.784  1.00  0.00    -0.246 N 
HETATM    2  C   UNL     1     -41.265  59.249 -52.738  1.00  0.00     0.261 C 
HETATM    3  O   UNL     1     -40.197  59.187 -53.345  1.00  0.00    -0.269 OA
HETATM    4  H   UNL     1     -42.710  58.422 -51.528  1.00  0.00     0.192 HD
ENDROOT
BRANCH   1   5
HETATM    5  N   UNL     1     -41.137  57.165 -51.411  1.00  0.00    -0.184 NA
HETATM    6  C   UNL     1     -41.464  56.074 -52.025  1.00  0.00     0.152 C 
BRANCH   6   7
HETATM    7  C   UNL     1     -40.886  54.813 -51.602  1.00  0.00     0.011 A 
HETATM    8  C   UNL     1     -40.545  53.704 -52.443  1.00  0.00     0.004 A 
HETATM    9  C   UNL     1     -40.645  53.453 -53.829  1.00  0.00     0.014 A 
HETATM   10  C   UNL     1     -40.020  52.703 -51.624  1.00  0.00     0.043 A 
HETATM   11  C   UNL     1     -40.221  52.222 -54.341  1.00  0.00     0.001 A 
HETATM   12  C   UNL     1     -39.699  51.246 -53.497  1.00  0.00     0.002 A 
HETATM   13  C   UNL     1     -39.586  51.468 -52.121  1.00  0.00     0.030 A 
HETATM   14  N   UNL     1     -40.039  53.184 -50.336  1.00  0.00    -0.364 N 
HETATM   15  H   UNL     1     -39.717  52.670 -49.528  1.00  0.00     0.165 HD
HETATM   16  C   UNL     1     -40.563  54.447 -50.308  1.00  0.00     0.102 A 
ENDBRANCH   6   7
ENDBRANCH   1   5
BRANCH   2  17
HETATM   17  C   UNL     1     -42.205  60.435 -52.946  1.00  0.00     0.280 C 
BRANCH  17  18
HETATM   18  O   UNL     1     -43.035  60.658 -51.810  1.00  0.00    -0.341 OA
BRANCH  18  19
HETATM   19  C   UNL     1     -44.341  60.978 -52.089  1.00  0.00     0.086 A 
HETATM   20  C   UNL     1     -45.154  61.382 -51.017  1.00  0.00     0.045 A 
HETATM   21 BR   UNL     1     -44.481  61.461 -49.243  1.00  0.00    -0.048 Br
HETATM   22  C   UNL     1     -46.494  61.721 -51.226  1.00  0.00     0.046 A 
HETATM   23  C   UNL     1     -47.020  61.671 -52.513  1.00  0.00     0.035 A 
HETATM   24 CL   UNL     1     -48.670  62.080 -52.781  1.00  0.00    -0.084 Cl
HETATM   25  C   UNL     1     -46.220  61.297 -53.591  1.00  0.00     0.026 A 
HETATM   26  C   UNL     1     -44.880  60.956 -53.379  1.00  0.00     0.040 A 
ENDBRANCH  18  19
ENDBRANCH  17  18
ENDBRANCH   2  17
TORSDOF 5
ENDMDL
