MODEL 1
REMARK VINA RESULT:      -9.0      0.000      0.000
REMARK  6 active torsions:
REMARK  status: ('A' for Active; 'I' for Inactive)
REMARK    1  A    between atoms: C_3  and  C_4 
REMARK    2  A    between atoms: C_4  and  C_5 
REMARK    3  A    between atoms: N_8  and  C_10 
REMARK    4  A    between atoms: C_10  and  C_11 
REMARK    5  A    between atoms: N_24  and  C_25 
REMARK    6  A    between atoms: C_25  and  C_26 
ROOT
HETATM    1  C   UNL     1     -42.717  56.727 -52.290  1.00  0.00     0.149 C 
HETATM    2  N   UNL     1     -41.372  56.457 -52.783  1.00  0.00    -0.220 NA
HETATM    3  C   UNL     1     -41.337  56.384 -54.154  1.00  0.00     0.304 C 
HETATM    4  O   UNL     1     -40.298  56.337 -54.788  1.00  0.00    -0.253 OA
HETATM    5  N   UNL     1     -42.606  56.347 -54.625  1.00  0.00    -0.270 N 
HETATM    6  C   UNL     1     -43.492  56.626 -53.622  1.00  0.00     0.257 C 
HETATM    7  O   UNL     1     -44.706  56.728 -53.737  1.00  0.00    -0.270 OA
HETATM    8  H   UNL     1     -40.603  56.996 -52.387  1.00  0.00     0.134 HD
ENDROOT
BRANCH   1   9
HETATM    9  C   UNL     1     -42.723  58.128 -51.683  1.00  0.00     0.067 A 
HETATM   10  C   UNL     1     -43.890  58.829 -51.393  1.00  0.00     0.030 A 
HETATM   11  C   UNL     1     -43.788  60.098 -50.828  1.00  0.00     0.003 A 
HETATM   12  C   UNL     1     -42.534  60.633 -50.554  1.00  0.00     0.019 A 
HETATM   13  C   UNL     1     -41.420  59.872 -50.851  1.00  0.00     0.117 A 
HETATM   14  N   UNL     1     -41.483  58.636 -51.397  1.00  0.00    -0.263 NA
ENDBRANCH   1   9
BRANCH   1  15
HETATM   15  C   UNL     1     -43.217  55.650 -51.262  1.00  0.00     0.028 C 
HETATM   16  C   UNL     1     -42.370  55.538 -49.983  1.00  0.00     0.035 C 
HETATM   17  C   UNL     1     -41.006  54.900 -50.203  1.00  0.00     0.235 C 
HETATM   18  N   UNL     1     -41.107  53.575 -50.926  1.00  0.00    -0.067 N 
HETATM   19  H   UNL     1     -41.444  52.885 -50.238  1.00  0.00     0.280 HD
HETATM   20  C   UNL     1     -42.054  53.526 -52.106  1.00  0.00     0.235 C 
HETATM   21  C   UNL     1     -43.371  54.217 -51.807  1.00  0.00     0.035 C 
BRANCH  18  22
HETATM   22  C   UNL     1     -39.739  53.076 -51.393  1.00  0.00     0.278 C 
BRANCH  22  23
HETATM   23  C   UNL     1     -39.755  51.890 -52.311  1.00  0.00     0.028 A 
HETATM   24  C   UNL     1     -39.776  50.561 -51.862  1.00  0.00     0.045 A 
HETATM   25 CL   UNL     1     -39.845  50.167 -50.183  1.00  0.00    -0.084 Cl
HETATM   26  C   UNL     1     -39.768  49.501 -52.774  1.00  0.00     0.024 A 
HETATM   27  C   UNL     1     -39.740  49.753 -54.145  1.00  0.00     0.005 A 
HETATM   28  C   UNL     1     -39.729  51.066 -54.606  1.00  0.00     0.043 A 
HETATM   29  C   UNL     1     -39.739  52.113 -53.690  1.00  0.00     0.126 A 
HETATM   30  F   UNL     1     -39.758  53.376 -54.141  1.00  0.00    -0.205 F 
ENDBRANCH  22  23
ENDBRANCH  18  22
ENDBRANCH   1  15
BRANCH   5  31
HETATM   31  C   UNL     1     -42.948  56.080 -56.012  1.00  0.00     0.168 C 
BRANCH  31  32
HETATM   32  C   UNL     1     -43.288  57.379 -56.767  1.00  0.00     0.140 C 
HETATM   33  O   UNL     1     -42.067  58.115 -57.039  1.00  0.00    -0.384 OA
HETATM   34  C   UNL     1     -42.017  58.371 -58.452  1.00  0.00     0.168 C 
HETATM   35  C   UNL     1     -42.849  57.291 -59.100  1.00  0.00     0.029 C 
HETATM   36  C   UNL     1     -43.968  57.121 -58.106  1.00  0.00     0.036 C 
ENDBRANCH  31  32
ENDBRANCH   5  31
TORSDOF 6
ENDMDL
MODEL 2
REMARK VINA RESULT:      -8.8      1.970      2.659
REMARK  6 active torsions:
REMARK  status: ('A' for Active; 'I' for Inactive)
REMARK    1  A    between atoms: C_3  and  C_4 
REMARK    2  A    between atoms: C_4  and  C_5 
REMARK    3  A    between atoms: N_8  and  C_10 
REMARK    4  A    between atoms: C_10  and  C_11 
REMARK    5  A    between atoms: N_24  and  C_25 
REMARK    6  A    between atoms: C_25  and  C_26 
ROOT
HETATM    1  C   UNL     1     -43.676  58.839 -52.356  1.00  0.00     0.149 C 
HETATM    2  N   UNL     1     -42.222  58.752 -52.396  1.00  0.00    -0.220 NA
HETATM    3  C   UNL     1     -41.705  59.378 -53.503  1.00  0.00     0.304 C 
HETATM    4  O   UNL     1     -40.513  59.577 -53.655  1.00  0.00    -0.253 OA
HETATM    5  N   UNL     1     -42.717  59.682 -54.350  1.00  0.00    -0.270 N 
HETATM    6  C   UNL     1     -43.923  59.485 -53.738  1.00  0.00     0.257 C 
HETATM    7  O   UNL     1     -45.024  59.724 -54.214  1.00  0.00    -0.270 OA
HETATM    8  H   UNL     1     -41.709  58.956 -51.540  1.00  0.00     0.134 HD
ENDROOT
BRANCH   1   9
HETATM    9  C   UNL     1     -44.060  59.739 -51.183  1.00  0.00     0.067 A 
HETATM   10  C   UNL     1     -43.142  60.523 -50.490  1.00  0.00     0.030 A 
HETATM   11  C   UNL     1     -43.596  61.320 -49.442  1.00  0.00     0.003 A 
HETATM   12  C   UNL     1     -44.948  61.329 -49.118  1.00  0.00     0.019 A 
HETATM   13  C   UNL     1     -45.804  60.541 -49.862  1.00  0.00     0.117 A 
HETATM   14  N   UNL     1     -45.397  59.758 -50.887  1.00  0.00    -0.263 NA
ENDBRANCH   1   9
BRANCH   1  15
HETATM   15  C   UNL     1     -44.369  57.434 -52.257  1.00  0.00     0.028 C 
HETATM   16  C   UNL     1     -43.891  56.561 -51.085  1.00  0.00     0.035 C 
HETATM   17  C   UNL     1     -42.482  56.011 -51.262  1.00  0.00     0.235 C 
HETATM   18  N   UNL     1     -42.309  55.309 -52.591  1.00  0.00    -0.067 N 
HETATM   19  H   UNL     1     -42.776  54.395 -52.508  1.00  0.00     0.280 HD
HETATM   20  C   UNL     1     -42.900  56.004 -53.798  1.00  0.00     0.235 C 
HETATM   21  C   UNL     1     -44.288  56.551 -53.516  1.00  0.00     0.035 C 
BRANCH  18  22
HETATM   22  C   UNL     1     -40.839  55.009 -52.888  1.00  0.00     0.278 C 
BRANCH  22  23
HETATM   23  C   UNL     1     -40.462  53.558 -52.919  1.00  0.00     0.028 A 
HETATM   24  C   UNL     1     -40.008  52.851 -51.795  1.00  0.00     0.045 A 
HETATM   25 CL   UNL     1     -39.897  53.586 -50.238  1.00  0.00    -0.084 Cl
HETATM   26  C   UNL     1     -39.651  51.502 -51.899  1.00  0.00     0.024 A 
HETATM   27  C   UNL     1     -39.743  50.843 -53.125  1.00  0.00     0.005 A 
HETATM   28  C   UNL     1     -40.202  51.530 -54.245  1.00  0.00     0.043 A 
HETATM   29  C   UNL     1     -40.555  52.870 -54.131  1.00  0.00     0.126 A 
HETATM   30  F   UNL     1     -41.023  53.518 -55.208  1.00  0.00    -0.205 F 
ENDBRANCH  22  23
ENDBRANCH  18  22
ENDBRANCH   1  15
BRANCH   5  31
HETATM   31  C   UNL     1     -42.521  60.178 -55.702  1.00  0.00     0.168 C 
BRANCH  31  32
HETATM   32  C   UNL     1     -42.213  59.030 -56.682  1.00  0.00     0.140 C 
HETATM   33  O   UNL     1     -43.369  58.158 -56.786  1.00  0.00    -0.384 OA
HETATM   34  C   UNL     1     -43.711  58.050 -58.177  1.00  0.00     0.168 C 
HETATM   35  C   UNL     1     -43.183  59.302 -58.834  1.00  0.00     0.029 C 
HETATM   36  C   UNL     1     -41.893  59.524 -58.087  1.00  0.00     0.036 C 
ENDBRANCH  31  32
ENDBRANCH   5  31
TORSDOF 6
ENDMDL
MODEL 3
REMARK VINA RESULT:      -8.3      1.938      2.527
REMARK  6 active torsions:
REMARK  status: ('A' for Active; 'I' for Inactive)
REMARK    1  A    between atoms: C_3  and  C_4 
REMARK    2  A    between atoms: C_4  and  C_5 
REMARK    3  A    between atoms: N_8  and  C_10 
REMARK    4  A    between atoms: C_10  and  C_11 
REMARK    5  A    between atoms: N_24  and  C_25 
REMARK    6  A    between atoms: C_25  and  C_26 
ROOT
HETATM    1  C   UNL     1     -43.191  57.426 -54.118  1.00  0.00     0.149 C 
HETATM    2  N   UNL     1     -42.326  57.058 -55.232  1.00  0.00    -0.220 NA
HETATM    3  C   UNL     1     -42.654  57.739 -56.378  1.00  0.00     0.304 C 
HETATM    4  O   UNL     1     -41.964  57.718 -57.381  1.00  0.00    -0.253 OA
HETATM    5  N   UNL     1     -43.837  58.372 -56.191  1.00  0.00    -0.270 N 
HETATM    6  C   UNL     1     -44.197  58.323 -54.873  1.00  0.00     0.257 C 
HETATM    7  O   UNL     1     -45.180  58.851 -54.372  1.00  0.00    -0.270 OA
HETATM    8  H   UNL     1     -41.323  57.014 -55.061  1.00  0.00     0.134 HD
ENDROOT
BRANCH   1   9
HETATM    9  C   UNL     1     -42.345  58.182 -53.096  1.00  0.00     0.067 A 
HETATM   10  C   UNL     1     -42.886  58.843 -51.998  1.00  0.00     0.030 A 
HETATM   11  C   UNL     1     -42.027  59.494 -51.116  1.00  0.00     0.003 A 
HETATM   12  C   UNL     1     -40.655  59.461 -51.338  1.00  0.00     0.019 A 
HETATM   13  C   UNL     1     -40.188  58.768 -52.438  1.00  0.00     0.117 A 
HETATM   14  N   UNL     1     -40.994  58.123 -53.313  1.00  0.00    -0.263 NA
ENDBRANCH   1   9
BRANCH   1  15
HETATM   15  C   UNL     1     -43.911  56.190 -53.471  1.00  0.00     0.028 C 
HETATM   16  C   UNL     1     -43.443  55.845 -52.047  1.00  0.00     0.035 C 
HETATM   17  C   UNL     1     -42.047  55.242 -51.987  1.00  0.00     0.235 C 
HETATM   18  N   UNL     1     -41.894  54.066 -52.926  1.00  0.00    -0.067 N 
HETATM   19  H   UNL     1     -42.379  53.270 -52.488  1.00  0.00     0.280 HD
HETATM   20  C   UNL     1     -42.478  54.236 -54.312  1.00  0.00     0.235 C 
HETATM   21  C   UNL     1     -43.853  54.877 -54.275  1.00  0.00     0.035 C 
BRANCH  18  22
HETATM   22  C   UNL     1     -40.431  53.644 -53.075  1.00  0.00     0.278 C 
BRANCH  22  23
HETATM   23  C   UNL     1     -40.125  52.218 -52.725  1.00  0.00     0.028 A 
HETATM   24  C   UNL     1     -39.960  51.762 -51.409  1.00  0.00     0.045 A 
HETATM   25 CL   UNL     1     -40.155  52.806 -50.049  1.00  0.00    -0.084 Cl
HETATM   26  C   UNL     1     -39.652  50.421 -51.153  1.00  0.00     0.024 A 
HETATM   27  C   UNL     1     -39.507  49.520 -52.207  1.00  0.00     0.005 A 
HETATM   28  C   UNL     1     -39.679  49.956 -53.518  1.00  0.00     0.043 A 
HETATM   29  C   UNL     1     -39.985  51.291 -53.761  1.00  0.00     0.126 A 
HETATM   30  F   UNL     1     -40.178  51.699 -55.023  1.00  0.00    -0.205 F 
ENDBRANCH  22  23
ENDBRANCH  18  22
ENDBRANCH   1  15
BRANCH   5  31
HETATM   31  C   UNL     1     -44.580  59.031 -57.251  1.00  0.00     0.168 C 
BRANCH  31  32
HETATM   32  C   UNL     1     -45.483  58.037 -58.005  1.00  0.00     0.140 C 
HETATM   33  O   UNL     1     -46.807  58.611 -58.168  1.00  0.00    -0.384 OA
HETATM   34  C   UNL     1     -47.130  58.575 -59.567  1.00  0.00     0.168 C 
HETATM   35  C   UNL     1     -45.810  58.565 -60.299  1.00  0.00     0.029 C 
HETATM   36  C   UNL     1     -44.961  57.705 -59.398  1.00  0.00     0.036 C 
ENDBRANCH  31  32
ENDBRANCH   5  31
TORSDOF 6
ENDMDL
MODEL 4
REMARK VINA RESULT:      -8.3      2.941      6.001
REMARK  6 active torsions:
REMARK  status: ('A' for Active; 'I' for Inactive)
REMARK    1  A    between atoms: C_3  and  C_4 
REMARK    2  A    between atoms: C_4  and  C_5 
REMARK    3  A    between atoms: N_8  and  C_10 
REMARK    4  A    between atoms: C_10  and  C_11 
REMARK    5  A    between atoms: N_24  and  C_25 
REMARK    6  A    between atoms: C_25  and  C_26 
ROOT
HETATM    1  C   UNL     1     -43.543  59.277 -52.493  1.00  0.00     0.149 C 
HETATM    2  N   UNL     1     -44.395  58.358 -51.749  1.00  0.00    -0.220 NA
HETATM    3  C   UNL     1     -45.289  59.028 -50.950  1.00  0.00     0.304 C 
HETATM    4  O   UNL     1     -46.205  58.471 -50.372  1.00  0.00    -0.253 OA
HETATM    5  N   UNL     1     -44.951  60.338 -50.913  1.00  0.00    -0.270 N 
HETATM    6  C   UNL     1     -43.992  60.607 -51.849  1.00  0.00     0.257 C 
HETATM    7  O   UNL     1     -43.520  61.706 -52.105  1.00  0.00    -0.270 OA
HETATM    8  H   UNL     1     -44.810  57.578 -52.255  1.00  0.00     0.134 HD
ENDROOT
BRANCH   1   9
HETATM    9  C   UNL     1     -43.906  59.160 -53.972  1.00  0.00     0.067 A 
HETATM   10  C   UNL     1     -43.376  59.991 -54.955  1.00  0.00     0.030 A 
HETATM   11  C   UNL     1     -43.762  59.795 -56.279  1.00  0.00     0.003 A 
HETATM   12  C   UNL     1     -44.651  58.773 -56.595  1.00  0.00     0.019 A 
HETATM   13  C   UNL     1     -45.121  57.976 -55.569  1.00  0.00     0.117 A 
HETATM   14  N   UNL     1     -44.764  58.137 -54.274  1.00  0.00    -0.263 NA
ENDBRANCH   1   9
BRANCH   1  15
HETATM   15  C   UNL     1     -42.013  59.021 -52.252  1.00  0.00     0.028 C 
HETATM   16  C   UNL     1     -41.303  58.251 -53.379  1.00  0.00     0.035 C 
HETATM   17  C   UNL     1     -41.682  56.780 -53.453  1.00  0.00     0.235 C 
HETATM   18  N   UNL     1     -41.528  56.085 -52.118  1.00  0.00    -0.067 N 
HETATM   19  H   UNL     1     -40.519  55.933 -51.975  1.00  0.00     0.280 HD
HETATM   20  C   UNL     1     -42.041  56.836 -50.909  1.00  0.00     0.235 C 
HETATM   21  C   UNL     1     -41.646  58.302 -50.940  1.00  0.00     0.035 C 
BRANCH  18  22
HETATM   22  C   UNL     1     -42.170  54.696 -52.122  1.00  0.00     0.278 C 
BRANCH  22  23
HETATM   23  C   UNL     1     -41.266  53.561 -52.499  1.00  0.00     0.028 A 
HETATM   24  C   UNL     1     -40.323  52.998 -51.626  1.00  0.00     0.045 A 
HETATM   25 CL   UNL     1     -40.156  53.533 -49.994  1.00  0.00    -0.084 Cl
HETATM   26  C   UNL     1     -39.494  51.954 -52.050  1.00  0.00     0.024 A 
HETATM   27  C   UNL     1     -39.597  51.458 -53.349  1.00  0.00     0.005 A 
HETATM   28  C   UNL     1     -40.535  51.999 -54.223  1.00  0.00     0.043 A 
HETATM   29  C   UNL     1     -41.355  53.036 -53.791  1.00  0.00     0.126 A 
HETATM   30  F   UNL     1     -42.277  53.534 -54.628  1.00  0.00    -0.205 F 
ENDBRANCH  22  23
ENDBRANCH  18  22
ENDBRANCH   1  15
BRANCH   5  31
HETATM   31  C   UNL     1     -45.561  61.308 -50.018  1.00  0.00     0.168 C 
BRANCH  31  32
HETATM   32  C   UNL     1     -44.797  61.398 -48.684  1.00  0.00     0.140 C 
HETATM   33  O   UNL     1     -44.547  62.791 -48.361  1.00  0.00    -0.384 OA
HETATM   34  C   UNL     1     -45.067  63.036 -47.045  1.00  0.00     0.168 C 
HETATM   35  C   UNL     1     -46.151  62.008 -46.828  1.00  0.00     0.029 C 
HETATM   36  C   UNL     1     -45.575  60.798 -47.518  1.00  0.00     0.036 C 
ENDBRANCH  31  32
ENDBRANCH   5  31
TORSDOF 6
ENDMDL
MODEL 5
REMARK VINA RESULT:      -8.3      2.982      7.391
REMARK  6 active torsions:
REMARK  status: ('A' for Active; 'I' for Inactive)
REMARK    1  A    between atoms: C_3  and  C_4 
REMARK    2  A    between atoms: C_4  and  C_5 
REMARK    3  A    between atoms: N_8  and  C_10 
REMARK    4  A    between atoms: C_10  and  C_11 
REMARK    5  A    between atoms: N_24  and  C_25 
REMARK    6  A    between atoms: C_25  and  C_26 
ROOT
HETATM    1  C   UNL     1     -41.993  55.166 -53.048  1.00  0.00     0.149 C 
HETATM    2  N   UNL     1     -41.173  56.129 -53.774  1.00  0.00    -0.220 NA
HETATM    3  C   UNL     1     -40.913  57.247 -53.020  1.00  0.00     0.304 C 
HETATM    4  O   UNL     1     -40.113  58.100 -53.358  1.00  0.00    -0.253 OA
HETATM    5  N   UNL     1     -41.695  57.225 -51.915  1.00  0.00    -0.270 N 
HETATM    6  C   UNL     1     -42.306  56.008 -51.790  1.00  0.00     0.257 C 
HETATM    7  O   UNL     1     -43.028  55.652 -50.869  1.00  0.00    -0.270 OA
HETATM    8  H   UNL     1     -40.358  55.778 -54.272  1.00  0.00     0.134 HD
ENDROOT
BRANCH   1   9
HETATM    9  C   UNL     1     -41.132  53.938 -52.762  1.00  0.00     0.067 A 
HETATM   10  C   UNL     1     -40.677  53.077 -53.757  1.00  0.00     0.030 A 
HETATM   11  C   UNL     1     -39.887  51.990 -53.393  1.00  0.00     0.003 A 
HETATM   12  C   UNL     1     -39.556  51.792 -52.057  1.00  0.00     0.019 A 
HETATM   13  C   UNL     1     -40.027  52.698 -51.127  1.00  0.00     0.117 A 
HETATM   14  N   UNL     1     -40.795  53.766 -51.446  1.00  0.00    -0.263 NA
ENDBRANCH   1   9
BRANCH   1  15
HETATM   15  C   UNL     1     -43.309  54.784 -53.814  1.00  0.00     0.028 C 
HETATM   16  C   UNL     1     -43.087  54.127 -55.187  1.00  0.00     0.035 C 
HETATM   17  C   UNL     1     -42.576  55.085 -56.253  1.00  0.00     0.235 C 
HETATM   18  N   UNL     1     -43.433  56.326 -56.359  1.00  0.00    -0.067 N 
HETATM   19  H   UNL     1     -44.293  56.054 -56.857  1.00  0.00     0.280 HD
HETATM   20  C   UNL     1     -43.857  56.962 -55.053  1.00  0.00     0.235 C 
HETATM   21  C   UNL     1     -44.315  55.929 -54.040  1.00  0.00     0.035 C 
BRANCH  18  22
HETATM   22  C   UNL     1     -42.769  57.404 -57.218  1.00  0.00     0.278 C 
BRANCH  22  23
HETATM   23  C   UNL     1     -43.624  57.997 -58.298  1.00  0.00     0.028 A 
HETATM   24  C   UNL     1     -43.913  57.344 -59.505  1.00  0.00     0.045 A 
HETATM   25 CL   UNL     1     -43.347  55.748 -59.838  1.00  0.00    -0.084 Cl
HETATM   26  C   UNL     1     -44.700  57.965 -60.480  1.00  0.00     0.024 A 
HETATM   27  C   UNL     1     -45.210  59.245 -60.262  1.00  0.00     0.005 A 
HETATM   28  C   UNL     1     -44.941  59.901 -59.064  1.00  0.00     0.043 A 
HETATM   29  C   UNL     1     -44.157  59.274 -58.101  1.00  0.00     0.126 A 
HETATM   30  F   UNL     1     -43.925  59.899 -56.938  1.00  0.00    -0.205 F 
ENDBRANCH  22  23
ENDBRANCH  18  22
ENDBRANCH   1  15
BRANCH   5  31
HETATM   31  C   UNL     1     -41.823  58.339 -50.990  1.00  0.00     0.168 C 
BRANCH  31  32
HETATM   32  C   UNL     1     -42.740  59.438 -51.559  1.00  0.00     0.140 C 
HETATM   33  O   UNL     1     -44.126  59.100 -51.289  1.00  0.00    -0.384 OA
HETATM   34  C   UNL     1     -44.723  60.213 -50.605  1.00  0.00     0.168 C 
HETATM   35  C   UNL     1     -43.588  60.939 -49.924  1.00  0.00     0.029 C 
HETATM   36  C   UNL     1     -42.480  60.804 -50.936  1.00  0.00     0.036 C 
ENDBRANCH  31  32
ENDBRANCH   5  31
TORSDOF 6
ENDMDL
MODEL 6
REMARK VINA RESULT:      -8.0      3.045      6.963
REMARK  6 active torsions:
REMARK  status: ('A' for Active; 'I' for Inactive)
REMARK    1  A    between atoms: C_3  and  C_4 
REMARK    2  A    between atoms: C_4  and  C_5 
REMARK    3  A    between atoms: N_8  and  C_10 
REMARK    4  A    between atoms: C_10  and  C_11 
REMARK    5  A    between atoms: N_24  and  C_25 
REMARK    6  A    between atoms: C_25  and  C_26 
ROOT
HETATM    1  C   UNL     1     -41.454  54.728 -52.857  1.00  0.00     0.149 C 
HETATM    2  N   UNL     1     -42.883  54.473 -52.988  1.00  0.00    -0.220 NA
HETATM    3  C   UNL     1     -43.302  54.575 -54.291  1.00  0.00     0.304 C 
HETATM    4  O   UNL     1     -44.413  54.238 -54.658  1.00  0.00    -0.253 OA
HETATM    5  N   UNL     1     -42.307  55.117 -55.032  1.00  0.00    -0.270 N 
HETATM    6  C   UNL     1     -41.149  55.168 -54.306  1.00  0.00     0.257 C 
HETATM    7  O   UNL     1     -40.059  55.549 -54.710  1.00  0.00    -0.270 OA
HETATM    8  H   UNL     1     -43.268  53.665 -52.501  1.00  0.00     0.134 HD
ENDROOT
BRANCH   1   9
HETATM    9  C   UNL     1     -40.777  53.418 -52.461  1.00  0.00     0.067 A 
HETATM   10  C   UNL     1     -40.178  52.560 -53.379  1.00  0.00     0.030 A 
HETATM   11  C   UNL     1     -39.575  51.394 -52.914  1.00  0.00     0.003 A 
HETATM   12  C   UNL     1     -39.571  51.115 -51.552  1.00  0.00     0.019 A 
HETATM   13  C   UNL     1     -40.167  52.022 -50.698  1.00  0.00     0.117 A 
HETATM   14  N   UNL     1     -40.759  53.164 -51.115  1.00  0.00    -0.263 NA
ENDBRANCH   1   9
BRANCH   1  15
HETATM   15  C   UNL     1     -41.130  55.877 -51.838  1.00  0.00     0.028 C 
HETATM   16  C   UNL     1     -41.976  55.856 -50.553  1.00  0.00     0.035 C 
HETATM   17  C   UNL     1     -43.428  56.262 -50.766  1.00  0.00     0.235 C 
HETATM   18  N   UNL     1     -43.549  57.581 -51.495  1.00  0.00    -0.067 N 
HETATM   19  H   UNL     1     -43.325  58.320 -50.812  1.00  0.00     0.280 HD
HETATM   20  C   UNL     1     -42.630  57.778 -52.681  1.00  0.00     0.235 C 
HETATM   21  C   UNL     1     -41.216  57.313 -52.389  1.00  0.00     0.035 C 
BRANCH  18  22
HETATM   22  C   UNL     1     -44.983  57.848 -51.955  1.00  0.00     0.278 C 
BRANCH  22  23
HETATM   23  C   UNL     1     -45.404  59.287 -51.978  1.00  0.00     0.028 A 
HETATM   24  C   UNL     1     -45.492  60.051 -53.152  1.00  0.00     0.045 A 
HETATM   25 CL   UNL     1     -45.173  59.374 -54.707  1.00  0.00    -0.084 Cl
HETATM   26  C   UNL     1     -45.870  61.396 -53.099  1.00  0.00     0.024 A 
HETATM   27  C   UNL     1     -46.167  61.996 -51.876  1.00  0.00     0.005 A 
HETATM   28  C   UNL     1     -46.095  61.248 -50.704  1.00  0.00     0.043 A 
HETATM   29  C   UNL     1     -45.718  59.911 -50.768  1.00  0.00     0.126 A 
HETATM   30  F   UNL     1     -45.679  59.187 -49.639  1.00  0.00    -0.205 F 
ENDBRANCH  22  23
ENDBRANCH  18  22
ENDBRANCH   1  15
BRANCH   5  31
HETATM   31  C   UNL     1     -42.464  55.545 -56.412  1.00  0.00     0.168 C 
BRANCH  31  32
HETATM   32  C   UNL     1     -43.189  56.901 -56.500  1.00  0.00     0.140 C 
HETATM   33  O   UNL     1     -42.273  57.966 -56.133  1.00  0.00    -0.384 OA
HETATM   34  C   UNL     1     -42.262  58.922 -57.205  1.00  0.00     0.168 C 
HETATM   35  C   UNL     1     -42.665  58.161 -58.445  1.00  0.00     0.029 C 
HETATM   36  C   UNL     1     -43.698  57.208 -57.903  1.00  0.00     0.036 C 
ENDBRANCH  31  32
ENDBRANCH   5  31
TORSDOF 6
ENDMDL
MODEL 7
REMARK VINA RESULT:      -8.0      3.018      7.234
REMARK  6 active torsions:
REMARK  status: ('A' for Active; 'I' for Inactive)
REMARK    1  A    between atoms: C_3  and  C_4 
REMARK    2  A    between atoms: C_4  and  C_5 
REMARK    3  A    between atoms: N_8  and  C_10 
REMARK    4  A    between atoms: C_10  and  C_11 
REMARK    5  A    between atoms: N_24  and  C_25 
REMARK    6  A    between atoms: C_25  and  C_26 
ROOT
HETATM    1  C   UNL     1     -41.980  55.504 -52.745  1.00  0.00     0.149 C 
HETATM    2  N   UNL     1     -41.212  56.358 -53.643  1.00  0.00    -0.220 NA
HETATM    3  C   UNL     1     -40.808  57.514 -53.024  1.00  0.00     0.304 C 
HETATM    4  O   UNL     1     -40.016  58.292 -53.525  1.00  0.00    -0.253 OA
HETATM    5  N   UNL     1     -41.447  57.624 -51.835  1.00  0.00    -0.270 N 
HETATM    6  C   UNL     1     -42.095  56.459 -51.536  1.00  0.00     0.257 C 
HETATM    7  O   UNL     1     -42.713  56.218 -50.508  1.00  0.00    -0.270 OA
HETATM    8  H   UNL     1     -40.482  55.922 -54.204  1.00  0.00     0.134 HD
ENDROOT
BRANCH   1   9
HETATM    9  C   UNL     1     -41.150  54.254 -52.461  1.00  0.00     0.067 A 
HETATM   10  C   UNL     1     -41.006  53.707 -51.189  1.00  0.00     0.030 A 
HETATM   11  C   UNL     1     -40.237  52.556 -51.037  1.00  0.00     0.003 A 
HETATM   12  C   UNL     1     -39.643  51.971 -52.149  1.00  0.00     0.019 A 
HETATM   13  C   UNL     1     -39.845  52.558 -53.383  1.00  0.00     0.117 A 
HETATM   14  N   UNL     1     -40.588  53.674 -53.567  1.00  0.00    -0.263 NA
ENDBRANCH   1   9
BRANCH   1  15
HETATM   15  C   UNL     1     -43.397  55.139 -53.314  1.00  0.00     0.028 C 
HETATM   16  C   UNL     1     -43.381  54.200 -54.531  1.00  0.00     0.035 C 
HETATM   17  C   UNL     1     -42.881  54.857 -55.809  1.00  0.00     0.235 C 
HETATM   18  N   UNL     1     -43.612  56.147 -56.108  1.00  0.00    -0.067 N 
HETATM   19  H   UNL     1     -44.540  55.887 -56.472  1.00  0.00     0.280 HD
HETATM   20  C   UNL     1     -43.837  57.077 -54.936  1.00  0.00     0.235 C 
HETATM   21  C   UNL     1     -44.298  56.329 -53.698  1.00  0.00     0.035 C 
BRANCH  18  22
HETATM   22  C   UNL     1     -42.927  56.944 -57.221  1.00  0.00     0.278 C 
BRANCH  22  23
HETATM   23  C   UNL     1     -43.828  57.454 -58.307  1.00  0.00     0.028 A 
HETATM   24  C   UNL     1     -44.193  58.802 -58.442  1.00  0.00     0.045 A 
HETATM   25 CL   UNL     1     -43.581  60.023 -57.387  1.00  0.00    -0.084 Cl
HETATM   26  C   UNL     1     -45.055  59.207 -59.465  1.00  0.00     0.024 A 
HETATM   27  C   UNL     1     -45.563  58.273 -60.367  1.00  0.00     0.005 A 
HETATM   28  C   UNL     1     -45.201  56.934 -60.252  1.00  0.00     0.043 A 
HETATM   29  C   UNL     1     -44.342  56.542 -59.231  1.00  0.00     0.126 A 
HETATM   30  F   UNL     1     -43.974  55.255 -59.143  1.00  0.00    -0.205 F 
ENDBRANCH  22  23
ENDBRANCH  18  22
ENDBRANCH   1  15
BRANCH   5  31
HETATM   31  C   UNL     1     -41.407  58.813 -51.000  1.00  0.00     0.168 C 
BRANCH  31  32
HETATM   32  C   UNL     1     -42.328  59.917 -51.550  1.00  0.00     0.140 C 
HETATM   33  O   UNL     1     -43.653  59.372 -51.782  1.00  0.00    -0.384 OA
HETATM   34  C   UNL     1     -44.594  60.193 -51.071  1.00  0.00     0.168 C 
HETATM   35  C   UNL     1     -43.821  60.829 -49.942  1.00  0.00     0.029 C 
HETATM   36  C   UNL     1     -42.484  61.089 -50.587  1.00  0.00     0.036 C 
ENDBRANCH  31  32
ENDBRANCH   5  31
TORSDOF 6
ENDMDL
MODEL 8
REMARK VINA RESULT:      -7.8      3.428      6.733
REMARK  6 active torsions:
REMARK  status: ('A' for Active; 'I' for Inactive)
REMARK    1  A    between atoms: C_3  and  C_4 
REMARK    2  A    between atoms: C_4  and  C_5 
REMARK    3  A    between atoms: N_8  and  C_10 
REMARK    4  A    between atoms: C_10  and  C_11 
REMARK    5  A    between atoms: N_24  and  C_25 
REMARK    6  A    between atoms: C_25  and  C_26 
ROOT
HETATM    1  C   UNL     1     -42.503  59.033 -51.736  1.00  0.00     0.149 C 
HETATM    2  N   UNL     1     -43.490  58.017 -52.079  1.00  0.00    -0.220 NA
HETATM    3  C   UNL     1     -43.339  56.883 -51.319  1.00  0.00     0.304 C 
HETATM    4  O   UNL     1     -44.152  55.977 -51.314  1.00  0.00    -0.253 OA
HETATM    5  N   UNL     1     -42.167  56.959 -50.644  1.00  0.00    -0.270 N 
HETATM    6  C   UNL     1     -41.637  58.214 -50.752  1.00  0.00     0.257 C 
HETATM    7  O   UNL     1     -40.619  58.619 -50.209  1.00  0.00    -0.270 OA
HETATM    8  H   UNL     1     -44.460  58.311 -52.178  1.00  0.00     0.134 HD
ENDROOT
BRANCH   1   9
HETATM    9  C   UNL     1     -43.238  60.199 -51.079  1.00  0.00     0.067 A 
HETATM   10  C   UNL     1     -42.587  61.314 -50.556  1.00  0.00     0.030 A 
HETATM   11  C   UNL     1     -43.350  62.331 -49.988  1.00  0.00     0.003 A 
HETATM   12  C   UNL     1     -44.736  62.224 -49.965  1.00  0.00     0.019 A 
HETATM   13  C   UNL     1     -45.314  61.098 -50.520  1.00  0.00     0.117 A 
HETATM   14  N   UNL     1     -44.603  60.093 -51.082  1.00  0.00    -0.263 NA
ENDBRANCH   1   9
BRANCH   1  15
HETATM   15  C   UNL     1     -41.659  59.505 -52.973  1.00  0.00     0.028 C 
HETATM   16  C   UNL     1     -42.433  60.355 -53.994  1.00  0.00     0.035 C 
HETATM   17  C   UNL     1     -43.447  59.566 -54.809  1.00  0.00     0.235 C 
HETATM   18  N   UNL     1     -42.832  58.342 -55.451  1.00  0.00    -0.067 N 
HETATM   19  H   UNL     1     -42.277  58.673 -56.253  1.00  0.00     0.280 HD
HETATM   20  C   UNL     1     -41.907  57.521 -54.578  1.00  0.00     0.235 C 
HETATM   21  C   UNL     1     -40.958  58.394 -53.777  1.00  0.00     0.035 C 
BRANCH  18  22
HETATM   22  C   UNL     1     -43.896  57.407 -56.028  1.00  0.00     0.278 C 
BRANCH  22  23
HETATM   23  C   UNL     1     -43.837  57.185 -57.510  1.00  0.00     0.028 A 
HETATM   24  C   UNL     1     -44.449  58.032 -58.445  1.00  0.00     0.045 A 
HETATM   25 CL   UNL     1     -45.290  59.462 -57.969  1.00  0.00    -0.084 Cl
HETATM   26  C   UNL     1     -44.373  57.754 -59.814  1.00  0.00     0.024 A 
HETATM   27  C   UNL     1     -43.685  56.629 -60.266  1.00  0.00     0.005 A 
HETATM   28  C   UNL     1     -43.064  55.785 -59.349  1.00  0.00     0.043 A 
HETATM   29  C   UNL     1     -43.145  56.071 -57.991  1.00  0.00     0.126 A 
HETATM   30  F   UNL     1     -42.520  55.270 -57.115  1.00  0.00    -0.205 F 
ENDBRANCH  22  23
ENDBRANCH  18  22
ENDBRANCH   1  15
BRANCH   5  31
HETATM   31  C   UNL     1     -41.593  55.856 -49.892  1.00  0.00     0.168 C 
BRANCH  31  32
HETATM   32  C   UNL     1     -40.451  55.178 -50.673  1.00  0.00     0.140 C 
HETATM   33  O   UNL     1     -39.978  54.021 -49.935  1.00  0.00    -0.384 OA
HETATM   34  C   UNL     1     -40.042  52.886 -50.812  1.00  0.00     0.168 C 
HETATM   35  C   UNL     1     -41.102  53.210 -51.836  1.00  0.00     0.029 C 
HETATM   36  C   UNL     1     -40.889  54.687 -52.048  1.00  0.00     0.036 C 
ENDBRANCH  31  32
ENDBRANCH   5  31
TORSDOF 6
ENDMDL
MODEL 9
REMARK VINA RESULT:      -7.7      3.646      8.051
REMARK  6 active torsions:
REMARK  status: ('A' for Active; 'I' for Inactive)
REMARK    1  A    between atoms: C_3  and  C_4 
REMARK    2  A    between atoms: C_4  and  C_5 
REMARK    3  A    between atoms: N_8  and  C_10 
REMARK    4  A    between atoms: C_10  and  C_11 
REMARK    5  A    between atoms: N_24  and  C_25 
REMARK    6  A    between atoms: C_25  and  C_26 
ROOT
HETATM    1  C   UNL     1     -42.156  56.975 -53.771  1.00  0.00     0.149 C 
HETATM    2  N   UNL     1     -41.068  57.882 -54.116  1.00  0.00    -0.220 NA
HETATM    3  C   UNL     1     -40.611  58.569 -53.018  1.00  0.00     0.304 C 
HETATM    4  O   UNL     1     -39.602  59.250 -53.038  1.00  0.00    -0.253 OA
HETATM    5  N   UNL     1     -41.468  58.373 -51.988  1.00  0.00    -0.270 N 
HETATM    6  C   UNL     1     -42.364  57.388 -52.297  1.00  0.00     0.257 C 
HETATM    7  O   UNL     1     -43.227  56.937 -51.556  1.00  0.00    -0.270 OA
HETATM    8  H   UNL     1     -40.322  57.525 -54.710  1.00  0.00     0.134 HD
ENDROOT
BRANCH   1   9
HETATM    9  C   UNL     1     -41.647  55.545 -53.940  1.00  0.00     0.067 A 
HETATM   10  C   UNL     1     -42.280  54.439 -53.379  1.00  0.00     0.030 A 
HETATM   11  C   UNL     1     -41.742  53.174 -53.603  1.00  0.00     0.003 A 
HETATM   12  C   UNL     1     -40.601  53.037 -54.385  1.00  0.00     0.019 A 
HETATM   13  C   UNL     1     -40.038  54.177 -54.925  1.00  0.00     0.117 A 
HETATM   14  N   UNL     1     -40.536  55.420 -54.731  1.00  0.00    -0.263 NA
ENDBRANCH   1   9
BRANCH   1  15
HETATM   15  C   UNL     1     -43.454  57.229 -54.617  1.00  0.00     0.028 C 
HETATM   16  C   UNL     1     -43.426  56.634 -56.035  1.00  0.00     0.035 C 
HETATM   17  C   UNL     1     -42.490  57.362 -56.989  1.00  0.00     0.235 C 
HETATM   18  N   UNL     1     -42.749  58.852 -57.013  1.00  0.00    -0.067 N 
HETATM   19  H   UNL     1     -43.607  58.998 -57.565  1.00  0.00     0.280 HD
HETATM   20  C   UNL     1     -42.965  59.516 -55.670  1.00  0.00     0.235 C 
HETATM   21  C   UNL     1     -43.880  58.701 -54.774  1.00  0.00     0.035 C 
BRANCH  18  22
HETATM   22  C   UNL     1     -41.640  59.611 -57.745  1.00  0.00     0.278 C 
BRANCH  22  23
HETATM   23  C   UNL     1     -42.040  60.273 -59.029  1.00  0.00     0.028 A 
HETATM   24  C   UNL     1     -42.111  59.601 -60.259  1.00  0.00     0.045 A 
HETATM   25 CL   UNL     1     -41.794  57.910 -60.394  1.00  0.00    -0.084 Cl
HETATM   26  C   UNL     1     -42.470  60.285 -61.425  1.00  0.00     0.024 A 
HETATM   27  C   UNL     1     -42.764  61.647 -61.378  1.00  0.00     0.005 A 
HETATM   28  C   UNL     1     -42.709  62.325 -60.164  1.00  0.00     0.043 A 
HETATM   29  C   UNL     1     -42.351  61.635 -59.010  1.00  0.00     0.126 A 
HETATM   30  F   UNL     1     -42.328  62.286 -57.838  1.00  0.00    -0.205 F 
ENDBRANCH  22  23
ENDBRANCH  18  22
ENDBRANCH   1  15
BRANCH   5  31
HETATM   31  C   UNL     1     -41.401  59.098 -50.730  1.00  0.00     0.168 C 
BRANCH  31  32
HETATM   32  C   UNL     1     -42.046  60.491 -50.850  1.00  0.00     0.140 C 
HETATM   33  O   UNL     1     -42.535  60.684 -52.204  1.00  0.00    -0.384 OA
HETATM   34  C   UNL     1     -43.925  61.040 -52.120  1.00  0.00     0.168 C 
HETATM   35  C   UNL     1     -44.422  60.469 -50.814  1.00  0.00     0.029 C 
HETATM   36  C   UNL     1     -43.233  60.674 -49.912  1.00  0.00     0.036 C 
ENDBRANCH  31  32
ENDBRANCH   5  31
TORSDOF 6
ENDMDL
MODEL 10
REMARK VINA RESULT:      -7.6      1.966      3.085
REMARK  6 active torsions:
REMARK  status: ('A' for Active; 'I' for Inactive)
REMARK    1  A    between atoms: C_3  and  C_4 
REMARK    2  A    between atoms: C_4  and  C_5 
REMARK    3  A    between atoms: N_8  and  C_10 
REMARK    4  A    between atoms: C_10  and  C_11 
REMARK    5  A    between atoms: N_24  and  C_25 
REMARK    6  A    between atoms: C_25  and  C_26 
ROOT
HETATM    1  C   UNL     1     -42.511  59.671 -52.625  1.00  0.00     0.149 C 
HETATM    2  N   UNL     1     -42.385  60.791 -53.550  1.00  0.00    -0.220 NA
HETATM    3  C   UNL     1     -42.997  60.531 -54.751  1.00  0.00     0.304 C 
HETATM    4  O   UNL     1     -43.164  61.381 -55.606  1.00  0.00    -0.253 OA
HETATM    5  N   UNL     1     -43.329  59.219 -54.801  1.00  0.00    -0.270 N 
HETATM    6  C   UNL     1     -43.164  58.641 -53.573  1.00  0.00     0.257 C 
HETATM    7  O   UNL     1     -43.434  57.485 -53.276  1.00  0.00    -0.270 OA
HETATM    8  H   UNL     1     -42.574  61.725 -53.193  1.00  0.00     0.134 HD
ENDROOT
BRANCH   1   9
HETATM    9  C   UNL     1     -43.419  60.109 -51.479  1.00  0.00     0.067 A 
HETATM   10  C   UNL     1     -43.111  61.160 -50.619  1.00  0.00     0.030 A 
HETATM   11  C   UNL     1     -44.013  61.489 -49.611  1.00  0.00     0.003 A 
HETATM   12  C   UNL     1     -45.202  60.778 -49.489  1.00  0.00     0.019 A 
HETATM   13  C   UNL     1     -45.450  59.761 -50.390  1.00  0.00     0.117 A 
HETATM   14  N   UNL     1     -44.597  59.417 -51.382  1.00  0.00    -0.263 NA
ENDBRANCH   1   9
BRANCH   1  15
HETATM   15  C   UNL     1     -41.125  59.155 -52.099  1.00  0.00     0.028 C 
HETATM   16  C   UNL     1     -40.308  58.347 -53.121  1.00  0.00     0.035 C 
HETATM   17  C   UNL     1     -40.875  56.963 -53.406  1.00  0.00     0.235 C 
HETATM   18  N   UNL     1     -41.119  56.177 -52.137  1.00  0.00    -0.067 N 
HETATM   19  H   UNL     1     -40.198  55.854 -51.805  1.00  0.00     0.280 HD
HETATM   20  C   UNL     1     -41.766  56.930 -50.996  1.00  0.00     0.235 C 
HETATM   21  C   UNL     1     -41.163  58.310 -50.811  1.00  0.00     0.035 C 
BRANCH  18  22
HETATM   22  C   UNL     1     -41.941  54.914 -52.400  1.00  0.00     0.278 C 
BRANCH  22  23
HETATM   23  C   UNL     1     -41.154  53.670 -52.689  1.00  0.00     0.028 A 
HETATM   24  C   UNL     1     -40.314  53.050 -51.753  1.00  0.00     0.045 A 
HETATM   25 CL   UNL     1     -40.153  53.639 -50.139  1.00  0.00    -0.084 Cl
HETATM   26  C   UNL     1     -39.590  51.903 -52.095  1.00  0.00     0.024 A 
HETATM   27  C   UNL     1     -39.696  51.362 -53.376  1.00  0.00     0.005 A 
HETATM   28  C   UNL     1     -40.535  51.960 -54.312  1.00  0.00     0.043 A 
HETATM   29  C   UNL     1     -41.250  53.099 -53.961  1.00  0.00     0.126 A 
HETATM   30  F   UNL     1     -42.078  53.655 -54.857  1.00  0.00    -0.205 F 
ENDBRANCH  22  23
ENDBRANCH  18  22
ENDBRANCH   1  15
BRANCH   5  31
HETATM   31  C   UNL     1     -43.821  58.552 -55.995  1.00  0.00     0.168 C 
BRANCH  31  32
HETATM   32  C   UNL     1     -42.742  57.646 -56.617  1.00  0.00     0.140 C 
HETATM   33  O   UNL     1     -43.212  56.273 -56.634  1.00  0.00    -0.384 OA
HETATM   34  C   UNL     1     -43.112  55.794 -57.985  1.00  0.00     0.168 C 
HETATM   35  C   UNL     1     -43.178  57.017 -58.866  1.00  0.00     0.029 C 
HETATM   36  C   UNL     1     -42.409  58.027 -58.055  1.00  0.00     0.036 C 
ENDBRANCH  31  32
ENDBRANCH   5  31
TORSDOF 6
ENDMDL
