MODEL 1
REMARK VINA RESULT:      -7.1      0.000      0.000
REMARK  7 active torsions:
REMARK  status: ('A' for Active; 'I' for Inactive)
REMARK    1  A    between atoms: C_2  and  C_3 
REMARK    2  A    between atoms: C_3  and  N_4 
REMARK    3  A    between atoms: C_7  and  C_8 
REMARK    4  A    between atoms: C_8  and  N_9 
REMARK       I    between atoms: N_9  and  C_10 
REMARK       I    between atoms: C_10  and  N_11 
REMARK    5  A    between atoms: N_11  and  C_12 
REMARK    6  A    between atoms: C_15  and  N_16 
REMARK       I    between atoms: N_16  and  C_17 
REMARK    7  A    between atoms: C_17  and  C_18 
ROOT
HETATM    1  N   UNL     1     -41.128  56.591 -51.124  1.00  0.00    -0.342 N 
HETATM    2  C   UNL     1     -40.936  55.290 -50.764  1.00  0.00     0.320 C 
HETATM    3  N   UNL     1     -41.352  54.333 -51.640  1.00  0.00    -0.309 N 
HETATM    4  O   UNL     1     -40.431  54.964 -49.693  1.00  0.00    -0.247 OA
HETATM    5  H   UNL     1     -41.901  56.684 -51.773  1.00  0.00     0.164 HD
HETATM    6  H   UNL     1     -41.407  53.420 -51.200  1.00  0.00     0.170 HD
ENDROOT
BRANCH   3   7
HETATM    7  C   UNL     1     -41.750  54.401 -52.987  1.00  0.00     0.036 A 
HETATM    8  C   UNL     1     -40.861  54.449 -54.061  1.00  0.00     0.032 A 
HETATM    9  C   UNL     1     -41.331  54.582 -55.374  1.00  0.00     0.032 A 
HETATM   10  C   UNL     1     -42.698  54.657 -55.635  1.00  0.00     0.035 A 
HETATM   11  C   UNL     1     -43.591  54.531 -54.566  1.00  0.00     0.032 A 
HETATM   12  C   UNL     1     -43.121  54.391 -53.255  1.00  0.00     0.032 A 
BRANCH  10  13
HETATM   13  N   UNL     1     -43.244  54.881 -56.910  1.00  0.00    -0.321 N 
HETATM   14  C   UNL     1     -43.161  56.023 -57.690  1.00  0.00     0.279 C 
HETATM   15  O   UNL     1     -42.493  57.018 -57.422  1.00  0.00    -0.265 OA
HETATM   16  H   UNL     1     -43.836  54.154 -57.299  1.00  0.00     0.169 HD
BRANCH  14  17
HETATM   17  C   UNL     1     -43.982  55.940 -58.885  1.00  0.00     0.142 A 
HETATM   18  O   UNL     1     -44.913  56.919 -59.129  1.00  0.00    -0.317 OA
HETATM   19  C   UNL     1     -45.509  56.617 -60.312  1.00  0.00     0.143 A 
HETATM   20  C   UNL     1     -44.986  55.459 -60.835  1.00  0.00     0.027 A 
HETATM   21  C   UNL     1     -44.004  55.019 -59.914  1.00  0.00     0.045 A 
ENDBRANCH  14  17
ENDBRANCH  10  13
ENDBRANCH   3   7
BRANCH   1  22
HETATM   22  C   UNL     1     -40.975  57.728 -50.232  1.00  0.00     0.130 C 
BRANCH  22  23
HETATM   23  C   UNL     1     -40.451  59.046 -50.827  1.00  0.00     0.031 C 
HETATM   24  C   UNL     1     -40.129  58.983 -52.314  1.00  0.00     0.241 C 
HETATM   25  N   UNL     1     -41.364  59.522 -53.032  1.00  0.00    -0.071 N 
HETATM   26  H   UNL     1     -41.044  60.364 -53.529  1.00  0.00     0.279 HD
HETATM   27  C   UNL     1     -42.345  59.963 -51.973  1.00  0.00     0.235 C 
HETATM   28  C   UNL     1     -41.487  60.162 -50.740  1.00  0.00     0.035 C 
BRANCH  25  29
HETATM   29  C   UNL     1     -41.909  58.564 -54.057  1.00  0.00     0.234 C 
BRANCH  29  30
HETATM   30  C   UNL     1     -43.281  58.022 -53.662  1.00  0.00     0.023 C 
HETATM   31  C   UNL     1     -44.348  58.223 -54.729  1.00  0.00     0.007 C 
ENDBRANCH  29  30
ENDBRANCH  25  29
ENDBRANCH  22  23
ENDBRANCH   1  22
TORSDOF 7
ENDMDL
MODEL 2
REMARK VINA RESULT:      -6.8      3.394      6.178
REMARK  7 active torsions:
REMARK  status: ('A' for Active; 'I' for Inactive)
REMARK    1  A    between atoms: C_2  and  C_3 
REMARK    2  A    between atoms: C_3  and  N_4 
REMARK    3  A    between atoms: C_7  and  C_8 
REMARK    4  A    between atoms: C_8  and  N_9 
REMARK       I    between atoms: N_9  and  C_10 
REMARK       I    between atoms: C_10  and  N_11 
REMARK    5  A    between atoms: N_11  and  C_12 
REMARK    6  A    between atoms: C_15  and  N_16 
REMARK       I    between atoms: N_16  and  C_17 
REMARK    7  A    between atoms: C_17  and  C_18 
ROOT
HETATM    1  N   UNL     1     -44.493  59.117 -52.989  1.00  0.00    -0.342 N 
HETATM    2  C   UNL     1     -44.267  59.400 -51.674  1.00  0.00     0.320 C 
HETATM    3  N   UNL     1     -43.669  58.433 -50.923  1.00  0.00    -0.309 N 
HETATM    4  O   UNL     1     -44.596  60.464 -51.157  1.00  0.00    -0.247 OA
HETATM    5  H   UNL     1     -44.575  58.119 -53.143  1.00  0.00     0.164 HD
HETATM    6  H   UNL     1     -43.767  58.616 -49.930  1.00  0.00     0.170 HD
ENDROOT
BRANCH   3   7
HETATM    7  C   UNL     1     -43.007  57.243 -51.276  1.00  0.00     0.036 A 
HETATM    8  C   UNL     1     -41.731  57.199 -51.839  1.00  0.00     0.032 A 
HETATM    9  C   UNL     1     -41.162  55.979 -52.226  1.00  0.00     0.032 A 
HETATM   10  C   UNL     1     -41.854  54.783 -52.044  1.00  0.00     0.035 A 
HETATM   11  C   UNL     1     -43.098  54.820 -51.409  1.00  0.00     0.032 A 
HETATM   12  C   UNL     1     -43.664  56.039 -51.016  1.00  0.00     0.032 A 
BRANCH  10  13
HETATM   13  N   UNL     1     -41.390  53.533 -52.486  1.00  0.00    -0.321 N 
HETATM   14  C   UNL     1     -40.289  52.819 -52.042  1.00  0.00     0.279 C 
HETATM   15  O   UNL     1     -39.577  53.134 -51.092  1.00  0.00    -0.265 OA
HETATM   16  H   UNL     1     -41.866  53.112 -53.279  1.00  0.00     0.169 HD
BRANCH  14  17
HETATM   17  C   UNL     1     -40.033  51.636 -52.843  1.00  0.00     0.142 A 
HETATM   18  O   UNL     1     -39.607  50.486 -52.227  1.00  0.00    -0.317 OA
HETATM   19  C   UNL     1     -39.478  49.539 -53.192  1.00  0.00     0.143 A 
HETATM   20  C   UNL     1     -39.808  50.055 -54.422  1.00  0.00     0.027 A 
HETATM   21  C   UNL     1     -40.163  51.407 -54.200  1.00  0.00     0.045 A 
ENDBRANCH  14  17
ENDBRANCH  10  13
ENDBRANCH   3   7
BRANCH   1  22
HETATM   22  C   UNL     1     -45.324  59.914 -53.876  1.00  0.00     0.130 C 
BRANCH  22  23
HETATM   23  C   UNL     1     -44.802  60.195 -55.294  1.00  0.00     0.031 C 
HETATM   24  C   UNL     1     -43.369  59.744 -55.540  1.00  0.00     0.241 C 
HETATM   25  N   UNL     1     -43.470  58.369 -56.196  1.00  0.00    -0.071 N 
HETATM   26  H   UNL     1     -43.045  58.479 -57.127  1.00  0.00     0.279 HD
HETATM   27  C   UNL     1     -44.936  58.073 -56.398  1.00  0.00     0.235 C 
HETATM   28  C   UNL     1     -45.595  59.437 -56.355  1.00  0.00     0.035 C 
BRANCH  25  29
HETATM   29  C   UNL     1     -42.694  57.310 -55.460  1.00  0.00     0.234 C 
BRANCH  29  30
HETATM   30  C   UNL     1     -43.579  56.137 -55.045  1.00  0.00     0.023 C 
HETATM   31  C   UNL     1     -43.052  54.784 -55.502  1.00  0.00     0.007 C 
ENDBRANCH  29  30
ENDBRANCH  25  29
ENDBRANCH  22  23
ENDBRANCH   1  22
TORSDOF 7
ENDMDL
MODEL 3
REMARK VINA RESULT:      -6.8      3.219      7.644
REMARK  7 active torsions:
REMARK  status: ('A' for Active; 'I' for Inactive)
REMARK    1  A    between atoms: C_2  and  C_3 
REMARK    2  A    between atoms: C_3  and  N_4 
REMARK    3  A    between atoms: C_7  and  C_8 
REMARK    4  A    between atoms: C_8  and  N_9 
REMARK       I    between atoms: N_9  and  C_10 
REMARK       I    between atoms: C_10  and  N_11 
REMARK    5  A    between atoms: N_11  and  C_12 
REMARK    6  A    between atoms: C_15  and  N_16 
REMARK       I    between atoms: N_16  and  C_17 
REMARK    7  A    between atoms: C_17  and  C_18 
ROOT
HETATM    1  N   UNL     1     -45.924  57.630 -57.433  1.00  0.00    -0.342 N 
HETATM    2  C   UNL     1     -45.506  58.697 -56.695  1.00  0.00     0.320 C 
HETATM    3  N   UNL     1     -44.622  58.451 -55.688  1.00  0.00    -0.309 N 
HETATM    4  O   UNL     1     -45.907  59.841 -56.895  1.00  0.00    -0.247 OA
HETATM    5  H   UNL     1     -45.864  56.768 -56.902  1.00  0.00     0.164 HD
HETATM    6  H   UNL     1     -44.560  59.233 -55.044  1.00  0.00     0.170 HD
ENDROOT
BRANCH   3   7
HETATM    7  C   UNL     1     -43.847  57.320 -55.373  1.00  0.00     0.036 A 
HETATM    8  C   UNL     1     -42.656  56.988 -56.019  1.00  0.00     0.032 A 
HETATM    9  C   UNL     1     -41.971  55.810 -55.696  1.00  0.00     0.032 A 
HETATM   10  C   UNL     1     -42.460  54.951 -54.713  1.00  0.00     0.035 A 
HETATM   11  C   UNL     1     -43.612  55.323 -54.013  1.00  0.00     0.032 A 
HETATM   12  C   UNL     1     -44.292  56.504 -54.331  1.00  0.00     0.032 A 
BRANCH  10  13
HETATM   13  N   UNL     1     -41.883  53.710 -54.396  1.00  0.00    -0.321 N 
HETATM   14  C   UNL     1     -40.908  53.434 -53.451  1.00  0.00     0.279 C 
HETATM   15  O   UNL     1     -40.449  54.243 -52.649  1.00  0.00    -0.265 OA
HETATM   16  H   UNL     1     -42.148  52.912 -54.966  1.00  0.00     0.169 HD
BRANCH  14  17
HETATM   17  C   UNL     1     -40.446  52.059 -53.515  1.00  0.00     0.142 A 
HETATM   18  O   UNL     1     -40.859  51.258 -54.550  1.00  0.00    -0.317 OA
HETATM   19  C   UNL     1     -40.261  50.050 -54.385  1.00  0.00     0.143 A 
HETATM   20  C   UNL     1     -39.473  50.051 -53.259  1.00  0.00     0.027 A 
HETATM   21  C   UNL     1     -39.595  51.344 -52.694  1.00  0.00     0.045 A 
ENDBRANCH  14  17
ENDBRANCH  10  13
ENDBRANCH   3   7
BRANCH   1  22
HETATM   22  C   UNL     1     -47.031  57.657 -58.375  1.00  0.00     0.130 C 
BRANCH  22  23
HETATM   23  C   UNL     1     -46.703  57.827 -59.867  1.00  0.00     0.031 C 
HETATM   24  C   UNL     1     -45.228  58.051 -60.168  1.00  0.00     0.241 C 
HETATM   25  N   UNL     1     -44.662  56.680 -60.529  1.00  0.00    -0.071 N 
HETATM   26  H   UNL     1     -44.339  56.765 -61.502  1.00  0.00     0.279 HD
HETATM   27  C   UNL     1     -45.810  55.700 -60.515  1.00  0.00     0.235 C 
HETATM   28  C   UNL     1     -47.038  56.574 -60.671  1.00  0.00     0.035 C 
BRANCH  25  29
HETATM   29  C   UNL     1     -43.477  56.294 -59.684  1.00  0.00     0.234 C 
BRANCH  29  30
HETATM   30  C   UNL     1     -42.193  56.974 -60.154  1.00  0.00     0.023 C 
HETATM   31  C   UNL     1     -41.803  58.185 -59.319  1.00  0.00     0.007 C 
ENDBRANCH  29  30
ENDBRANCH  25  29
ENDBRANCH  22  23
ENDBRANCH   1  22
TORSDOF 7
ENDMDL
MODEL 4
REMARK VINA RESULT:      -6.6      1.574      3.945
REMARK  7 active torsions:
REMARK  status: ('A' for Active; 'I' for Inactive)
REMARK    1  A    between atoms: C_2  and  C_3 
REMARK    2  A    between atoms: C_3  and  N_4 
REMARK    3  A    between atoms: C_7  and  C_8 
REMARK    4  A    between atoms: C_8  and  N_9 
REMARK       I    between atoms: N_9  and  C_10 
REMARK       I    between atoms: C_10  and  N_11 
REMARK    5  A    between atoms: N_11  and  C_12 
REMARK    6  A    between atoms: C_15  and  N_16 
REMARK       I    between atoms: N_16  and  C_17 
REMARK    7  A    between atoms: C_17  and  C_18 
ROOT
HETATM    1  N   UNL     1     -41.635  57.089 -51.066  1.00  0.00    -0.342 N 
HETATM    2  C   UNL     1     -41.707  58.450 -51.048  1.00  0.00     0.320 C 
HETATM    3  N   UNL     1     -42.066  59.071 -52.206  1.00  0.00    -0.309 N 
HETATM    4  O   UNL     1     -41.446  59.116 -50.049  1.00  0.00    -0.247 OA
HETATM    5  H   UNL     1     -41.451  56.741 -52.000  1.00  0.00     0.164 HD
HETATM    6  H   UNL     1     -41.853  60.063 -52.181  1.00  0.00     0.170 HD
ENDROOT
BRANCH   3   7
HETATM    7  C   UNL     1     -42.616  58.581 -53.404  1.00  0.00     0.036 A 
HETATM    8  C   UNL     1     -43.985  58.451 -53.637  1.00  0.00     0.032 A 
HETATM    9  C   UNL     1     -44.458  57.892 -54.831  1.00  0.00     0.032 A 
HETATM   10  C   UNL     1     -43.569  57.466 -55.817  1.00  0.00     0.035 A 
HETATM   11  C   UNL     1     -42.200  57.668 -55.616  1.00  0.00     0.032 A 
HETATM   12  C   UNL     1     -41.729  58.233 -54.425  1.00  0.00     0.032 A 
BRANCH  10  13
HETATM   13  N   UNL     1     -43.960  56.816 -56.999  1.00  0.00    -0.321 N 
HETATM   14  C   UNL     1     -43.822  57.254 -58.306  1.00  0.00     0.279 C 
HETATM   15  O   UNL     1     -43.228  58.272 -58.653  1.00  0.00    -0.265 OA
HETATM   16  H   UNL     1     -44.473  55.944 -56.905  1.00  0.00     0.169 HD
BRANCH  14  17
HETATM   17  C   UNL     1     -44.485  56.381 -59.258  1.00  0.00     0.142 A 
HETATM   18  O   UNL     1     -45.791  56.628 -59.600  1.00  0.00    -0.317 OA
HETATM   19  C   UNL     1     -46.148  55.694 -60.519  1.00  0.00     0.143 A 
HETATM   20  C   UNL     1     -45.099  54.843 -60.775  1.00  0.00     0.027 A 
HETATM   21  C   UNL     1     -44.028  55.282 -59.960  1.00  0.00     0.045 A 
ENDBRANCH  14  17
ENDBRANCH  10  13
ENDBRANCH   3   7
BRANCH   1  22
HETATM   22  C   UNL     1     -41.045  56.277 -50.015  1.00  0.00     0.130 C 
BRANCH  22  23
HETATM   23  C   UNL     1     -41.640  54.882 -49.762  1.00  0.00     0.031 C 
HETATM   24  C   UNL     1     -42.640  54.422 -50.814  1.00  0.00     0.241 C 
HETATM   25  N   UNL     1     -41.849  53.555 -51.791  1.00  0.00    -0.071 N 
HETATM   26  H   UNL     1     -42.272  52.619 -51.729  1.00  0.00     0.279 HD
HETATM   27  C   UNL     1     -40.438  53.452 -51.263  1.00  0.00     0.235 C 
HETATM   28  C   UNL     1     -40.572  53.792 -49.792  1.00  0.00     0.035 C 
BRANCH  25  29
HETATM   29  C   UNL     1     -41.971  54.020 -53.217  1.00  0.00     0.234 C 
BRANCH  29  30
HETATM   30  C   UNL     1     -40.721  54.761 -53.687  1.00  0.00     0.023 C 
HETATM   31  C   UNL     1     -40.213  54.300 -55.046  1.00  0.00     0.007 C 
ENDBRANCH  29  30
ENDBRANCH  25  29
ENDBRANCH  22  23
ENDBRANCH   1  22
TORSDOF 7
ENDMDL
MODEL 5
REMARK VINA RESULT:      -6.5     16.131     18.207
REMARK  7 active torsions:
REMARK  status: ('A' for Active; 'I' for Inactive)
REMARK    1  A    between atoms: C_2  and  C_3 
REMARK    2  A    between atoms: C_3  and  N_4 
REMARK    3  A    between atoms: C_7  and  C_8 
REMARK    4  A    between atoms: C_8  and  N_9 
REMARK       I    between atoms: N_9  and  C_10 
REMARK       I    between atoms: C_10  and  N_11 
REMARK    5  A    between atoms: N_11  and  C_12 
REMARK    6  A    between atoms: C_15  and  N_16 
REMARK       I    between atoms: N_16  and  C_17 
REMARK    7  A    between atoms: C_17  and  C_18 
ROOT
HETATM    1  N   UNL     1     -35.769  40.664 -53.192  1.00  0.00    -0.342 N 
HETATM    2  C   UNL     1     -35.757  42.023 -53.312  1.00  0.00     0.320 C 
HETATM    3  N   UNL     1     -36.130  42.545 -54.513  1.00  0.00    -0.309 N 
HETATM    4  O   UNL     1     -35.409  42.767 -52.398  1.00  0.00    -0.247 OA
HETATM    5  H   UNL     1     -35.649  40.213 -54.092  1.00  0.00     0.164 HD
HETATM    6  H   UNL     1     -35.855  43.519 -54.599  1.00  0.00     0.170 HD
ENDROOT
BRANCH   3   7
HETATM    7  C   UNL     1     -36.763  41.975 -55.631  1.00  0.00     0.036 A 
HETATM    8  C   UNL     1     -38.052  41.441 -55.608  1.00  0.00     0.032 A 
HETATM    9  C   UNL     1     -38.593  40.828 -56.746  1.00  0.00     0.032 A 
HETATM   10  C   UNL     1     -37.858  40.751 -57.928  1.00  0.00     0.035 A 
HETATM   11  C   UNL     1     -36.598  41.354 -57.973  1.00  0.00     0.032 A 
HETATM   12  C   UNL     1     -36.061  41.972 -56.838  1.00  0.00     0.032 A 
BRANCH  10  13
HETATM   13  N   UNL     1     -38.293  40.076 -59.081  1.00  0.00    -0.321 N 
HETATM   14  C   UNL     1     -38.448  38.712 -59.270  1.00  0.00     0.279 C 
HETATM   15  O   UNL     1     -38.317  37.857 -58.399  1.00  0.00    -0.265 OA
HETATM   16  H   UNL     1     -38.454  40.632 -59.915  1.00  0.00     0.169 HD
BRANCH  14  17
HETATM   17  C   UNL     1     -38.769  38.374 -60.645  1.00  0.00     0.142 A 
HETATM   18  O   UNL     1     -40.059  38.042 -60.972  1.00  0.00    -0.317 OA
HETATM   19  C   UNL     1     -40.086  37.807 -62.309  1.00  0.00     0.143 A 
HETATM   20  C   UNL     1     -38.835  37.976 -62.854  1.00  0.00     0.027 A 
HETATM   21  C   UNL     1     -37.984  38.338 -61.782  1.00  0.00     0.045 A 
ENDBRANCH  14  17
ENDBRANCH  10  13
ENDBRANCH   3   7
BRANCH   1  22
HETATM   22  C   UNL     1     -35.182  39.925 -52.087  1.00  0.00     0.130 C 
BRANCH  22  23
HETATM   23  C   UNL     1     -34.090  38.892 -52.410  1.00  0.00     0.031 C 
HETATM   24  C   UNL     1     -33.818  38.706 -53.897  1.00  0.00     0.241 C 
HETATM   25  N   UNL     1     -32.619  39.597 -54.217  1.00  0.00    -0.071 N 
HETATM   26  H   UNL     1     -31.879  38.956 -54.531  1.00  0.00     0.279 HD
HETATM   27  C   UNL     1     -32.161  40.220 -52.920  1.00  0.00     0.235 C 
HETATM   28  C   UNL     1     -32.731  39.305 -51.854  1.00  0.00     0.035 C 
BRANCH  25  29
HETATM   29  C   UNL     1     -32.893  40.567 -55.335  1.00  0.00     0.234 C 
BRANCH  29  30
HETATM   30  C   UNL     1     -32.218  40.144 -56.638  1.00  0.00     0.023 C 
HETATM   31  C   UNL     1     -30.783  39.669 -56.456  1.00  0.00     0.007 C 
ENDBRANCH  29  30
ENDBRANCH  25  29
ENDBRANCH  22  23
ENDBRANCH   1  22
TORSDOF 7
ENDMDL
MODEL 6
REMARK VINA RESULT:      -6.4      2.792      5.852
REMARK  7 active torsions:
REMARK  status: ('A' for Active; 'I' for Inactive)
REMARK    1  A    between atoms: C_2  and  C_3 
REMARK    2  A    between atoms: C_3  and  N_4 
REMARK    3  A    between atoms: C_7  and  C_8 
REMARK    4  A    between atoms: C_8  and  N_9 
REMARK       I    between atoms: N_9  and  C_10 
REMARK       I    between atoms: C_10  and  N_11 
REMARK    5  A    between atoms: N_11  and  C_12 
REMARK    6  A    between atoms: C_15  and  N_16 
REMARK       I    between atoms: N_16  and  C_17 
REMARK    7  A    between atoms: C_17  and  C_18 
ROOT
HETATM    1  N   UNL     1     -43.607  59.276 -53.845  1.00  0.00    -0.342 N 
HETATM    2  C   UNL     1     -44.098  59.259 -55.117  1.00  0.00     0.320 C 
HETATM    3  N   UNL     1     -43.891  58.130 -55.850  1.00  0.00    -0.309 N 
HETATM    4  O   UNL     1     -44.689  60.215 -55.613  1.00  0.00    -0.247 OA
HETATM    5  H   UNL     1     -42.817  58.647 -53.747  1.00  0.00     0.164 HD
HETATM    6  H   UNL     1     -44.056  58.290 -56.839  1.00  0.00     0.170 HD
ENDROOT
BRANCH   3   7
HETATM    7  C   UNL     1     -43.456  56.842 -55.491  1.00  0.00     0.036 A 
HETATM    8  C   UNL     1     -44.149  56.000 -54.621  1.00  0.00     0.032 A 
HETATM    9  C   UNL     1     -43.621  54.755 -54.257  1.00  0.00     0.032 A 
HETATM   10  C   UNL     1     -42.397  54.326 -54.768  1.00  0.00     0.035 A 
HETATM   11  C   UNL     1     -41.741  55.136 -55.700  1.00  0.00     0.032 A 
HETATM   12  C   UNL     1     -42.272  56.377 -56.068  1.00  0.00     0.032 A 
BRANCH  10  13
HETATM   13  N   UNL     1     -41.759  53.135 -54.384  1.00  0.00    -0.321 N 
HETATM   14  C   UNL     1     -40.730  52.969 -53.471  1.00  0.00     0.279 C 
HETATM   15  O   UNL     1     -40.263  53.854 -52.760  1.00  0.00    -0.265 OA
HETATM   16  H   UNL     1     -42.022  52.285 -54.875  1.00  0.00     0.169 HD
BRANCH  14  17
HETATM   17  C   UNL     1     -40.222  51.608 -53.449  1.00  0.00     0.142 A 
HETATM   18  O   UNL     1     -39.835  51.055 -52.254  1.00  0.00    -0.317 OA
HETATM   19  C   UNL     1     -39.437  49.782 -52.513  1.00  0.00     0.143 A 
HETATM   20  C   UNL     1     -39.554  49.503 -53.854  1.00  0.00     0.027 A 
HETATM   21  C   UNL     1     -40.055  50.681 -54.460  1.00  0.00     0.045 A 
ENDBRANCH  14  17
ENDBRANCH  10  13
ENDBRANCH   3   7
BRANCH   1  22
HETATM   22  C   UNL     1     -43.517  60.460 -53.007  1.00  0.00     0.130 C 
BRANCH  22  23
HETATM   23  C   UNL     1     -43.606  60.273 -51.484  1.00  0.00     0.031 C 
HETATM   24  C   UNL     1     -43.880  58.843 -51.038  1.00  0.00     0.241 C 
HETATM   25  N   UNL     1     -42.516  58.239 -50.710  1.00  0.00    -0.071 N 
HETATM   26  H   UNL     1     -42.554  58.008 -49.708  1.00  0.00     0.279 HD
HETATM   27  C   UNL     1     -41.486  59.329 -50.886  1.00  0.00     0.235 C 
HETATM   28  C   UNL     1     -42.290  60.611 -50.790  1.00  0.00     0.035 C 
BRANCH  25  29
HETATM   29  C   UNL     1     -42.243  56.967 -51.465  1.00  0.00     0.234 C 
BRANCH  29  30
HETATM   30  C   UNL     1     -42.406  55.731 -50.584  1.00  0.00     0.023 C 
HETATM   31  C   UNL     1     -43.809  55.141 -50.614  1.00  0.00     0.007 C 
ENDBRANCH  29  30
ENDBRANCH  25  29
ENDBRANCH  22  23
ENDBRANCH   1  22
TORSDOF 7
ENDMDL
MODEL 7
REMARK VINA RESULT:      -6.4     16.142     19.609
REMARK  7 active torsions:
REMARK  status: ('A' for Active; 'I' for Inactive)
REMARK    1  A    between atoms: C_2  and  C_3 
REMARK    2  A    between atoms: C_3  and  N_4 
REMARK    3  A    between atoms: C_7  and  C_8 
REMARK    4  A    between atoms: C_8  and  N_9 
REMARK       I    between atoms: N_9  and  C_10 
REMARK       I    between atoms: C_10  and  N_11 
REMARK    5  A    between atoms: N_11  and  C_12 
REMARK    6  A    between atoms: C_15  and  N_16 
REMARK       I    between atoms: N_16  and  C_17 
REMARK    7  A    between atoms: C_17  and  C_18 
ROOT
HETATM    1  N   UNL     1     -37.160  40.689 -59.872  1.00  0.00    -0.342 N 
HETATM    2  C   UNL     1     -37.210  42.047 -59.752  1.00  0.00     0.320 C 
HETATM    3  N   UNL     1     -37.045  42.568 -58.505  1.00  0.00    -0.309 N 
HETATM    4  O   UNL     1     -37.412  42.791 -60.708  1.00  0.00    -0.247 OA
HETATM    5  H   UNL     1     -37.421  40.232 -59.005  1.00  0.00     0.164 HD
HETATM    6  H   UNL     1     -37.343  43.537 -58.462  1.00  0.00     0.170 HD
ENDROOT
BRANCH   3   7
HETATM    7  C   UNL     1     -36.597  41.999 -57.299  1.00  0.00     0.036 A 
HETATM    8  C   UNL     1     -37.399  41.228 -56.457  1.00  0.00     0.032 A 
HETATM    9  C   UNL     1     -36.902  40.750 -55.238  1.00  0.00     0.032 A 
HETATM   10  C   UNL     1     -35.592  41.024 -54.848  1.00  0.00     0.035 A 
HETATM   11  C   UNL     1     -34.766  41.730 -55.727  1.00  0.00     0.032 A 
HETATM   12  C   UNL     1     -35.261  42.203 -56.948  1.00  0.00     0.032 A 
BRANCH  10  13
HETATM   13  N   UNL     1     -35.050  40.657 -53.605  1.00  0.00    -0.321 N 
HETATM   14  C   UNL     1     -34.929  41.428 -52.460  1.00  0.00     0.279 C 
HETATM   15  O   UNL     1     -35.382  42.561 -52.317  1.00  0.00    -0.265 OA
HETATM   16  H   UNL     1     -34.622  39.738 -53.534  1.00  0.00     0.169 HD
BRANCH  14  17
HETATM   17  C   UNL     1     -34.174  40.759 -51.416  1.00  0.00     0.142 A 
HETATM   18  O   UNL     1     -34.790  39.801 -50.649  1.00  0.00    -0.317 OA
HETATM   19  C   UNL     1     -33.860  39.321 -49.784  1.00  0.00     0.143 A 
HETATM   20  C   UNL     1     -32.654  39.953 -49.973  1.00  0.00     0.027 A 
HETATM   21  C   UNL     1     -32.856  40.883 -51.021  1.00  0.00     0.045 A 
ENDBRANCH  14  17
ENDBRANCH  10  13
ENDBRANCH   3   7
BRANCH   1  22
HETATM   22  C   UNL     1     -37.549  39.948 -61.061  1.00  0.00     0.130 C 
BRANCH  22  23
HETATM   23  C   UNL     1     -36.703  38.728 -61.458  1.00  0.00     0.031 C 
HETATM   24  C   UNL     1     -35.610  38.366 -60.462  1.00  0.00     0.241 C 
HETATM   25  N   UNL     1     -36.198  37.268 -59.578  1.00  0.00    -0.071 N 
HETATM   26  H   UNL     1     -35.604  36.443 -59.737  1.00  0.00     0.279 HD
HETATM   27  C   UNL     1     -37.574  36.948 -60.110  1.00  0.00     0.235 C 
HETATM   28  C   UNL     1     -37.540  37.455 -61.538  1.00  0.00     0.035 C 
BRANCH  25  29
HETATM   29  C   UNL     1     -36.136  37.602 -58.111  1.00  0.00     0.234 C 
BRANCH  29  30
HETATM   30  C   UNL     1     -35.011  38.585 -57.794  1.00  0.00     0.023 C 
HETATM   31  C   UNL     1     -34.078  38.109 -56.689  1.00  0.00     0.007 C 
ENDBRANCH  29  30
ENDBRANCH  25  29
ENDBRANCH  22  23
ENDBRANCH   1  22
TORSDOF 7
ENDMDL
MODEL 8
REMARK VINA RESULT:      -6.4     16.945     20.636
REMARK  7 active torsions:
REMARK  status: ('A' for Active; 'I' for Inactive)
REMARK    1  A    between atoms: C_2  and  C_3 
REMARK    2  A    between atoms: C_3  and  N_4 
REMARK    3  A    between atoms: C_7  and  C_8 
REMARK    4  A    between atoms: C_8  and  N_9 
REMARK       I    between atoms: N_9  and  C_10 
REMARK       I    between atoms: C_10  and  N_11 
REMARK    5  A    between atoms: N_11  and  C_12 
REMARK    6  A    between atoms: C_15  and  N_16 
REMARK       I    between atoms: N_16  and  C_17 
REMARK    7  A    between atoms: C_17  and  C_18 
ROOT
HETATM    1  N   UNL     1     -36.023  40.366 -53.490  1.00  0.00    -0.342 N 
HETATM    2  C   UNL     1     -35.648  39.093 -53.800  1.00  0.00     0.320 C 
HETATM    3  N   UNL     1     -34.555  38.592 -53.160  1.00  0.00    -0.309 N 
HETATM    4  O   UNL     1     -36.239  38.410 -54.633  1.00  0.00    -0.247 OA
HETATM    5  H   UNL     1     -35.237  40.912 -53.155  1.00  0.00     0.164 HD
HETATM    6  H   UNL     1     -34.199  37.760 -53.621  1.00  0.00     0.170 HD
ENDROOT
BRANCH   3   7
HETATM    7  C   UNL     1     -33.832  39.042 -52.040  1.00  0.00     0.036 A 
HETATM    8  C   UNL     1     -32.594  39.682 -52.118  1.00  0.00     0.032 A 
HETATM    9  C   UNL     1     -31.902  40.043 -50.955  1.00  0.00     0.032 A 
HETATM   10  C   UNL     1     -32.441  39.781 -49.697  1.00  0.00     0.035 A 
HETATM   11  C   UNL     1     -33.715  39.211 -49.621  1.00  0.00     0.032 A 
HETATM   12  C   UNL     1     -34.410  38.856 -50.783  1.00  0.00     0.032 A 
BRANCH  10  13
HETATM   13  N   UNL     1     -31.771  40.030 -48.488  1.00  0.00    -0.321 N 
HETATM   14  C   UNL     1     -31.195  39.115 -47.622  1.00  0.00     0.279 C 
HETATM   15  O   UNL     1     -31.093  37.909 -47.830  1.00  0.00    -0.265 OA
HETATM   16  H   UNL     1     -31.755  40.988 -48.151  1.00  0.00     0.169 HD
BRANCH  14  17
HETATM   17  C   UNL     1     -30.728  39.731 -46.392  1.00  0.00     0.142 A 
HETATM   18  O   UNL     1     -31.102  39.192 -45.187  1.00  0.00    -0.317 OA
HETATM   19  C   UNL     1     -30.507  39.932 -44.216  1.00  0.00     0.143 A 
HETATM   20  C   UNL     1     -29.760  40.944 -44.770  1.00  0.00     0.027 A 
HETATM   21  C   UNL     1     -29.905  40.818 -46.173  1.00  0.00     0.045 A 
ENDBRANCH  14  17
ENDBRANCH  10  13
ENDBRANCH   3   7
BRANCH   1  22
HETATM   22  C   UNL     1     -36.999  41.147 -54.232  1.00  0.00     0.130 C 
BRANCH  22  23
HETATM   23  C   UNL     1     -36.480  42.263 -55.153  1.00  0.00     0.031 C 
HETATM   24  C   UNL     1     -34.984  42.207 -55.430  1.00  0.00     0.241 C 
HETATM   25  N   UNL     1     -34.834  41.478 -56.764  1.00  0.00    -0.071 N 
HETATM   26  H   UNL     1     -34.399  42.160 -57.400  1.00  0.00     0.279 HD
HETATM   27  C   UNL     1     -36.223  41.193 -57.282  1.00  0.00     0.235 C 
HETATM   28  C   UNL     1     -37.098  42.188 -56.545  1.00  0.00     0.035 C 
BRANCH  25  29
HETATM   29  C   UNL     1     -33.921  40.284 -56.679  1.00  0.00     0.234 C 
BRANCH  29  30
HETATM   30  C   UNL     1     -32.771  40.511 -55.700  1.00  0.00     0.023 C 
HETATM   31  C   UNL     1     -31.548  39.651 -55.987  1.00  0.00     0.007 C 
ENDBRANCH  29  30
ENDBRANCH  25  29
ENDBRANCH  22  23
ENDBRANCH   1  22
TORSDOF 7
ENDMDL
MODEL 9
REMARK VINA RESULT:      -6.4      3.017      6.973
REMARK  7 active torsions:
REMARK  status: ('A' for Active; 'I' for Inactive)
REMARK    1  A    between atoms: C_2  and  C_3 
REMARK    2  A    between atoms: C_3  and  N_4 
REMARK    3  A    between atoms: C_7  and  C_8 
REMARK    4  A    between atoms: C_8  and  N_9 
REMARK       I    between atoms: N_9  and  C_10 
REMARK       I    between atoms: C_10  and  N_11 
REMARK    5  A    between atoms: N_11  and  C_12 
REMARK    6  A    between atoms: C_15  and  N_16 
REMARK       I    between atoms: N_16  and  C_17 
REMARK    7  A    between atoms: C_17  and  C_18 
ROOT
HETATM    1  N   UNL     1     -43.813  58.922 -56.359  1.00  0.00    -0.342 N 
HETATM    2  C   UNL     1     -43.781  59.587 -55.170  1.00  0.00     0.320 C 
HETATM    3  N   UNL     1     -43.399  58.880 -54.070  1.00  0.00    -0.309 N 
HETATM    4  O   UNL     1     -44.097  60.770 -55.061  1.00  0.00    -0.247 OA
HETATM    5  H   UNL     1     -43.955  57.927 -56.222  1.00  0.00     0.164 HD
HETATM    6  H   UNL     1     -43.641  59.363 -53.211  1.00  0.00     0.170 HD
ENDROOT
BRANCH   3   7
HETATM    7  C   UNL     1     -42.793  57.619 -53.927  1.00  0.00     0.036 A 
HETATM    8  C   UNL     1     -41.426  57.390 -54.082  1.00  0.00     0.032 A 
HETATM    9  C   UNL     1     -40.903  56.094 -53.990  1.00  0.00     0.032 A 
HETATM   10  C   UNL     1     -41.737  55.008 -53.728  1.00  0.00     0.035 A 
HETATM   11  C   UNL     1     -43.094  55.248 -53.496  1.00  0.00     0.032 A 
HETATM   12  C   UNL     1     -43.616  56.544 -53.582  1.00  0.00     0.032 A 
BRANCH  10  13
HETATM   13  N   UNL     1     -41.304  53.672 -53.709  1.00  0.00    -0.321 N 
HETATM   14  C   UNL     1     -40.472  53.051 -52.792  1.00  0.00     0.279 C 
HETATM   15  O   UNL     1     -40.046  53.565 -51.761  1.00  0.00    -0.265 OA
HETATM   16  H   UNL     1     -41.565  53.085 -54.497  1.00  0.00     0.169 HD
BRANCH  14  17
HETATM   17  C   UNL     1     -40.121  51.698 -53.185  1.00  0.00     0.142 A 
HETATM   18  O   UNL     1     -39.710  50.805 -52.227  1.00  0.00    -0.317 OA
HETATM   19  C   UNL     1     -39.480  49.623 -52.855  1.00  0.00     0.143 A 
HETATM   20  C   UNL     1     -39.730  49.735 -54.202  1.00  0.00     0.027 A 
HETATM   21  C   UNL     1     -40.140  51.073 -54.417  1.00  0.00     0.045 A 
ENDBRANCH  14  17
ENDBRANCH  10  13
ENDBRANCH   3   7
BRANCH   1  22
HETATM   22  C   UNL     1     -44.418  59.433 -57.578  1.00  0.00     0.130 C 
BRANCH  22  23
HETATM   23  C   UNL     1     -43.483  59.909 -58.702  1.00  0.00     0.031 C 
HETATM   24  C   UNL     1     -42.247  59.043 -58.904  1.00  0.00     0.241 C 
HETATM   25  N   UNL     1     -42.592  58.080 -60.037  1.00  0.00    -0.071 N 
HETATM   26  H   UNL     1     -41.927  58.295 -60.791  1.00  0.00     0.279 HD
HETATM   27  C   UNL     1     -43.972  58.441 -60.531  1.00  0.00     0.235 C 
HETATM   28  C   UNL     1     -44.165  59.871 -60.066  1.00  0.00     0.035 C 
BRANCH  25  29
HETATM   29  C   UNL     1     -42.403  56.636 -59.656  1.00  0.00     0.234 C 
BRANCH  29  30
HETATM   30  C   UNL     1     -43.513  56.136 -58.734  1.00  0.00     0.023 C 
HETATM   31  C   UNL     1     -43.012  55.667 -57.375  1.00  0.00     0.007 C 
ENDBRANCH  29  30
ENDBRANCH  25  29
ENDBRANCH  22  23
ENDBRANCH   1  22
TORSDOF 7
ENDMDL
MODEL 10
REMARK VINA RESULT:      -6.3      3.884      8.260
REMARK  7 active torsions:
REMARK  status: ('A' for Active; 'I' for Inactive)
REMARK    1  A    between atoms: C_2  and  C_3 
REMARK    2  A    between atoms: C_3  and  N_4 
REMARK    3  A    between atoms: C_7  and  C_8 
REMARK    4  A    between atoms: C_8  and  N_9 
REMARK       I    between atoms: N_9  and  C_10 
REMARK       I    between atoms: C_10  and  N_11 
REMARK    5  A    between atoms: N_11  and  C_12 
REMARK    6  A    between atoms: C_15  and  N_16 
REMARK       I    between atoms: N_16  and  C_17 
REMARK    7  A    between atoms: C_17  and  C_18 
ROOT
HETATM    1  N   UNL     1     -41.537  56.361 -54.332  1.00  0.00    -0.342 N 
HETATM    2  C   UNL     1     -42.268  57.043 -55.258  1.00  0.00     0.320 C 
HETATM    3  N   UNL     1     -43.323  57.775 -54.803  1.00  0.00    -0.309 N 
HETATM    4  O   UNL     1     -42.023  57.000 -56.461  1.00  0.00    -0.247 OA
HETATM    5  H   UNL     1     -42.089  56.146 -53.509  1.00  0.00     0.164 HD
HETATM    6  H   UNL     1     -43.951  58.036 -55.556  1.00  0.00     0.170 HD
ENDROOT
BRANCH   3   7
HETATM    7  C   UNL     1     -43.701  58.175 -53.508  1.00  0.00     0.036 A 
HETATM    8  C   UNL     1     -44.585  57.459 -52.700  1.00  0.00     0.032 A 
HETATM    9  C   UNL     1     -44.967  57.953 -51.446  1.00  0.00     0.032 A 
HETATM   10  C   UNL     1     -44.463  59.165 -50.976  1.00  0.00     0.035 A 
HETATM   11  C   UNL     1     -43.519  59.843 -51.753  1.00  0.00     0.032 A 
HETATM   12  C   UNL     1     -43.132  59.345 -53.003  1.00  0.00     0.032 A 
BRANCH  10  13
HETATM   13  N   UNL     1     -44.866  59.770 -49.774  1.00  0.00    -0.321 N 
HETATM   14  C   UNL     1     -45.667  60.887 -49.601  1.00  0.00     0.279 C 
HETATM   15  O   UNL     1     -46.250  61.486 -50.500  1.00  0.00    -0.265 OA
HETATM   16  H   UNL     1     -44.476  59.400 -48.912  1.00  0.00     0.169 HD
BRANCH  14  17
HETATM   17  C   UNL     1     -45.739  61.310 -48.214  1.00  0.00     0.142 A 
HETATM   18  O   UNL     1     -46.928  61.779 -47.715  1.00  0.00    -0.317 OA
HETATM   19  C   UNL     1     -46.725  62.071 -46.405  1.00  0.00     0.143 A 
HETATM   20  C   UNL     1     -45.425  61.804 -46.046  1.00  0.00     0.027 A 
HETATM   21  C   UNL     1     -44.787  61.318 -47.213  1.00  0.00     0.045 A 
ENDBRANCH  14  17
ENDBRANCH  10  13
ENDBRANCH   3   7
BRANCH   1  22
HETATM   22  C   UNL     1     -40.541  55.348 -54.644  1.00  0.00     0.130 C 
BRANCH  22  23
HETATM   23  C   UNL     1     -40.871  53.885 -54.306  1.00  0.00     0.031 C 
HETATM   24  C   UNL     1     -40.339  53.414 -52.959  1.00  0.00     0.241 C 
HETATM   25  N   UNL     1     -41.498  53.566 -51.976  1.00  0.00    -0.071 N 
HETATM   26  H   UNL     1     -41.701  52.614 -51.643  1.00  0.00     0.279 HD
HETATM   27  C   UNL     1     -42.697  54.039 -52.762  1.00  0.00     0.235 C 
HETATM   28  C   UNL     1     -42.374  53.651 -54.191  1.00  0.00     0.035 C 
BRANCH  25  29
HETATM   29  C   UNL     1     -41.142  54.405 -50.777  1.00  0.00     0.234 C 
BRANCH  29  30
HETATM   30  C   UNL     1     -42.018  55.651 -50.670  1.00  0.00     0.023 C 
HETATM   31  C   UNL     1     -41.234  56.955 -50.731  1.00  0.00     0.007 C 
ENDBRANCH  29  30
ENDBRANCH  25  29
ENDBRANCH  22  23
ENDBRANCH   1  22
TORSDOF 7
ENDMDL
