MODEL 1
REMARK VINA RESULT:      -9.1      0.000      0.000
REMARK  6 active torsions:
REMARK  status: ('A' for Active; 'I' for Inactive)
REMARK    1  A    between atoms: C_2  and  C_3 
REMARK    2  A    between atoms: C_3  and  C_4 
REMARK    3  A    between atoms: C_4  and  C_5 
REMARK    4  A    between atoms: C_4  and  C_21 
REMARK       I    between atoms: C_5  and  N_6 
REMARK    5  A    between atoms: N_6  and  C_7 
REMARK    6  A    between atoms: C_14  and  C_15 
REMARK       I    between atoms: C_15  and  N_16 
ROOT
HETATM    1  C   UNL     1     -42.757  55.418 -56.416  1.00  0.00     0.035 A 
HETATM    2  C   UNL     1     -43.430  55.049 -57.590  1.00  0.00     0.046 A 
HETATM    3  C   UNL     1     -43.577  55.990 -58.632  1.00  0.00     0.030 A 
HETATM    4  C   UNL     1     -43.068  57.271 -58.456  1.00  0.00     0.063 A 
HETATM    5  N   UNL     1     -43.375  57.944 -59.605  1.00  0.00    -0.277 N 
HETATM    6  H   UNL     1     -43.166  58.911 -59.823  1.00  0.00     0.189 HD
HETATM    7  N   UNL     1     -44.011  57.207 -60.530  1.00  0.00    -0.168 NA
HETATM    8  C   UNL     1     -44.138  55.993 -59.945  1.00  0.00     0.156 A 
HETATM    9  C   UNL     1     -42.394  57.671 -57.301  1.00  0.00     0.034 A 
HETATM   10  C   UNL     1     -42.235  56.712 -56.293  1.00  0.00     0.032 A 
ENDROOT
BRANCH   1  11
HETATM   11  N   UNL     1     -42.535  54.530 -55.340  1.00  0.00    -0.327 N 
HETATM   12  C   UNL     1     -41.315  54.003 -54.940  1.00  0.00     0.231 C 
HETATM   13  O   UNL     1     -40.263  54.116 -55.565  1.00  0.00    -0.272 OA
HETATM   14  H   UNL     1     -43.363  54.166 -54.890  1.00  0.00     0.169 HD
BRANCH  12  15
HETATM   15  C   UNL     1     -41.411  53.158 -53.648  1.00  0.00     0.115 C 
BRANCH  15  16
HETATM   16  C   UNL     1     -40.124  52.294 -53.472  1.00  0.00    -0.001 C 
HETATM   17  C   UNL     1     -39.828  51.989 -51.994  1.00  0.00     0.011 C 
BRANCH  16  18
HETATM   18  C   UNL     1     -40.160  50.978 -54.288  1.00  0.00     0.001 C 
HETATM   19  C   UNL     1     -39.544  49.764 -53.604  1.00  0.00     0.005 C 
ENDBRANCH  16  18
ENDBRANCH  15  16
BRANCH  15  20
HETATM   20  C   UNL     1     -41.715  54.046 -52.441  1.00  0.00    -0.045 A 
HETATM   21  C   UNL     1     -40.883  55.141 -52.150  1.00  0.00     0.008 A 
HETATM   22  C   UNL     1     -41.158  55.977 -51.066  1.00  0.00     0.001 A 
HETATM   23  C   UNL     1     -42.264  55.731 -50.256  1.00  0.00     0.000 A 
HETATM   24  C   UNL     1     -43.097  54.649 -50.531  1.00  0.00     0.001 A 
HETATM   25  C   UNL     1     -42.827  53.815 -51.616  1.00  0.00     0.008 A 
ENDBRANCH  15  20
ENDBRANCH  12  15
ENDBRANCH   1  11
BRANCH   8  26
HETATM   26  C   UNL     1     -44.768  54.871 -60.655  1.00  0.00     0.270 C 
HETATM   27  N   UNL     1     -45.239  53.883 -59.833  1.00  0.00    -0.365 N 
HETATM   28  H   UNL     1     -45.142  54.001 -58.831  1.00  0.00     0.159 HD
HETATM   29  H   UNL     1     -45.716  53.091 -60.231  1.00  0.00     0.159 HD
HETATM   30  O   UNL     1     -44.895  54.795 -61.873  1.00  0.00    -0.266 OA
ENDBRANCH   8  26
TORSDOF 6
ENDMDL
MODEL 2
REMARK VINA RESULT:      -8.6      1.626      2.132
REMARK  6 active torsions:
REMARK  status: ('A' for Active; 'I' for Inactive)
REMARK    1  A    between atoms: C_2  and  C_3 
REMARK    2  A    between atoms: C_3  and  C_4 
REMARK    3  A    between atoms: C_4  and  C_5 
REMARK    4  A    between atoms: C_4  and  C_21 
REMARK       I    between atoms: C_5  and  N_6 
REMARK    5  A    between atoms: N_6  and  C_7 
REMARK    6  A    between atoms: C_14  and  C_15 
REMARK       I    between atoms: C_15  and  N_16 
ROOT
HETATM    1  C   UNL     1     -42.962  55.622 -55.079  1.00  0.00     0.035 A 
HETATM    2  C   UNL     1     -42.818  55.601 -56.473  1.00  0.00     0.046 A 
HETATM    3  C   UNL     1     -43.248  56.709 -57.234  1.00  0.00     0.030 A 
HETATM    4  C   UNL     1     -43.827  57.788 -56.577  1.00  0.00     0.063 A 
HETATM    5  N   UNL     1     -44.152  58.679 -57.561  1.00  0.00    -0.277 N 
HETATM    6  H   UNL     1     -44.605  59.579 -57.449  1.00  0.00     0.189 HD
HETATM    7  N   UNL     1     -43.806  58.293 -58.800  1.00  0.00    -0.168 NA
HETATM    8  C   UNL     1     -43.240  57.078 -58.613  1.00  0.00     0.156 A 
HETATM    9  C   UNL     1     -43.986  57.842 -55.192  1.00  0.00     0.034 A 
HETATM   10  C   UNL     1     -43.526  56.743 -54.456  1.00  0.00     0.032 A 
ENDROOT
BRANCH   1  11
HETATM   11  N   UNL     1     -42.527  54.572 -54.240  1.00  0.00    -0.327 N 
HETATM   12  C   UNL     1     -41.215  54.274 -53.899  1.00  0.00     0.231 C 
HETATM   13  O   UNL     1     -40.223  54.795 -54.404  1.00  0.00    -0.272 OA
HETATM   14  H   UNL     1     -43.238  53.915 -53.950  1.00  0.00     0.169 HD
BRANCH  12  15
HETATM   15  C   UNL     1     -41.100  53.131 -52.862  1.00  0.00     0.115 C 
BRANCH  15  16
HETATM   16  C   UNL     1     -39.946  52.159 -53.258  1.00  0.00    -0.001 C 
HETATM   17  C   UNL     1     -39.544  51.232 -52.099  1.00  0.00     0.011 C 
BRANCH  16  18
HETATM   18  C   UNL     1     -40.265  51.320 -54.521  1.00  0.00     0.001 C 
HETATM   19  C   UNL     1     -39.717  49.899 -54.521  1.00  0.00     0.005 C 
ENDBRANCH  16  18
ENDBRANCH  15  16
BRANCH  15  20
HETATM   20  C   UNL     1     -40.959  53.694 -51.448  1.00  0.00    -0.045 A 
HETATM   21  C   UNL     1     -42.099  54.131 -50.753  1.00  0.00     0.008 A 
HETATM   22  C   UNL     1     -41.995  54.627 -49.451  1.00  0.00     0.001 A 
HETATM   23  C   UNL     1     -40.751  54.695 -48.827  1.00  0.00     0.000 A 
HETATM   24  C   UNL     1     -39.612  54.267 -49.504  1.00  0.00     0.001 A 
HETATM   25  C   UNL     1     -39.715  53.767 -50.803  1.00  0.00     0.008 A 
ENDBRANCH  15  20
ENDBRANCH  12  15
ENDBRANCH   1  11
BRANCH   8  26
HETATM   26  C   UNL     1     -42.692  56.314 -59.744  1.00  0.00     0.270 C 
HETATM   27  N   UNL     1     -41.415  56.665 -60.089  1.00  0.00    -0.365 N 
HETATM   28  H   UNL     1     -40.948  57.383 -59.548  1.00  0.00     0.159 HD
HETATM   29  H   UNL     1     -40.948  56.170 -60.831  1.00  0.00     0.159 HD
HETATM   30  O   UNL     1     -43.288  55.423 -60.341  1.00  0.00    -0.266 OA
ENDBRANCH   8  26
TORSDOF 6
ENDMDL
MODEL 3
REMARK VINA RESULT:      -8.6      1.065      3.196
REMARK  6 active torsions:
REMARK  status: ('A' for Active; 'I' for Inactive)
REMARK    1  A    between atoms: C_2  and  C_3 
REMARK    2  A    between atoms: C_3  and  C_4 
REMARK    3  A    between atoms: C_4  and  C_5 
REMARK    4  A    between atoms: C_4  and  C_21 
REMARK       I    between atoms: C_5  and  N_6 
REMARK    5  A    between atoms: N_6  and  C_7 
REMARK    6  A    between atoms: C_14  and  C_15 
REMARK       I    between atoms: C_15  and  N_16 
ROOT
HETATM    1  C   UNL     1     -42.419  55.983 -55.829  1.00  0.00     0.035 A 
HETATM    2  C   UNL     1     -43.078  55.313 -56.868  1.00  0.00     0.046 A 
HETATM    3  C   UNL     1     -43.437  56.020 -58.036  1.00  0.00     0.030 A 
HETATM    4  C   UNL     1     -43.145  57.376 -58.113  1.00  0.00     0.063 A 
HETATM    5  N   UNL     1     -43.622  57.780 -59.329  1.00  0.00    -0.277 N 
HETATM    6  H   UNL     1     -43.592  58.715 -59.719  1.00  0.00     0.189 HD
HETATM    7  N   UNL     1     -44.169  56.801 -60.067  1.00  0.00    -0.168 NA
HETATM    8  C   UNL     1     -44.057  55.704 -59.282  1.00  0.00     0.156 A 
HETATM    9  C   UNL     1     -42.491  58.075 -57.098  1.00  0.00     0.034 A 
HETATM   10  C   UNL     1     -42.119  57.345 -55.961  1.00  0.00     0.032 A 
ENDROOT
BRANCH   1  11
HETATM   11  N   UNL     1     -41.994  55.345 -54.642  1.00  0.00    -0.327 N 
HETATM   12  C   UNL     1     -40.710  54.901 -54.356  1.00  0.00     0.231 C 
HETATM   13  O   UNL     1     -39.784  54.863 -55.163  1.00  0.00    -0.272 OA
HETATM   14  H   UNL     1     -42.723  55.097 -53.989  1.00  0.00     0.169 HD
BRANCH  12  15
HETATM   15  C   UNL     1     -40.562  54.354 -52.916  1.00  0.00     0.115 C 
BRANCH  15  16
HETATM   16  C   UNL     1     -41.802  54.753 -52.058  1.00  0.00    -0.001 C 
HETATM   17  C   UNL     1     -42.680  53.541 -51.707  1.00  0.00     0.011 C 
BRANCH  16  18
HETATM   18  C   UNL     1     -41.425  55.525 -50.768  1.00  0.00     0.001 C 
HETATM   19  C   UNL     1     -41.318  54.680 -49.505  1.00  0.00     0.005 C 
ENDBRANCH  16  18
ENDBRANCH  15  16
BRANCH  15  20
HETATM   20  C   UNL     1     -40.295  52.849 -52.933  1.00  0.00    -0.045 A 
HETATM   21  C   UNL     1     -40.580  52.101 -54.087  1.00  0.00     0.008 A 
HETATM   22  C   UNL     1     -40.321  50.729 -54.130  1.00  0.00     0.001 A 
HETATM   23  C   UNL     1     -39.778  50.086 -53.021  1.00  0.00     0.000 A 
HETATM   24  C   UNL     1     -39.492  50.813 -51.868  1.00  0.00     0.001 A 
HETATM   25  C   UNL     1     -39.745  52.185 -51.825  1.00  0.00     0.008 A 
ENDBRANCH  15  20
ENDBRANCH  12  15
ENDBRANCH   1  11
BRANCH   8  26
HETATM   26  C   UNL     1     -44.523  54.388 -59.746  1.00  0.00     0.270 C 
HETATM   27  N   UNL     1     -44.846  54.347 -61.075  1.00  0.00    -0.365 N 
HETATM   28  H   UNL     1     -44.726  55.187 -61.629  1.00  0.00     0.159 HD
HETATM   29  H   UNL     1     -45.142  53.477 -61.487  1.00  0.00     0.159 HD
HETATM   30  O   UNL     1     -44.612  53.389 -59.040  1.00  0.00    -0.266 OA
ENDBRANCH   8  26
TORSDOF 6
ENDMDL
MODEL 4
REMARK VINA RESULT:      -8.5      1.877      3.952
REMARK  6 active torsions:
REMARK  status: ('A' for Active; 'I' for Inactive)
REMARK    1  A    between atoms: C_2  and  C_3 
REMARK    2  A    between atoms: C_3  and  C_4 
REMARK    3  A    between atoms: C_4  and  C_5 
REMARK    4  A    between atoms: C_4  and  C_21 
REMARK       I    between atoms: C_5  and  N_6 
REMARK    5  A    between atoms: N_6  and  C_7 
REMARK    6  A    between atoms: C_14  and  C_15 
REMARK       I    between atoms: C_15  and  N_16 
ROOT
HETATM    1  C   UNL     1     -42.579  56.124 -54.541  1.00  0.00     0.035 A 
HETATM    2  C   UNL     1     -42.442  56.097 -55.936  1.00  0.00     0.046 A 
HETATM    3  C   UNL     1     -43.388  56.768 -56.741  1.00  0.00     0.030 A 
HETATM    4  C   UNL     1     -44.449  57.420 -56.125  1.00  0.00     0.063 A 
HETATM    5  N   UNL     1     -45.191  57.947 -57.145  1.00  0.00    -0.277 N 
HETATM    6  H   UNL     1     -46.049  58.481 -57.067  1.00  0.00     0.189 HD
HETATM    7  N   UNL     1     -44.690  57.726 -58.371  1.00  0.00    -0.168 NA
HETATM    8  C   UNL     1     -43.571  57.002 -58.137  1.00  0.00     0.156 A 
HETATM    9  C   UNL     1     -44.616  57.465 -54.740  1.00  0.00     0.034 A 
HETATM   10  C   UNL     1     -43.649  56.817 -53.962  1.00  0.00     0.032 A 
ENDROOT
BRANCH   1  11
HETATM   11  N   UNL     1     -41.660  55.510 -53.661  1.00  0.00    -0.327 N 
HETATM   12  C   UNL     1     -41.884  54.380 -52.887  1.00  0.00     0.231 C 
HETATM   13  O   UNL     1     -42.976  53.835 -52.740  1.00  0.00    -0.272 OA
HETATM   14  H   UNL     1     -40.795  56.008 -53.508  1.00  0.00     0.169 HD
BRANCH  12  15
HETATM   15  C   UNL     1     -40.624  53.903 -52.127  1.00  0.00     0.115 C 
BRANCH  15  16
HETATM   16  C   UNL     1     -40.814  54.098 -50.591  1.00  0.00    -0.001 C 
HETATM   17  C   UNL     1     -39.480  54.342 -49.867  1.00  0.00     0.011 C 
BRANCH  16  18
HETATM   18  C   UNL     1     -41.820  55.223 -50.242  1.00  0.00     0.001 C 
HETATM   19  C   UNL     1     -41.235  56.628 -50.166  1.00  0.00     0.005 C 
ENDBRANCH  16  18
ENDBRANCH  15  16
BRANCH  15  20
HETATM   20  C   UNL     1     -40.267  52.468 -52.516  1.00  0.00    -0.045 A 
HETATM   21  C   UNL     1     -40.318  52.075 -53.864  1.00  0.00     0.008 A 
HETATM   22  C   UNL     1     -39.973  50.776 -54.242  1.00  0.00     0.001 A 
HETATM   23  C   UNL     1     -39.576  49.850 -53.280  1.00  0.00     0.000 A 
HETATM   24  C   UNL     1     -39.522  50.224 -51.940  1.00  0.00     0.001 A 
HETATM   25  C   UNL     1     -39.861  51.523 -51.561  1.00  0.00     0.008 A 
ENDBRANCH  15  20
ENDBRANCH  12  15
ENDBRANCH   1  11
BRANCH   8  26
HETATM   26  C   UNL     1     -42.701  56.572 -59.242  1.00  0.00     0.270 C 
HETATM   27  N   UNL     1     -41.573  57.332 -59.393  1.00  0.00    -0.365 N 
HETATM   28  H   UNL     1     -41.413  58.095 -58.745  1.00  0.00     0.159 HD
HETATM   29  H   UNL     1     -40.902  57.090 -60.103  1.00  0.00     0.159 HD
HETATM   30  O   UNL     1     -42.922  55.614 -59.975  1.00  0.00    -0.266 OA
ENDBRANCH   8  26
TORSDOF 6
ENDMDL
MODEL 5
REMARK VINA RESULT:      -8.4      1.949      3.153
REMARK  6 active torsions:
REMARK  status: ('A' for Active; 'I' for Inactive)
REMARK    1  A    between atoms: C_2  and  C_3 
REMARK    2  A    between atoms: C_3  and  C_4 
REMARK    3  A    between atoms: C_4  and  C_5 
REMARK    4  A    between atoms: C_4  and  C_21 
REMARK       I    between atoms: C_5  and  N_6 
REMARK    5  A    between atoms: N_6  and  C_7 
REMARK    6  A    between atoms: C_14  and  C_15 
REMARK       I    between atoms: C_15  and  N_16 
ROOT
HETATM    1  C   UNL     1     -42.655  55.635 -56.553  1.00  0.00     0.035 A 
HETATM    2  C   UNL     1     -42.294  56.985 -56.450  1.00  0.00     0.046 A 
HETATM    3  C   UNL     1     -42.505  57.848 -57.546  1.00  0.00     0.030 A 
HETATM    4  C   UNL     1     -43.049  57.327 -58.714  1.00  0.00     0.063 A 
HETATM    5  N   UNL     1     -43.114  58.379 -59.584  1.00  0.00    -0.277 N 
HETATM    6  H   UNL     1     -43.450  58.364 -60.540  1.00  0.00     0.189 HD
HETATM    7  N   UNL     1     -42.693  59.549 -59.077  1.00  0.00    -0.168 NA
HETATM    8  C   UNL     1     -42.318  59.238 -57.815  1.00  0.00     0.156 A 
HETATM    9  C   UNL     1     -43.419  55.989 -58.851  1.00  0.00     0.034 A 
HETATM   10  C   UNL     1     -43.226  55.158 -57.741  1.00  0.00     0.032 A 
ENDROOT
BRANCH   1  11
HETATM   11  N   UNL     1     -42.510  54.711 -55.494  1.00  0.00    -0.327 N 
HETATM   12  C   UNL     1     -41.323  54.157 -55.036  1.00  0.00     0.231 C 
HETATM   13  O   UNL     1     -40.232  54.276 -55.592  1.00  0.00    -0.272 OA
HETATM   14  H   UNL     1     -43.368  54.343 -55.109  1.00  0.00     0.169 HD
BRANCH  12  15
HETATM   15  C   UNL     1     -41.508  53.273 -53.781  1.00  0.00     0.115 C 
BRANCH  15  16
HETATM   16  C   UNL     1     -40.251  52.375 -53.563  1.00  0.00    -0.001 C 
HETATM   17  C   UNL     1     -39.997  52.081 -52.076  1.00  0.00     0.011 C 
BRANCH  16  18
HETATM   18  C   UNL     1     -40.307  51.049 -54.363  1.00  0.00     0.001 C 
HETATM   19  C   UNL     1     -39.556  49.876 -53.744  1.00  0.00     0.005 C 
ENDBRANCH  16  18
ENDBRANCH  15  16
BRANCH  15  20
HETATM   20  C   UNL     1     -41.860  54.128 -52.563  1.00  0.00    -0.045 A 
HETATM   21  C   UNL     1     -41.045  55.218 -52.215  1.00  0.00     0.008 A 
HETATM   22  C   UNL     1     -41.363  56.025 -51.120  1.00  0.00     0.001 A 
HETATM   23  C   UNL     1     -42.496  55.753 -50.357  1.00  0.00     0.000 A 
HETATM   24  C   UNL     1     -43.313  54.676 -50.690  1.00  0.00     0.001 A 
HETATM   25  C   UNL     1     -43.000  53.871 -51.786  1.00  0.00     0.008 A 
ENDBRANCH  15  20
ENDBRANCH  12  15
ENDBRANCH   1  11
BRANCH   8  26
HETATM   26  C   UNL     1     -41.813  60.270 -56.896  1.00  0.00     0.270 C 
HETATM   27  N   UNL     1     -41.399  61.416 -57.518  1.00  0.00    -0.365 N 
HETATM   28  H   UNL     1     -41.487  61.480 -58.526  1.00  0.00     0.159 HD
HETATM   29  H   UNL     1     -41.070  62.191 -56.965  1.00  0.00     0.159 HD
HETATM   30  O   UNL     1     -41.766  60.158 -55.676  1.00  0.00    -0.266 OA
ENDBRANCH   8  26
TORSDOF 6
ENDMDL
MODEL 6
REMARK VINA RESULT:      -8.1      2.503      4.085
REMARK  6 active torsions:
REMARK  status: ('A' for Active; 'I' for Inactive)
REMARK    1  A    between atoms: C_2  and  C_3 
REMARK    2  A    between atoms: C_3  and  C_4 
REMARK    3  A    between atoms: C_4  and  C_5 
REMARK    4  A    between atoms: C_4  and  C_21 
REMARK       I    between atoms: C_5  and  N_6 
REMARK    5  A    between atoms: N_6  and  C_7 
REMARK    6  A    between atoms: C_14  and  C_15 
REMARK       I    between atoms: C_15  and  N_16 
ROOT
HETATM    1  C   UNL     1     -42.914  56.586 -57.578  1.00  0.00     0.035 A 
HETATM    2  C   UNL     1     -44.144  57.257 -57.560  1.00  0.00     0.046 A 
HETATM    3  C   UNL     1     -44.951  57.264 -58.718  1.00  0.00     0.030 A 
HETATM    4  C   UNL     1     -44.489  56.619 -59.859  1.00  0.00     0.063 A 
HETATM    5  N   UNL     1     -45.460  56.811 -60.801  1.00  0.00    -0.277 N 
HETATM    6  H   UNL     1     -45.455  56.488 -61.762  1.00  0.00     0.189 HD
HETATM    7  N   UNL     1     -46.531  57.495 -60.367  1.00  0.00    -0.168 NA
HETATM    8  C   UNL     1     -46.233  57.777 -59.078  1.00  0.00     0.156 A 
HETATM    9  C   UNL     1     -43.269  55.942 -59.912  1.00  0.00     0.034 A 
HETATM   10  C   UNL     1     -42.500  55.925 -58.742  1.00  0.00     0.032 A 
ENDROOT
BRANCH   1  11
HETATM   11  N   UNL     1     -42.062  56.500 -56.454  1.00  0.00    -0.327 N 
HETATM   12  C   UNL     1     -42.143  55.576 -55.422  1.00  0.00     0.231 C 
HETATM   13  O   UNL     1     -43.070  54.785 -55.260  1.00  0.00    -0.272 OA
HETATM   14  H   UNL     1     -41.398  57.254 -56.346  1.00  0.00     0.169 HD
BRANCH  12  15
HETATM   15  C   UNL     1     -40.979  55.689 -54.410  1.00  0.00     0.115 C 
BRANCH  15  16
HETATM   16  C   UNL     1     -41.336  56.713 -53.289  1.00  0.00    -0.001 C 
HETATM   17  C   UNL     1     -40.587  58.044 -53.459  1.00  0.00     0.011 C 
BRANCH  16  18
HETATM   18  C   UNL     1     -42.859  56.974 -53.168  1.00  0.00     0.001 C 
HETATM   19  C   UNL     1     -43.538  56.350 -51.956  1.00  0.00     0.005 C 
ENDBRANCH  16  18
ENDBRANCH  15  16
BRANCH  15  20
HETATM   20  C   UNL     1     -40.593  54.311 -53.872  1.00  0.00    -0.045 A 
HETATM   21  C   UNL     1     -40.625  54.066 -52.489  1.00  0.00     0.008 A 
HETATM   22  C   UNL     1     -40.299  52.807 -51.979  1.00  0.00     0.001 A 
HETATM   23  C   UNL     1     -39.934  51.777 -52.843  1.00  0.00     0.000 A 
HETATM   24  C   UNL     1     -39.896  52.005 -54.216  1.00  0.00     0.001 A 
HETATM   25  C   UNL     1     -40.227  53.260 -54.727  1.00  0.00     0.008 A 
ENDBRANCH  15  20
ENDBRANCH  12  15
ENDBRANCH   1  11
BRANCH   8  26
HETATM   26  C   UNL     1     -47.181  58.507 -58.222  1.00  0.00     0.270 C 
HETATM   27  N   UNL     1     -47.447  57.889 -57.030  1.00  0.00    -0.365 N 
HETATM   28  H   UNL     1     -46.974  57.018 -56.820  1.00  0.00     0.159 HD
HETATM   29  H   UNL     1     -48.059  58.334 -56.366  1.00  0.00     0.159 HD
HETATM   30  O   UNL     1     -47.696  59.582 -58.507  1.00  0.00    -0.266 OA
ENDBRANCH   8  26
TORSDOF 6
ENDMDL
MODEL 7
REMARK VINA RESULT:      -8.0      2.262      4.440
REMARK  6 active torsions:
REMARK  status: ('A' for Active; 'I' for Inactive)
REMARK    1  A    between atoms: C_2  and  C_3 
REMARK    2  A    between atoms: C_3  and  C_4 
REMARK    3  A    between atoms: C_4  and  C_5 
REMARK    4  A    between atoms: C_4  and  C_21 
REMARK       I    between atoms: C_5  and  N_6 
REMARK    5  A    between atoms: N_6  and  C_7 
REMARK    6  A    between atoms: C_14  and  C_15 
REMARK       I    between atoms: C_15  and  N_16 
ROOT
HETATM    1  C   UNL     1     -42.336  56.397 -56.110  1.00  0.00     0.035 A 
HETATM    2  C   UNL     1     -41.996  57.736 -56.345  1.00  0.00     0.046 A 
HETATM    3  C   UNL     1     -42.312  58.327 -57.588  1.00  0.00     0.030 A 
HETATM    4  C   UNL     1     -42.935  57.553 -58.559  1.00  0.00     0.063 A 
HETATM    5  N   UNL     1     -43.091  58.379 -59.636  1.00  0.00    -0.277 N 
HETATM    6  H   UNL     1     -43.501  58.146 -60.533  1.00  0.00     0.189 HD
HETATM    7  N   UNL     1     -42.656  59.635 -59.443  1.00  0.00    -0.168 NA
HETATM    8  C   UNL     1     -42.176  59.620 -58.178  1.00  0.00     0.156 A 
HETATM    9  C   UNL     1     -43.287  56.217 -58.358  1.00  0.00     0.034 A 
HETATM   10  C   UNL     1     -42.989  55.661 -57.108  1.00  0.00     0.032 A 
ENDROOT
BRANCH   1  11
HETATM   11  N   UNL     1     -42.088  55.739 -54.885  1.00  0.00    -0.327 N 
HETATM   12  C   UNL     1     -40.849  55.371 -54.380  1.00  0.00     0.231 C 
HETATM   13  O   UNL     1     -39.791  55.430 -55.002  1.00  0.00    -0.272 OA
HETATM   14  H   UNL     1     -42.904  55.414 -54.386  1.00  0.00     0.169 HD
BRANCH  12  15
HETATM   15  C   UNL     1     -40.926  54.775 -52.954  1.00  0.00     0.115 C 
BRANCH  15  16
HETATM   16  C   UNL     1     -42.345  55.004 -52.349  1.00  0.00    -0.001 C 
HETATM   17  C   UNL     1     -42.915  53.730 -51.705  1.00  0.00     0.011 C 
BRANCH  16  18
HETATM   18  C   UNL     1     -42.391  56.176 -51.337  1.00  0.00     0.001 C 
HETATM   19  C   UNL     1     -41.417  56.075 -50.170  1.00  0.00     0.005 C 
ENDBRANCH  16  18
ENDBRANCH  15  16
BRANCH  15  20
HETATM   20  C   UNL     1     -40.498  53.307 -52.957  1.00  0.00    -0.045 A 
HETATM   21  C   UNL     1     -39.896  52.751 -51.816  1.00  0.00     0.008 A 
HETATM   22  C   UNL     1     -39.521  51.406 -51.791  1.00  0.00     0.001 A 
HETATM   23  C   UNL     1     -39.738  50.599 -52.905  1.00  0.00     0.000 A 
HETATM   24  C   UNL     1     -40.333  51.135 -54.044  1.00  0.00     0.001 A 
HETATM   25  C   UNL     1     -40.714  52.478 -54.069  1.00  0.00     0.008 A 
ENDBRANCH  15  20
ENDBRANCH  12  15
ENDBRANCH   1  11
BRANCH   8  26
HETATM   26  C   UNL     1     -41.622  60.835 -57.562  1.00  0.00     0.270 C 
HETATM   27  N   UNL     1     -42.334  61.289 -56.485  1.00  0.00    -0.365 N 
HETATM   28  H   UNL     1     -43.147  60.764 -56.186  1.00  0.00     0.159 HD
HETATM   29  H   UNL     1     -42.008  62.097 -55.979  1.00  0.00     0.159 HD
HETATM   30  O   UNL     1     -40.607  61.410 -57.940  1.00  0.00    -0.266 OA
ENDBRANCH   8  26
TORSDOF 6
ENDMDL
MODEL 8
REMARK VINA RESULT:      -7.9      2.614      7.627
REMARK  6 active torsions:
REMARK  status: ('A' for Active; 'I' for Inactive)
REMARK    1  A    between atoms: C_2  and  C_3 
REMARK    2  A    between atoms: C_3  and  C_4 
REMARK    3  A    between atoms: C_4  and  C_5 
REMARK    4  A    between atoms: C_4  and  C_21 
REMARK       I    between atoms: C_5  and  N_6 
REMARK    5  A    between atoms: N_6  and  C_7 
REMARK    6  A    between atoms: C_14  and  C_15 
REMARK       I    between atoms: C_15  and  N_16 
ROOT
HETATM    1  C   UNL     1     -40.981  54.598 -54.631  1.00  0.00     0.035 A 
HETATM    2  C   UNL     1     -40.557  53.267 -54.524  1.00  0.00     0.046 A 
HETATM    3  C   UNL     1     -40.271  52.727 -53.251  1.00  0.00     0.030 A 
HETATM    4  C   UNL     1     -40.396  53.544 -52.134  1.00  0.00     0.063 A 
HETATM    5  N   UNL     1     -40.039  52.762 -51.072  1.00  0.00    -0.277 N 
HETATM    6  H   UNL     1     -40.002  53.033 -50.096  1.00  0.00     0.189 HD
HETATM    7  N   UNL     1     -39.725  51.496 -51.392  1.00  0.00    -0.168 NA
HETATM    8  C   UNL     1     -39.869  51.458 -52.736  1.00  0.00     0.156 A 
HETATM    9  C   UNL     1     -40.815  54.874 -52.205  1.00  0.00     0.034 A 
HETATM   10  C   UNL     1     -41.121  55.377 -53.475  1.00  0.00     0.032 A 
ENDROOT
BRANCH   1  11
HETATM   11  N   UNL     1     -41.321  55.206 -55.860  1.00  0.00    -0.327 N 
HETATM   12  C   UNL     1     -42.589  55.289 -56.420  1.00  0.00     0.231 C 
HETATM   13  O   UNL     1     -43.584  54.706 -55.994  1.00  0.00    -0.272 OA
HETATM   14  H   UNL     1     -40.546  55.514 -56.429  1.00  0.00     0.169 HD
BRANCH  12  15
HETATM   15  C   UNL     1     -42.627  56.128 -57.719  1.00  0.00     0.115 C 
BRANCH  15  16
HETATM   16  C   UNL     1     -43.936  55.832 -58.513  1.00  0.00    -0.001 C 
HETATM   17  C   UNL     1     -44.814  57.084 -58.673  1.00  0.00     0.011 C 
BRANCH  16  18
HETATM   18  C   UNL     1     -43.673  55.189 -59.898  1.00  0.00     0.001 C 
HETATM   19  C   UNL     1     -44.915  54.885 -60.728  1.00  0.00     0.005 C 
ENDBRANCH  16  18
ENDBRANCH  15  16
BRANCH  15  20
HETATM   20  C   UNL     1     -42.428  57.612 -57.411  1.00  0.00    -0.045 A 
HETATM   21  C   UNL     1     -42.804  58.123 -56.158  1.00  0.00     0.008 A 
HETATM   22  C   UNL     1     -42.608  59.471 -55.849  1.00  0.00     0.001 A 
HETATM   23  C   UNL     1     -42.036  60.327 -56.788  1.00  0.00     0.000 A 
HETATM   24  C   UNL     1     -41.659  59.835 -58.035  1.00  0.00     0.001 A 
HETATM   25  C   UNL     1     -41.850  58.488 -58.343  1.00  0.00     0.008 A 
ENDBRANCH  15  20
ENDBRANCH  12  15
ENDBRANCH   1  11
BRANCH   8  26
HETATM   26  C   UNL     1     -39.640  50.215 -53.489  1.00  0.00     0.270 C 
HETATM   27  N   UNL     1     -39.410  49.120 -52.702  1.00  0.00    -0.365 N 
HETATM   28  H   UNL     1     -39.435  49.233 -51.695  1.00  0.00     0.159 HD
HETATM   29  H   UNL     1     -39.277  48.218 -53.131  1.00  0.00     0.159 HD
HETATM   30  O   UNL     1     -39.660  50.124 -54.712  1.00  0.00    -0.266 OA
ENDBRANCH   8  26
TORSDOF 6
ENDMDL
MODEL 9
REMARK VINA RESULT:      -7.9      3.036      8.174
REMARK  6 active torsions:
REMARK  status: ('A' for Active; 'I' for Inactive)
REMARK    1  A    between atoms: C_2  and  C_3 
REMARK    2  A    between atoms: C_3  and  C_4 
REMARK    3  A    between atoms: C_4  and  C_5 
REMARK    4  A    between atoms: C_4  and  C_21 
REMARK       I    between atoms: C_5  and  N_6 
REMARK    5  A    between atoms: N_6  and  C_7 
REMARK    6  A    between atoms: C_14  and  C_15 
REMARK       I    between atoms: C_15  and  N_16 
ROOT
HETATM    1  C   UNL     1     -41.166  54.714 -54.224  1.00  0.00     0.035 A 
HETATM    2  C   UNL     1     -41.225  54.670 -52.824  1.00  0.00     0.046 A 
HETATM    3  C   UNL     1     -40.713  53.545 -52.141  1.00  0.00     0.030 A 
HETATM    4  C   UNL     1     -40.181  52.497 -52.881  1.00  0.00     0.063 A 
HETATM    5  N   UNL     1     -39.792  51.565 -51.961  1.00  0.00    -0.277 N 
HETATM    6  H   UNL     1     -39.370  50.661 -52.143  1.00  0.00     0.189 HD
HETATM    7  N   UNL     1     -39.991  51.926 -50.683  1.00  0.00    -0.168 NA
HETATM    8  C   UNL     1     -40.556  53.152 -50.778  1.00  0.00     0.156 A 
HETATM    9  C   UNL     1     -40.107  52.508 -54.275  1.00  0.00     0.034 A 
HETATM   10  C   UNL     1     -40.595  53.646 -54.929  1.00  0.00     0.032 A 
ENDROOT
BRANCH   1  11
HETATM   11  N   UNL     1     -41.623  55.814 -54.984  1.00  0.00    -0.327 N 
HETATM   12  C   UNL     1     -42.919  56.308 -55.026  1.00  0.00     0.231 C 
HETATM   13  O   UNL     1     -43.897  55.760 -54.520  1.00  0.00    -0.272 OA
HETATM   14  H   UNL     1     -40.959  56.206 -55.637  1.00  0.00     0.169 HD
BRANCH  12  15
HETATM   15  C   UNL     1     -43.051  57.599 -55.868  1.00  0.00     0.115 C 
BRANCH  15  16
HETATM   16  C   UNL     1     -42.141  58.721 -55.281  1.00  0.00    -0.001 C 
HETATM   17  C   UNL     1     -42.649  60.128 -55.637  1.00  0.00     0.011 C 
BRANCH  16  18
HETATM   18  C   UNL     1     -41.942  58.602 -53.749  1.00  0.00     0.001 C 
HETATM   19  C   UNL     1     -40.509  58.760 -53.258  1.00  0.00     0.005 C 
ENDBRANCH  16  18
ENDBRANCH  15  16
BRANCH  15  20
HETATM   20  C   UNL     1     -42.783  57.312 -57.346  1.00  0.00    -0.045 A 
HETATM   21  C   UNL     1     -42.055  58.234 -58.117  1.00  0.00     0.008 A 
HETATM   22  C   UNL     1     -41.780  57.979 -59.462  1.00  0.00     0.001 A 
HETATM   23  C   UNL     1     -42.229  56.802 -60.056  1.00  0.00     0.000 A 
HETATM   24  C   UNL     1     -42.952  55.879 -59.305  1.00  0.00     0.001 A 
HETATM   25  C   UNL     1     -43.224  56.130 -57.960  1.00  0.00     0.008 A 
ENDBRANCH  15  20
ENDBRANCH  12  15
ENDBRANCH   1  11
BRANCH   8  26
HETATM   26  C   UNL     1     -40.910  53.920 -49.575  1.00  0.00     0.270 C 
HETATM   27  N   UNL     1     -39.864  54.131 -48.719  1.00  0.00    -0.365 N 
HETATM   28  H   UNL     1     -38.949  53.776 -48.975  1.00  0.00     0.159 HD
HETATM   29  H   UNL     1     -40.007  54.677 -47.885  1.00  0.00     0.159 HD
HETATM   30  O   UNL     1     -42.028  54.362 -49.331  1.00  0.00    -0.266 OA
ENDBRANCH   8  26
TORSDOF 6
ENDMDL
MODEL 10
REMARK VINA RESULT:      -7.7      3.040      7.756
REMARK  6 active torsions:
REMARK  status: ('A' for Active; 'I' for Inactive)
REMARK    1  A    between atoms: C_2  and  C_3 
REMARK    2  A    between atoms: C_3  and  C_4 
REMARK    3  A    between atoms: C_4  and  C_5 
REMARK    4  A    between atoms: C_4  and  C_21 
REMARK       I    between atoms: C_5  and  N_6 
REMARK    5  A    between atoms: N_6  and  C_7 
REMARK    6  A    between atoms: C_14  and  C_15 
REMARK       I    between atoms: C_15  and  N_16 
ROOT
HETATM    1  C   UNL     1     -40.904  54.491 -54.336  1.00  0.00     0.035 A 
HETATM    2  C   UNL     1     -41.136  54.598 -52.958  1.00  0.00     0.046 A 
HETATM    3  C   UNL     1     -40.717  53.559 -52.099  1.00  0.00     0.030 A 
HETATM    4  C   UNL     1     -40.102  52.441 -52.650  1.00  0.00     0.063 A 
HETATM    5  N   UNL     1     -39.834  51.617 -51.593  1.00  0.00    -0.277 N 
HETATM    6  H   UNL     1     -39.397  50.703 -51.623  1.00  0.00     0.189 HD
HETATM    7  N   UNL     1     -40.188  52.113 -50.396  1.00  0.00    -0.168 NA
HETATM    8  C   UNL     1     -40.730  53.316 -50.692  1.00  0.00     0.156 A 
HETATM    9  C   UNL     1     -39.857  52.302 -54.017  1.00  0.00     0.034 A 
HETATM   10  C   UNL     1     -40.257  53.358 -54.846  1.00  0.00     0.032 A 
ENDROOT
BRANCH   1  11
HETATM   11  N   UNL     1     -41.260  55.497 -55.261  1.00  0.00    -0.327 N 
HETATM   12  C   UNL     1     -42.414  55.545 -56.030  1.00  0.00     0.231 C 
HETATM   13  O   UNL     1     -43.230  54.630 -56.129  1.00  0.00    -0.272 OA
HETATM   14  H   UNL     1     -40.551  56.191 -55.453  1.00  0.00     0.169 HD
BRANCH  12  15
HETATM   15  C   UNL     1     -42.547  56.849 -56.851  1.00  0.00     0.115 C 
BRANCH  15  16
HETATM   16  C   UNL     1     -43.579  56.658 -58.004  1.00  0.00    -0.001 C 
HETATM   17  C   UNL     1     -44.147  57.997 -58.503  1.00  0.00     0.011 C 
BRANCH  16  18
HETATM   18  C   UNL     1     -43.014  55.846 -59.197  1.00  0.00     0.001 C 
HETATM   19  C   UNL     1     -44.030  55.006 -59.960  1.00  0.00     0.005 C 
ENDBRANCH  16  18
ENDBRANCH  15  16
BRANCH  15  20
HETATM   20  C   UNL     1     -42.869  58.033 -55.939  1.00  0.00    -0.045 A 
HETATM   21  C   UNL     1     -42.103  59.207 -56.019  1.00  0.00     0.008 A 
HETATM   22  C   UNL     1     -42.396  60.308 -55.211  1.00  0.00     0.001 A 
HETATM   23  C   UNL     1     -43.457  60.250 -54.310  1.00  0.00     0.000 A 
HETATM   24  C   UNL     1     -44.225  59.092 -54.218  1.00  0.00     0.001 A 
HETATM   25  C   UNL     1     -43.936  57.993 -55.028  1.00  0.00     0.008 A 
ENDBRANCH  15  20
ENDBRANCH  12  15
ENDBRANCH   1  11
BRANCH   8  26
HETATM   26  C   UNL     1     -41.227  54.207 -49.632  1.00  0.00     0.270 C 
HETATM   27  N   UNL     1     -40.519  54.133 -48.463  1.00  0.00    -0.365 N 
HETATM   28  H   UNL     1     -39.720  53.510 -48.420  1.00  0.00     0.159 HD
HETATM   29  H   UNL     1     -40.767  54.732 -47.693  1.00  0.00     0.159 HD
HETATM   30  O   UNL     1     -42.176  54.974 -49.750  1.00  0.00    -0.266 OA
ENDBRANCH   8  26
TORSDOF 6
ENDMDL
