MODEL 1
REMARK VINA RESULT:      -8.1      0.000      0.000
REMARK  11 active torsions:
REMARK  status: ('A' for Active; 'I' for Inactive)
REMARK    1  A    between atoms: C_3  and  C_4 
REMARK    2  A    between atoms: C_4  and  O_5 
REMARK    3  A    between atoms: C_12  and  C_13 
REMARK    4  A    between atoms: C_13  and  C_14 
REMARK    5  A    between atoms: C_15  and  C_16 
REMARK    6  A    between atoms: C_18  and  N_19 
REMARK    7  A    between atoms: N_25  and  C_26 
REMARK    8  A    between atoms: C_26  and  C_27 
REMARK    9  A    between atoms: C_27  and  C_28 
REMARK   10  A    between atoms: C_28  and  N_29 
REMARK   11  A    between atoms: C_38  and  O_39 
ROOT
HETATM    1  C   UNL     1     -42.686  57.219 -53.029  1.00  0.00     0.059 A 
HETATM    2  C   UNL     1     -42.346  56.494 -54.312  1.00  0.00     0.161 A 
HETATM    3  N   UNL     1     -42.745  55.136 -53.983  1.00  0.00    -0.333 N 
HETATM    4  C   UNL     1     -43.267  55.051 -52.712  1.00  0.00     0.278 A 
HETATM    5  O   UNL     1     -43.546  54.009 -52.137  1.00  0.00    -0.265 OA
HETATM    6  C   UNL     1     -43.210  56.400 -52.101  1.00  0.00     0.146 A 
ENDROOT
BRANCH   1   7
HETATM    7  C   UNL     1     -42.227  58.626 -52.950  1.00  0.00     0.196 C 
HETATM    8  O   UNL     1     -41.381  59.024 -53.745  1.00  0.00    -0.287 OA
BRANCH   7   9
HETATM    9  C   UNL     1     -42.707  59.443 -51.842  1.00  0.00     0.045 A 
HETATM   10  C   UNL     1     -44.046  59.965 -51.709  1.00  0.00    -0.013 A 
HETATM   11  C   UNL     1     -45.156  59.770 -52.691  1.00  0.00     0.052 C 
HETATM   12  C   UNL     1     -44.113  60.656 -50.502  1.00  0.00     0.115 A 
HETATM   13  N   UNL     1     -42.869  60.560 -49.919  1.00  0.00    -0.354 N 
HETATM   14  H   UNL     1     -42.654  60.956 -49.009  1.00  0.00     0.166 HD
HETATM   15  C   UNL     1     -42.020  59.806 -50.689  1.00  0.00     0.020 A 
HETATM   16  C   UNL     1     -40.651  59.495 -50.189  1.00  0.00     0.069 C 
BRANCH  12  17
HETATM   17  C   UNL     1     -45.181  61.362 -49.824  1.00  0.00     0.310 C 
HETATM   18  O   UNL     1     -45.435  62.544 -50.009  1.00  0.00    -0.258 OA
BRANCH  17  19
HETATM   19  O   UNL     1     -45.844  60.541 -48.969  1.00  0.00    -0.321 OA
HETATM   20  C   UNL     1     -45.667  60.868 -47.590  1.00  0.00     0.213 C 
ENDBRANCH  17  19
ENDBRANCH  12  17
ENDBRANCH   7   9
ENDBRANCH   1   7
BRANCH   2  21
HETATM   21  C   UNL     1     -43.018  56.994 -55.579  1.00  0.00    -0.028 A 
HETATM   22  C   UNL     1     -42.397  56.943 -56.837  1.00  0.00     0.045 A 
HETATM   23  C   UNL     1     -43.088  57.358 -57.989  1.00  0.00     0.103 A 
HETATM   24  C   UNL     1     -44.380  57.882 -57.897  1.00  0.00     0.036 A 
HETATM   25  C   UNL     1     -44.987  57.978 -56.647  1.00  0.00     0.003 A 
HETATM   26  C   UNL     1     -44.318  57.529 -55.504  1.00  0.00     0.010 A 
BRANCH  23  27
HETATM   27  N   UNL     1     -42.452  57.210 -59.306  1.00  0.00    -0.116 N 
HETATM   28  O   UNL     1     -41.858  58.197 -59.764  1.00  0.00    -0.532 OA
HETATM   29  O   UNL     1     -42.547  56.115 -59.874  1.00  0.00    -0.532 OA
ENDBRANCH  23  27
ENDBRANCH   2  21
BRANCH   6  30
HETATM   30  O   UNL     1     -43.489  56.579 -50.781  1.00  0.00    -0.355 OA
HETATM   31  H   UNL     1     -42.678  56.748 -50.271  1.00  0.00     0.218 HD
ENDBRANCH   6  30
BRANCH   3  32
HETATM   32  C   UNL     1     -42.313  53.964 -54.727  1.00  0.00     0.129 C 
BRANCH  32  33
HETATM   33  C   UNL     1     -40.807  53.679 -54.630  1.00  0.00     0.048 C 
BRANCH  33  34
HETATM   34  C   UNL     1     -40.226  53.383 -53.242  1.00  0.00     0.236 C 
BRANCH  34  35
HETATM   35  N   UNL     1     -39.647  52.004 -53.096  1.00  0.00    -0.067 N 
HETATM   36  H   UNL     1     -38.627  52.062 -53.302  1.00  0.00     0.280 HD
HETATM   37  C   UNL     1     -39.839  51.372 -51.730  1.00  0.00     0.261 C 
HETATM   38  C   UNL     1     -39.201  49.977 -51.705  1.00  0.00     0.195 C 
HETATM   39  O   UNL     1     -39.740  49.143 -52.735  1.00  0.00    -0.388 OA
HETATM   40  C   UNL     1     -39.483  49.691 -54.035  1.00  0.00     0.195 C 
HETATM   41  C   UNL     1     -40.159  51.057 -54.186  1.00  0.00     0.261 C 
ENDBRANCH  34  35
ENDBRANCH  33  34
ENDBRANCH  32  33
ENDBRANCH   3  32
TORSDOF 11
ENDMDL
MODEL 2
REMARK VINA RESULT:      -8.0      2.553      6.059
REMARK  11 active torsions:
REMARK  status: ('A' for Active; 'I' for Inactive)
REMARK    1  A    between atoms: C_3  and  C_4 
REMARK    2  A    between atoms: C_4  and  O_5 
REMARK    3  A    between atoms: C_12  and  C_13 
REMARK    4  A    between atoms: C_13  and  C_14 
REMARK    5  A    between atoms: C_15  and  C_16 
REMARK    6  A    between atoms: C_18  and  N_19 
REMARK    7  A    between atoms: N_25  and  C_26 
REMARK    8  A    between atoms: C_26  and  C_27 
REMARK    9  A    between atoms: C_27  and  C_28 
REMARK   10  A    between atoms: C_28  and  N_29 
REMARK   11  A    between atoms: C_38  and  O_39 
ROOT
HETATM    1  C   UNL     1     -43.561  56.441 -54.961  1.00  0.00     0.059 A 
HETATM    2  C   UNL     1     -43.675  56.329 -53.457  1.00  0.00     0.161 A 
HETATM    3  N   UNL     1     -42.983  55.075 -53.213  1.00  0.00    -0.333 N 
HETATM    4  C   UNL     1     -42.503  54.523 -54.379  1.00  0.00     0.278 A 
HETATM    5  O   UNL     1     -42.010  53.408 -54.476  1.00  0.00    -0.265 OA
HETATM    6  C   UNL     1     -42.896  55.407 -55.502  1.00  0.00     0.146 A 
ENDROOT
BRANCH   1   7
HETATM    7  C   UNL     1     -44.339  57.541 -55.580  1.00  0.00     0.196 C 
HETATM    8  O   UNL     1     -45.488  57.746 -55.201  1.00  0.00    -0.287 OA
BRANCH   7   9
HETATM    9  C   UNL     1     -43.747  58.249 -56.708  1.00  0.00     0.045 A 
HETATM   10  C   UNL     1     -42.798  59.331 -56.608  1.00  0.00    -0.013 A 
HETATM   11  C   UNL     1     -42.277  59.916 -55.335  1.00  0.00     0.052 C 
HETATM   12  C   UNL     1     -42.447  59.707 -57.902  1.00  0.00     0.115 A 
HETATM   13  N   UNL     1     -43.150  58.890 -58.759  1.00  0.00    -0.354 N 
HETATM   14  H   UNL     1     -43.054  58.935 -59.768  1.00  0.00     0.166 HD
HETATM   15  C   UNL     1     -43.909  57.982 -58.063  1.00  0.00     0.020 A 
HETATM   16  C   UNL     1     -44.671  56.938 -58.802  1.00  0.00     0.069 C 
BRANCH  12  17
HETATM   17  C   UNL     1     -41.535  60.701 -58.432  1.00  0.00     0.310 C 
HETATM   18  O   UNL     1     -40.579  61.143 -57.809  1.00  0.00    -0.258 OA
BRANCH  17  19
HETATM   19  O   UNL     1     -41.887  61.065 -59.692  1.00  0.00    -0.321 OA
HETATM   20  C   UNL     1     -42.643  62.274 -59.761  1.00  0.00     0.213 C 
ENDBRANCH  17  19
ENDBRANCH  12  17
ENDBRANCH   7   9
ENDBRANCH   1   7
BRANCH   2  21
HETATM   21  C   UNL     1     -43.091  57.470 -52.640  1.00  0.00    -0.028 A 
HETATM   22  C   UNL     1     -41.712  57.723 -52.572  1.00  0.00     0.045 A 
HETATM   23  C   UNL     1     -41.227  58.832 -51.856  1.00  0.00     0.103 A 
HETATM   24  C   UNL     1     -42.100  59.666 -51.152  1.00  0.00     0.036 A 
HETATM   25  C   UNL     1     -43.466  59.395 -51.179  1.00  0.00     0.003 A 
HETATM   26  C   UNL     1     -43.956  58.317 -51.923  1.00  0.00     0.010 A 
BRANCH  23  27
HETATM   27  N   UNL     1     -39.788  59.130 -51.873  1.00  0.00    -0.116 N 
HETATM   28  O   UNL     1     -39.244  59.368 -50.785  1.00  0.00    -0.532 OA
HETATM   29  O   UNL     1     -39.210  59.125 -52.968  1.00  0.00    -0.532 OA
ENDBRANCH  23  27
ENDBRANCH   2  21
BRANCH   6  30
HETATM   30  O   UNL     1     -42.716  55.015 -56.793  1.00  0.00    -0.355 OA
HETATM   31  H   UNL     1     -42.629  54.048 -56.857  1.00  0.00     0.218 HD
ENDBRANCH   6  30
BRANCH   3  32
HETATM   32  C   UNL     1     -43.102  54.312 -51.982  1.00  0.00     0.129 C 
BRANCH  32  33
HETATM   33  C   UNL     1     -41.896  54.447 -51.041  1.00  0.00     0.048 C 
BRANCH  33  34
HETATM   34  C   UNL     1     -40.550  53.895 -51.526  1.00  0.00     0.236 C 
BRANCH  34  35
HETATM   35  N   UNL     1     -40.490  52.396 -51.608  1.00  0.00    -0.067 N 
HETATM   36  H   UNL     1     -41.445  52.050 -51.842  1.00  0.00     0.280 HD
HETATM   37  C   UNL     1     -39.504  51.850 -52.623  1.00  0.00     0.261 C 
HETATM   38  C   UNL     1     -39.541  50.317 -52.618  1.00  0.00     0.195 C 
HETATM   39  O   UNL     1     -39.270  49.798 -51.311  1.00  0.00    -0.388 OA
HETATM   40  C   UNL     1     -40.252  50.238 -50.364  1.00  0.00     0.195 C 
HETATM   41  C   UNL     1     -40.229  51.765 -50.236  1.00  0.00     0.261 C 
ENDBRANCH  34  35
ENDBRANCH  33  34
ENDBRANCH  32  33
ENDBRANCH   3  32
TORSDOF 11
ENDMDL
MODEL 3
REMARK VINA RESULT:      -8.0      2.103      8.100
REMARK  11 active torsions:
REMARK  status: ('A' for Active; 'I' for Inactive)
REMARK    1  A    between atoms: C_3  and  C_4 
REMARK    2  A    between atoms: C_4  and  O_5 
REMARK    3  A    between atoms: C_12  and  C_13 
REMARK    4  A    between atoms: C_13  and  C_14 
REMARK    5  A    between atoms: C_15  and  C_16 
REMARK    6  A    between atoms: C_18  and  N_19 
REMARK    7  A    between atoms: N_25  and  C_26 
REMARK    8  A    between atoms: C_26  and  C_27 
REMARK    9  A    between atoms: C_27  and  C_28 
REMARK   10  A    between atoms: C_28  and  N_29 
REMARK   11  A    between atoms: C_38  and  O_39 
ROOT
HETATM    1  C   UNL     1     -42.610  57.389 -54.307  1.00  0.00     0.059 A 
HETATM    2  C   UNL     1     -42.913  58.871 -54.283  1.00  0.00     0.161 A 
HETATM    3  N   UNL     1     -44.073  58.937 -55.157  1.00  0.00    -0.333 N 
HETATM    4  C   UNL     1     -44.433  57.692 -55.620  1.00  0.00     0.278 A 
HETATM    5  O   UNL     1     -45.279  57.481 -56.477  1.00  0.00    -0.265 OA
HETATM    6  C   UNL     1     -43.472  56.703 -55.077  1.00  0.00     0.146 A 
ENDROOT
BRANCH   1   7
HETATM    7  C   UNL     1     -41.344  56.986 -53.651  1.00  0.00     0.196 C 
HETATM    8  O   UNL     1     -40.383  57.748 -53.687  1.00  0.00    -0.287 OA
BRANCH   7   9
HETATM    9  C   UNL     1     -41.256  55.639 -53.100  1.00  0.00     0.045 A 
HETATM   10  C   UNL     1     -40.625  54.513 -53.748  1.00  0.00    -0.013 A 
HETATM   11  C   UNL     1     -39.974  54.537 -55.093  1.00  0.00     0.052 C 
HETATM   12  C   UNL     1     -40.718  53.424 -52.886  1.00  0.00     0.115 A 
HETATM   13  N   UNL     1     -41.376  53.862 -51.759  1.00  0.00    -0.354 N 
HETATM   14  H   UNL     1     -41.549  53.267 -50.955  1.00  0.00     0.166 HD
HETATM   15  C   UNL     1     -41.676  55.198 -51.851  1.00  0.00     0.020 A 
HETATM   16  C   UNL     1     -42.300  55.895 -50.692  1.00  0.00     0.069 C 
BRANCH  12  17
HETATM   17  C   UNL     1     -40.256  52.053 -52.970  1.00  0.00     0.310 C 
HETATM   18  O   UNL     1     -39.555  51.521 -52.120  1.00  0.00    -0.258 OA
BRANCH  17  19
HETATM   19  O   UNL     1     -40.702  51.455 -54.106  1.00  0.00    -0.321 OA
HETATM   20  C   UNL     1     -40.129  50.171 -54.354  1.00  0.00     0.213 C 
ENDBRANCH  17  19
ENDBRANCH  12  17
ENDBRANCH   7   9
ENDBRANCH   1   7
BRANCH   2  21
HETATM   21  C   UNL     1     -43.189  59.490 -52.923  1.00  0.00    -0.028 A 
HETATM   22  C   UNL     1     -44.352  59.212 -52.186  1.00  0.00     0.045 A 
HETATM   23  C   UNL     1     -44.529  59.758 -50.903  1.00  0.00     0.103 A 
HETATM   24  C   UNL     1     -43.582  60.633 -50.362  1.00  0.00     0.036 A 
HETATM   25  C   UNL     1     -42.447  60.949 -51.105  1.00  0.00     0.003 A 
HETATM   26  C   UNL     1     -42.248  60.375 -52.365  1.00  0.00     0.010 A 
BRANCH  23  27
HETATM   27  N   UNL     1     -45.709  59.382 -50.114  1.00  0.00    -0.116 N 
HETATM   28  O   UNL     1     -46.416  58.462 -50.550  1.00  0.00    -0.532 OA
HETATM   29  O   UNL     1     -45.925  60.002 -49.064  1.00  0.00    -0.532 OA
ENDBRANCH  23  27
ENDBRANCH   2  21
BRANCH   6  30
HETATM   30  O   UNL     1     -43.474  55.415 -55.518  1.00  0.00    -0.355 OA
HETATM   31  H   UNL     1     -42.636  55.196 -55.960  1.00  0.00     0.218 HD
ENDBRANCH   6  30
BRANCH   3  32
HETATM   32  C   UNL     1     -44.558  60.164 -55.765  1.00  0.00     0.129 C 
BRANCH  32  33
HETATM   33  C   UNL     1     -43.603  60.769 -56.804  1.00  0.00     0.048 C 
BRANCH  33  34
HETATM   34  C   UNL     1     -43.933  60.551 -58.286  1.00  0.00     0.236 C 
BRANCH  34  35
HETATM   35  N   UNL     1     -43.892  59.115 -58.723  1.00  0.00    -0.067 N 
HETATM   36  H   UNL     1     -44.369  58.544 -57.993  1.00  0.00     0.280 HD
HETATM   37  C   UNL     1     -44.539  58.837 -60.067  1.00  0.00     0.261 C 
HETATM   38  C   UNL     1     -44.441  57.343 -60.397  1.00  0.00     0.195 C 
HETATM   39  O   UNL     1     -43.080  56.899 -60.384  1.00  0.00    -0.388 OA
HETATM   40  C   UNL     1     -42.489  57.076 -59.090  1.00  0.00     0.195 C 
HETATM   41  C   UNL     1     -42.464  58.560 -58.708  1.00  0.00     0.261 C 
ENDBRANCH  34  35
ENDBRANCH  33  34
ENDBRANCH  32  33
ENDBRANCH   3  32
TORSDOF 11
ENDMDL
MODEL 4
REMARK VINA RESULT:      -8.0      1.773      2.422
REMARK  11 active torsions:
REMARK  status: ('A' for Active; 'I' for Inactive)
REMARK    1  A    between atoms: C_3  and  C_4 
REMARK    2  A    between atoms: C_4  and  O_5 
REMARK    3  A    between atoms: C_12  and  C_13 
REMARK    4  A    between atoms: C_13  and  C_14 
REMARK    5  A    between atoms: C_15  and  C_16 
REMARK    6  A    between atoms: C_18  and  N_19 
REMARK    7  A    between atoms: N_25  and  C_26 
REMARK    8  A    between atoms: C_26  and  C_27 
REMARK    9  A    between atoms: C_27  and  C_28 
REMARK   10  A    between atoms: C_28  and  N_29 
REMARK   11  A    between atoms: C_38  and  O_39 
ROOT
HETATM    1  C   UNL     1     -41.747  57.535 -52.670  1.00  0.00     0.059 A 
HETATM    2  C   UNL     1     -42.069  56.630 -53.839  1.00  0.00     0.161 A 
HETATM    3  N   UNL     1     -42.454  55.408 -53.153  1.00  0.00    -0.333 N 
HETATM    4  C   UNL     1     -42.398  55.551 -51.785  1.00  0.00     0.278 A 
HETATM    5  O   UNL     1     -42.533  54.642 -50.979  1.00  0.00    -0.265 OA
HETATM    6  C   UNL     1     -41.926  56.924 -51.486  1.00  0.00     0.146 A 
ENDROOT
BRANCH   1   7
HETATM    7  C   UNL     1     -41.129  58.835 -53.021  1.00  0.00     0.196 C 
HETATM    8  O   UNL     1     -39.914  58.898 -53.177  1.00  0.00    -0.287 OA
BRANCH   7   9
HETATM    9  C   UNL     1     -41.983  60.017 -53.037  1.00  0.00     0.045 A 
HETATM   10  C   UNL     1     -42.425  60.742 -51.870  1.00  0.00    -0.013 A 
HETATM   11  C   UNL     1     -42.097  60.394 -50.454  1.00  0.00     0.052 C 
HETATM   12  C   UNL     1     -43.186  61.823 -52.306  1.00  0.00     0.115 A 
HETATM   13  N   UNL     1     -43.209  61.765 -53.682  1.00  0.00    -0.354 N 
HETATM   14  H   UNL     1     -43.675  62.460 -54.256  1.00  0.00     0.166 HD
HETATM   15  C   UNL     1     -42.463  60.709 -54.143  1.00  0.00     0.020 A 
HETATM   16  C   UNL     1     -42.274  60.524 -55.609  1.00  0.00     0.069 C 
BRANCH  12  17
HETATM   17  C   UNL     1     -43.864  62.901 -51.615  1.00  0.00     0.310 C 
HETATM   18  O   UNL     1     -45.058  62.890 -51.349  1.00  0.00    -0.258 OA
BRANCH  17  19
HETATM   19  O   UNL     1     -43.002  63.906 -51.310  1.00  0.00    -0.321 OA
HETATM   20  C   UNL     1     -42.799  64.097 -49.910  1.00  0.00     0.213 C 
ENDBRANCH  17  19
ENDBRANCH  12  17
ENDBRANCH   7   9
ENDBRANCH   1   7
BRANCH   2  21
HETATM   21  C   UNL     1     -43.147  57.110 -54.796  1.00  0.00    -0.028 A 
HETATM   22  C   UNL     1     -42.984  57.094 -56.191  1.00  0.00     0.045 A 
HETATM   23  C   UNL     1     -44.037  57.486 -57.035  1.00  0.00     0.103 A 
HETATM   24  C   UNL     1     -45.242  57.955 -56.505  1.00  0.00     0.036 A 
HETATM   25  C   UNL     1     -45.396  58.016 -55.121  1.00  0.00     0.003 A 
HETATM   26  C   UNL     1     -44.365  57.588 -54.278  1.00  0.00     0.010 A 
BRANCH  23  27
HETATM   27  N   UNL     1     -43.875  57.374 -58.492  1.00  0.00    -0.116 N 
HETATM   28  O   UNL     1     -44.728  56.721 -59.110  1.00  0.00    -0.532 OA
HETATM   29  O   UNL     1     -42.903  57.938 -59.010  1.00  0.00    -0.532 OA
ENDBRANCH  23  27
ENDBRANCH   2  21
BRANCH   6  30
HETATM   30  O   UNL     1     -41.598  57.286 -50.216  1.00  0.00    -0.355 OA
HETATM   31  H   UNL     1     -42.058  56.731 -49.563  1.00  0.00     0.218 HD
ENDBRANCH   6  30
BRANCH   3  32
HETATM   32  C   UNL     1     -42.522  54.107 -53.797  1.00  0.00     0.129 C 
BRANCH  32  33
HETATM   33  C   UNL     1     -41.372  53.831 -54.778  1.00  0.00     0.048 C 
BRANCH  33  34
HETATM   34  C   UNL     1     -40.049  53.318 -54.197  1.00  0.00     0.236 C 
BRANCH  34  35
HETATM   35  N   UNL     1     -40.198  52.163 -53.248  1.00  0.00    -0.067 N 
HETATM   36  H   UNL     1     -41.215  51.961 -53.146  1.00  0.00     0.280 HD
HETATM   37  C   UNL     1     -39.482  50.893 -53.670  1.00  0.00     0.261 C 
HETATM   38  C   UNL     1     -39.714  49.791 -52.630  1.00  0.00     0.195 C 
HETATM   39  O   UNL     1     -39.288  50.210 -51.329  1.00  0.00    -0.388 OA
HETATM   40  C   UNL     1     -40.024  51.357 -50.886  1.00  0.00     0.195 C 
HETATM   41  C   UNL     1     -39.784  52.545 -51.823  1.00  0.00     0.261 C 
ENDBRANCH  34  35
ENDBRANCH  33  34
ENDBRANCH  32  33
ENDBRANCH   3  32
TORSDOF 11
ENDMDL
MODEL 5
REMARK VINA RESULT:      -7.9      1.970      8.445
REMARK  11 active torsions:
REMARK  status: ('A' for Active; 'I' for Inactive)
REMARK    1  A    between atoms: C_3  and  C_4 
REMARK    2  A    between atoms: C_4  and  O_5 
REMARK    3  A    between atoms: C_12  and  C_13 
REMARK    4  A    between atoms: C_13  and  C_14 
REMARK    5  A    between atoms: C_15  and  C_16 
REMARK    6  A    between atoms: C_18  and  N_19 
REMARK    7  A    between atoms: N_25  and  C_26 
REMARK    8  A    between atoms: C_26  and  C_27 
REMARK    9  A    between atoms: C_27  and  C_28 
REMARK   10  A    between atoms: C_28  and  N_29 
REMARK   11  A    between atoms: C_38  and  O_39 
ROOT
HETATM    1  C   UNL     1     -42.370  56.999 -51.523  1.00  0.00     0.059 A 
HETATM    2  C   UNL     1     -43.279  58.142 -51.917  1.00  0.00     0.161 A 
HETATM    3  N   UNL     1     -42.501  59.287 -51.475  1.00  0.00    -0.333 N 
HETATM    4  C   UNL     1     -41.300  58.904 -50.921  1.00  0.00     0.278 A 
HETATM    5  O   UNL     1     -40.525  59.653 -50.345  1.00  0.00    -0.265 OA
HETATM    6  C   UNL     1     -41.234  57.424 -50.945  1.00  0.00     0.146 A 
ENDROOT
BRANCH   1   7
HETATM    7  C   UNL     1     -42.951  55.643 -51.667  1.00  0.00     0.196 C 
HETATM    8  O   UNL     1     -43.972  55.361 -51.049  1.00  0.00    -0.287 OA
BRANCH   7   9
HETATM    9  C   UNL     1     -42.206  54.656 -52.440  1.00  0.00     0.045 A 
HETATM   10  C   UNL     1     -41.259  53.713 -51.897  1.00  0.00    -0.013 A 
HETATM   11  C   UNL     1     -40.873  53.600 -50.457  1.00  0.00     0.052 C 
HETATM   12  C   UNL     1     -40.796  52.924 -52.947  1.00  0.00     0.115 A 
HETATM   13  N   UNL     1     -41.433  53.365 -54.086  1.00  0.00    -0.354 N 
HETATM   14  H   UNL     1     -41.296  52.936 -54.995  1.00  0.00     0.166 HD
HETATM   15  C   UNL     1     -42.311  54.380 -53.799  1.00  0.00     0.020 A 
HETATM   16  C   UNL     1     -43.177  54.933 -54.877  1.00  0.00     0.069 C 
BRANCH  12  17
HETATM   17  C   UNL     1     -39.868  51.814 -53.018  1.00  0.00     0.310 C 
HETATM   18  O   UNL     1     -39.252  51.384 -52.052  1.00  0.00    -0.258 OA
BRANCH  17  19
HETATM   19  O   UNL     1     -39.780  51.330 -54.283  1.00  0.00    -0.321 OA
HETATM   20  C   UNL     1     -39.963  49.917 -54.383  1.00  0.00     0.213 C 
ENDBRANCH  17  19
ENDBRANCH  12  17
ENDBRANCH   7   9
ENDBRANCH   1   7
BRANCH   2  21
HETATM   21  C   UNL     1     -43.653  58.241 -53.386  1.00  0.00    -0.028 A 
HETATM   22  C   UNL     1     -42.753  58.682 -54.369  1.00  0.00     0.045 A 
HETATM   23  C   UNL     1     -43.127  58.693 -55.724  1.00  0.00     0.103 A 
HETATM   24  C   UNL     1     -44.418  58.323 -56.112  1.00  0.00     0.036 A 
HETATM   25  C   UNL     1     -45.333  57.927 -55.138  1.00  0.00     0.003 A 
HETATM   26  C   UNL     1     -44.950  57.877 -53.793  1.00  0.00     0.010 A 
BRANCH  23  27
HETATM   27  N   UNL     1     -42.140  59.070 -56.745  1.00  0.00    -0.116 N 
HETATM   28  O   UNL     1     -41.981  58.293 -57.697  1.00  0.00    -0.532 OA
HETATM   29  O   UNL     1     -41.530  60.136 -56.592  1.00  0.00    -0.532 OA
ENDBRANCH  23  27
ENDBRANCH   2  21
BRANCH   6  30
HETATM   30  O   UNL     1     -40.240  56.761 -50.293  1.00  0.00    -0.355 OA
HETATM   31  H   UNL     1     -39.369  57.137 -50.507  1.00  0.00     0.218 HD
ENDBRANCH   6  30
BRANCH   3  32
HETATM   32  C   UNL     1     -43.056  60.617 -51.288  1.00  0.00     0.129 C 
BRANCH  32  33
HETATM   33  C   UNL     1     -44.327  60.652 -50.425  1.00  0.00     0.048 C 
BRANCH  33  34
HETATM   34  C   UNL     1     -44.878  62.026 -50.027  1.00  0.00     0.236 C 
BRANCH  34  35
HETATM   35  N   UNL     1     -45.456  62.081 -48.641  1.00  0.00    -0.067 N 
HETATM   36  H   UNL     1     -44.777  62.584 -48.031  1.00  0.00     0.280 HD
HETATM   37  C   UNL     1     -46.808  62.762 -48.539  1.00  0.00     0.261 C 
HETATM   38  C   UNL     1     -47.286  62.762 -47.082  1.00  0.00     0.195 C 
HETATM   39  O   UNL     1     -47.341  61.432 -46.555  1.00  0.00    -0.388 OA
HETATM   40  C   UNL     1     -46.047  60.815 -46.566  1.00  0.00     0.195 C 
HETATM   41  C   UNL     1     -45.521  60.692 -48.000  1.00  0.00     0.261 C 
ENDBRANCH  34  35
ENDBRANCH  33  34
ENDBRANCH  32  33
ENDBRANCH   3  32
TORSDOF 11
ENDMDL
MODEL 6
REMARK VINA RESULT:      -7.9      2.637      7.249
REMARK  11 active torsions:
REMARK  status: ('A' for Active; 'I' for Inactive)
REMARK    1  A    between atoms: C_3  and  C_4 
REMARK    2  A    between atoms: C_4  and  O_5 
REMARK    3  A    between atoms: C_12  and  C_13 
REMARK    4  A    between atoms: C_13  and  C_14 
REMARK    5  A    between atoms: C_15  and  C_16 
REMARK    6  A    between atoms: C_18  and  N_19 
REMARK    7  A    between atoms: N_25  and  C_26 
REMARK    8  A    between atoms: C_26  and  C_27 
REMARK    9  A    between atoms: C_27  and  C_28 
REMARK   10  A    between atoms: C_28  and  N_29 
REMARK   11  A    between atoms: C_38  and  O_39 
ROOT
HETATM    1  C   UNL     1     -43.866  57.236 -53.228  1.00  0.00     0.059 A 
HETATM    2  C   UNL     1     -43.217  58.528 -53.671  1.00  0.00     0.161 A 
HETATM    3  N   UNL     1     -43.168  58.340 -55.111  1.00  0.00    -0.333 N 
HETATM    4  C   UNL     1     -43.720  57.137 -55.488  1.00  0.00     0.278 A 
HETATM    5  O   UNL     1     -43.679  56.670 -56.617  1.00  0.00    -0.265 OA
HETATM    6  C   UNL     1     -44.153  56.427 -54.262  1.00  0.00     0.146 A 
ENDROOT
BRANCH   1   7
HETATM    7  C   UNL     1     -43.902  57.009 -51.763  1.00  0.00     0.196 C 
HETATM    8  O   UNL     1     -44.869  57.406 -51.121  1.00  0.00    -0.287 OA
BRANCH   7   9
HETATM    9  C   UNL     1     -42.720  56.438 -51.129  1.00  0.00     0.045 A 
HETATM   10  C   UNL     1     -42.467  55.028 -50.954  1.00  0.00    -0.013 A 
HETATM   11  C   UNL     1     -43.378  53.922 -51.378  1.00  0.00     0.052 C 
HETATM   12  C   UNL     1     -41.222  54.894 -50.344  1.00  0.00     0.115 A 
HETATM   13  N   UNL     1     -40.733  56.168 -50.154  1.00  0.00    -0.354 N 
HETATM   14  H   UNL     1     -39.820  56.353 -49.751  1.00  0.00     0.166 HD
HETATM   15  C   UNL     1     -41.600  57.109 -50.651  1.00  0.00     0.020 A 
HETATM   16  C   UNL     1     -41.214  58.547 -50.636  1.00  0.00     0.069 C 
BRANCH  12  17
HETATM   17  C   UNL     1     -40.434  53.746 -49.945  1.00  0.00     0.310 C 
HETATM   18  O   UNL     1     -40.560  53.179 -48.868  1.00  0.00    -0.258 OA
BRANCH  17  19
HETATM   19  O   UNL     1     -39.551  53.397 -50.916  1.00  0.00    -0.321 OA
HETATM   20  C   UNL     1     -39.891  52.199 -51.612  1.00  0.00     0.213 C 
ENDBRANCH  17  19
ENDBRANCH  12  17
ENDBRANCH   7   9
ENDBRANCH   1   7
BRANCH   2  21
HETATM   21  C   UNL     1     -43.927  59.816 -53.288  1.00  0.00    -0.028 A 
HETATM   22  C   UNL     1     -43.266  60.891 -52.672  1.00  0.00     0.045 A 
HETATM   23  C   UNL     1     -43.953  62.086 -52.399  1.00  0.00     0.103 A 
HETATM   24  C   UNL     1     -45.318  62.206 -52.679  1.00  0.00     0.036 A 
HETATM   25  C   UNL     1     -45.991  61.128 -53.250  1.00  0.00     0.003 A 
HETATM   26  C   UNL     1     -45.301  59.952 -53.560  1.00  0.00     0.010 A 
BRANCH  23  27
HETATM   27  N   UNL     1     -43.221  63.229 -51.838  1.00  0.00    -0.116 N 
HETATM   28  O   UNL     1     -42.939  63.188 -50.631  1.00  0.00    -0.532 OA
HETATM   29  O   UNL     1     -42.930  64.160 -52.601  1.00  0.00    -0.532 OA
ENDBRANCH  23  27
ENDBRANCH   2  21
BRANCH   6  30
HETATM   30  O   UNL     1     -44.567  55.131 -54.317  1.00  0.00    -0.355 OA
HETATM   31  H   UNL     1     -45.341  54.986 -53.746  1.00  0.00     0.218 HD
ENDBRANCH   6  30
BRANCH   3  32
HETATM   32  C   UNL     1     -42.323  59.121 -56.000  1.00  0.00     0.129 C 
BRANCH  32  33
HETATM   33  C   UNL     1     -43.094  60.090 -56.908  1.00  0.00     0.048 C 
BRANCH  33  34
HETATM   34  C   UNL     1     -42.999  59.873 -58.423  1.00  0.00     0.236 C 
BRANCH  34  35
HETATM   35  N   UNL     1     -43.290  58.467 -58.866  1.00  0.00    -0.067 N 
HETATM   36  H   UNL     1     -43.390  57.877 -58.012  1.00  0.00     0.280 HD
HETATM   37  C   UNL     1     -44.532  58.311 -59.722  1.00  0.00     0.261 C 
HETATM   38  C   UNL     1     -44.726  56.838 -60.101  1.00  0.00     0.195 C 
HETATM   39  O   UNL     1     -43.572  56.322 -60.774  1.00  0.00    -0.388 OA
HETATM   40  C   UNL     1     -42.411  56.384 -59.936  1.00  0.00     0.195 C 
HETATM   41  C   UNL     1     -42.086  57.836 -59.573  1.00  0.00     0.261 C 
ENDBRANCH  34  35
ENDBRANCH  33  34
ENDBRANCH  32  33
ENDBRANCH   3  32
TORSDOF 11
ENDMDL
MODEL 7
REMARK VINA RESULT:      -7.7      2.110      8.367
REMARK  11 active torsions:
REMARK  status: ('A' for Active; 'I' for Inactive)
REMARK    1  A    between atoms: C_3  and  C_4 
REMARK    2  A    between atoms: C_4  and  O_5 
REMARK    3  A    between atoms: C_12  and  C_13 
REMARK    4  A    between atoms: C_13  and  C_14 
REMARK    5  A    between atoms: C_15  and  C_16 
REMARK    6  A    between atoms: C_18  and  N_19 
REMARK    7  A    between atoms: N_25  and  C_26 
REMARK    8  A    between atoms: C_26  and  C_27 
REMARK    9  A    between atoms: C_27  and  C_28 
REMARK   10  A    between atoms: C_28  and  N_29 
REMARK   11  A    between atoms: C_38  and  O_39 
ROOT
HETATM    1  C   UNL     1     -42.339  57.125 -51.562  1.00  0.00     0.059 A 
HETATM    2  C   UNL     1     -43.216  58.307 -51.911  1.00  0.00     0.161 A 
HETATM    3  N   UNL     1     -42.393  59.414 -51.451  1.00  0.00    -0.333 N 
HETATM    4  C   UNL     1     -41.197  58.978 -50.928  1.00  0.00     0.278 A 
HETATM    5  O   UNL     1     -40.388  59.684 -50.346  1.00  0.00    -0.265 OA
HETATM    6  C   UNL     1     -41.181  57.497 -50.992  1.00  0.00     0.146 A 
ENDROOT
BRANCH   1   7
HETATM    7  C   UNL     1     -42.967  55.793 -51.733  1.00  0.00     0.196 C 
HETATM    8  O   UNL     1     -43.989  55.530 -51.107  1.00  0.00    -0.287 OA
BRANCH   7   9
HETATM    9  C   UNL     1     -42.266  54.803 -52.540  1.00  0.00     0.045 A 
HETATM   10  C   UNL     1     -41.379  53.785 -52.028  1.00  0.00    -0.013 A 
HETATM   11  C   UNL     1     -41.021  53.587 -50.591  1.00  0.00     0.052 C 
HETATM   12  C   UNL     1     -40.945  53.020 -53.107  1.00  0.00     0.115 A 
HETATM   13  N   UNL     1     -41.540  53.545 -54.233  1.00  0.00    -0.354 N 
HETATM   14  H   UNL     1     -41.414  53.150 -55.159  1.00  0.00     0.166 HD
HETATM   15  C   UNL     1     -42.366  54.593 -53.911  1.00  0.00     0.020 A 
HETATM   16  C   UNL     1     -43.185  55.240 -54.974  1.00  0.00     0.069 C 
BRANCH  12  17
HETATM   17  C   UNL     1     -40.078  51.864 -53.217  1.00  0.00     0.310 C 
HETATM   18  O   UNL     1     -39.182  51.612 -52.422  1.00  0.00    -0.258 OA
BRANCH  17  19
HETATM   19  O   UNL     1     -40.394  51.117 -54.306  1.00  0.00    -0.321 OA
HETATM   20  C   UNL     1     -39.652  49.902 -54.416  1.00  0.00     0.213 C 
ENDBRANCH  17  19
ENDBRANCH  12  17
ENDBRANCH   7   9
ENDBRANCH   1   7
BRANCH   2  21
HETATM   21  C   UNL     1     -43.610  58.459 -53.370  1.00  0.00    -0.028 A 
HETATM   22  C   UNL     1     -42.703  58.867 -54.362  1.00  0.00     0.045 A 
HETATM   23  C   UNL     1     -43.100  58.927 -55.709  1.00  0.00     0.103 A 
HETATM   24  C   UNL     1     -44.418  58.641 -56.078  1.00  0.00     0.036 A 
HETATM   25  C   UNL     1     -45.336  58.279 -55.095  1.00  0.00     0.003 A 
HETATM   26  C   UNL     1     -44.933  58.179 -53.759  1.00  0.00     0.010 A 
BRANCH  23  27
HETATM   27  N   UNL     1     -42.111  59.267 -56.740  1.00  0.00    -0.116 N 
HETATM   28  O   UNL     1     -41.448  60.301 -56.573  1.00  0.00    -0.532 OA
HETATM   29  O   UNL     1     -41.999  58.504 -57.708  1.00  0.00    -0.532 OA
ENDBRANCH  23  27
ENDBRANCH   2  21
BRANCH   6  30
HETATM   30  O   UNL     1     -40.199  56.784 -50.374  1.00  0.00    -0.355 OA
HETATM   31  H   UNL     1     -39.585  56.400 -51.023  1.00  0.00     0.218 HD
ENDBRANCH   6  30
BRANCH   3  32
HETATM   32  C   UNL     1     -42.901  60.756 -51.220  1.00  0.00     0.129 C 
BRANCH  32  33
HETATM   33  C   UNL     1     -43.622  60.932 -49.875  1.00  0.00     0.048 C 
BRANCH  33  34
HETATM   34  C   UNL     1     -45.145  60.753 -49.856  1.00  0.00     0.236 C 
BRANCH  34  35
HETATM   35  N   UNL     1     -45.881  61.619 -50.839  1.00  0.00    -0.067 N 
HETATM   36  H   UNL     1     -45.180  62.216 -51.327  1.00  0.00     0.280 HD
HETATM   37  C   UNL     1     -46.691  60.862 -51.875  1.00  0.00     0.261 C 
HETATM   38  C   UNL     1     -47.386  61.850 -52.820  1.00  0.00     0.195 C 
HETATM   39  O   UNL     1     -48.212  62.767 -52.093  1.00  0.00    -0.388 OA
HETATM   40  C   UNL     1     -47.437  63.549 -51.176  1.00  0.00     0.195 C 
HETATM   41  C   UNL     1     -46.768  62.648 -50.132  1.00  0.00     0.261 C 
ENDBRANCH  34  35
ENDBRANCH  33  34
ENDBRANCH  32  33
ENDBRANCH   3  32
TORSDOF 11
ENDMDL
MODEL 8
REMARK VINA RESULT:      -7.6      2.134      4.296
REMARK  11 active torsions:
REMARK  status: ('A' for Active; 'I' for Inactive)
REMARK    1  A    between atoms: C_3  and  C_4 
REMARK    2  A    between atoms: C_4  and  O_5 
REMARK    3  A    between atoms: C_12  and  C_13 
REMARK    4  A    between atoms: C_13  and  C_14 
REMARK    5  A    between atoms: C_15  and  C_16 
REMARK    6  A    between atoms: C_18  and  N_19 
REMARK    7  A    between atoms: N_25  and  C_26 
REMARK    8  A    between atoms: C_26  and  C_27 
REMARK    9  A    between atoms: C_27  and  C_28 
REMARK   10  A    between atoms: C_28  and  N_29 
REMARK   11  A    between atoms: C_38  and  O_39 
ROOT
HETATM    1  C   UNL     1     -43.959  57.803 -55.854  1.00  0.00     0.059 A 
HETATM    2  C   UNL     1     -43.945  56.727 -54.790  1.00  0.00     0.161 A 
HETATM    3  N   UNL     1     -43.271  55.646 -55.490  1.00  0.00    -0.333 N 
HETATM    4  C   UNL     1     -42.910  56.012 -56.767  1.00  0.00     0.278 A 
HETATM    5  O   UNL     1     -42.460  55.253 -57.613  1.00  0.00    -0.265 OA
HETATM    6  C   UNL     1     -43.373  57.401 -56.995  1.00  0.00     0.146 A 
ENDROOT
BRANCH   1   7
HETATM    7  C   UNL     1     -44.755  59.010 -55.530  1.00  0.00     0.196 C 
HETATM    8  O   UNL     1     -45.892  59.114 -55.979  1.00  0.00    -0.287 OA
BRANCH   7   9
HETATM    9  C   UNL     1     -44.101  60.086 -54.796  1.00  0.00     0.045 A 
HETATM   10  C   UNL     1     -44.432  60.502 -53.454  1.00  0.00    -0.013 A 
HETATM   11  C   UNL     1     -45.508  59.911 -52.602  1.00  0.00     0.052 C 
HETATM   12  C   UNL     1     -43.558  61.527 -53.101  1.00  0.00     0.115 A 
HETATM   13  N   UNL     1     -42.727  61.730 -54.179  1.00  0.00    -0.354 N 
HETATM   14  H   UNL     1     -41.971  62.408 -54.173  1.00  0.00     0.166 HD
HETATM   15  C   UNL     1     -43.011  60.852 -55.195  1.00  0.00     0.020 A 
HETATM   16  C   UNL     1     -42.160  60.837 -56.417  1.00  0.00     0.069 C 
BRANCH  12  17
HETATM   17  C   UNL     1     -43.389  62.311 -51.895  1.00  0.00     0.310 C 
HETATM   18  O   UNL     1     -43.770  63.468 -51.780  1.00  0.00    -0.258 OA
BRANCH  17  19
HETATM   19  O   UNL     1     -42.757  61.594 -50.929  1.00  0.00    -0.321 OA
HETATM   20  C   UNL     1     -43.580  61.272 -49.808  1.00  0.00     0.213 C 
ENDBRANCH  17  19
ENDBRANCH  12  17
ENDBRANCH   7   9
ENDBRANCH   1   7
BRANCH   2  21
HETATM   21  C   UNL     1     -43.259  57.072 -53.479  1.00  0.00    -0.028 A 
HETATM   22  C   UNL     1     -42.008  57.706 -53.423  1.00  0.00     0.045 A 
HETATM   23  C   UNL     1     -41.446  58.064 -52.185  1.00  0.00     0.103 A 
HETATM   24  C   UNL     1     -42.092  57.742 -50.987  1.00  0.00     0.036 A 
HETATM   25  C   UNL     1     -43.313  57.073 -51.033  1.00  0.00     0.003 A 
HETATM   26  C   UNL     1     -43.894  56.751 -52.265  1.00  0.00     0.010 A 
BRANCH  23  27
HETATM   27  N   UNL     1     -40.180  58.809 -52.153  1.00  0.00    -0.116 N 
HETATM   28  O   UNL     1     -39.707  59.173 -53.239  1.00  0.00    -0.532 OA
HETATM   29  O   UNL     1     -39.666  59.026 -51.048  1.00  0.00    -0.532 OA
ENDBRANCH  23  27
ENDBRANCH   2  21
BRANCH   6  30
HETATM   30  O   UNL     1     -43.317  57.959 -58.235  1.00  0.00    -0.355 OA
HETATM   31  H   UNL     1     -43.203  57.279 -58.921  1.00  0.00     0.218 HD
ENDBRANCH   6  30
BRANCH   3  32
HETATM   32  C   UNL     1     -43.304  54.259 -55.058  1.00  0.00     0.129 C 
BRANCH  32  33
HETATM   33  C   UNL     1     -42.151  53.864 -54.124  1.00  0.00     0.048 C 
BRANCH  33  34
HETATM   34  C   UNL     1     -40.830  53.427 -54.770  1.00  0.00     0.236 C 
BRANCH  34  35
HETATM   35  N   UNL     1     -40.058  52.415 -53.972  1.00  0.00    -0.067 N 
HETATM   36  H   UNL     1     -39.055  52.490 -54.246  1.00  0.00     0.280 HD
HETATM   37  C   UNL     1     -40.171  52.566 -52.467  1.00  0.00     0.261 C 
HETATM   38  C   UNL     1     -39.337  51.487 -51.767  1.00  0.00     0.195 C 
HETATM   39  O   UNL     1     -39.736  50.176 -52.181  1.00  0.00    -0.388 OA
HETATM   40  C   UNL     1     -39.547  49.996 -53.590  1.00  0.00     0.195 C 
HETATM   41  C   UNL     1     -40.413  50.982 -54.380  1.00  0.00     0.261 C 
ENDBRANCH  34  35
ENDBRANCH  33  34
ENDBRANCH  32  33
ENDBRANCH   3  32
TORSDOF 11
ENDMDL
MODEL 9
REMARK VINA RESULT:      -7.5      1.953      8.085
REMARK  11 active torsions:
REMARK  status: ('A' for Active; 'I' for Inactive)
REMARK    1  A    between atoms: C_3  and  C_4 
REMARK    2  A    between atoms: C_4  and  O_5 
REMARK    3  A    between atoms: C_12  and  C_13 
REMARK    4  A    between atoms: C_13  and  C_14 
REMARK    5  A    between atoms: C_15  and  C_16 
REMARK    6  A    between atoms: C_18  and  N_19 
REMARK    7  A    between atoms: N_25  and  C_26 
REMARK    8  A    between atoms: C_26  and  C_27 
REMARK    9  A    between atoms: C_27  and  C_28 
REMARK   10  A    between atoms: C_28  and  N_29 
REMARK   11  A    between atoms: C_38  and  O_39 
ROOT
HETATM    1  C   UNL     1     -43.482  56.827 -53.525  1.00  0.00     0.059 A 
HETATM    2  C   UNL     1     -42.306  57.760 -53.708  1.00  0.00     0.161 A 
HETATM    3  N   UNL     1     -42.790  58.620 -54.774  1.00  0.00    -0.333 N 
HETATM    4  C   UNL     1     -44.067  58.281 -55.163  1.00  0.00     0.278 A 
HETATM    5  O   UNL     1     -44.652  58.747 -56.129  1.00  0.00    -0.265 OA
HETATM    6  C   UNL     1     -44.496  57.112 -54.359  1.00  0.00     0.146 A 
ENDROOT
BRANCH   1   7
HETATM    7  C   UNL     1     -43.250  55.678 -52.617  1.00  0.00     0.196 C 
HETATM    8  O   UNL     1     -43.700  55.718 -51.476  1.00  0.00    -0.287 OA
BRANCH   7   9
HETATM    9  C   UNL     1     -42.382  54.602 -53.080  1.00  0.00     0.045 A 
HETATM   10  C   UNL     1     -41.356  53.961 -52.293  1.00  0.00    -0.013 A 
HETATM   11  C   UNL     1     -41.003  54.302 -50.882  1.00  0.00     0.052 C 
HETATM   12  C   UNL     1     -40.782  52.965 -53.078  1.00  0.00     0.115 A 
HETATM   13  N   UNL     1     -41.428  52.993 -54.294  1.00  0.00    -0.354 N 
HETATM   14  H   UNL     1     -41.220  52.343 -55.044  1.00  0.00     0.166 HD
HETATM   15  C   UNL     1     -42.417  53.945 -54.304  1.00  0.00     0.020 A 
HETATM   16  C   UNL     1     -43.306  54.071 -55.493  1.00  0.00     0.069 C 
BRANCH  12  17
HETATM   17  C   UNL     1     -39.739  51.989 -52.833  1.00  0.00     0.310 C 
HETATM   18  O   UNL     1     -39.194  51.839 -51.748  1.00  0.00    -0.258 OA
BRANCH  17  19
HETATM   19  O   UNL     1     -39.458  51.280 -53.957  1.00  0.00    -0.321 OA
HETATM   20  C   UNL     1     -39.596  49.867 -53.806  1.00  0.00     0.213 C 
ENDBRANCH  17  19
ENDBRANCH  12  17
ENDBRANCH   7   9
ENDBRANCH   1   7
BRANCH   2  21
HETATM   21  C   UNL     1     -41.869  58.555 -52.489  1.00  0.00    -0.028 A 
HETATM   22  C   UNL     1     -42.610  59.637 -51.985  1.00  0.00     0.045 A 
HETATM   23  C   UNL     1     -42.197  60.298 -50.815  1.00  0.00     0.103 A 
HETATM   24  C   UNL     1     -41.014  59.932 -50.167  1.00  0.00     0.036 A 
HETATM   25  C   UNL     1     -40.250  58.889 -50.686  1.00  0.00     0.003 A 
HETATM   26  C   UNL     1     -40.678  58.203 -51.827  1.00  0.00     0.010 A 
BRANCH  23  27
HETATM   27  N   UNL     1     -43.036  61.366 -50.254  1.00  0.00    -0.116 N 
HETATM   28  O   UNL     1     -42.895  62.505 -50.722  1.00  0.00    -0.532 OA
HETATM   29  O   UNL     1     -43.828  61.065 -49.352  1.00  0.00    -0.532 OA
ENDBRANCH  23  27
ENDBRANCH   2  21
BRANCH   6  30
HETATM   30  O   UNL     1     -45.645  56.446 -54.658  1.00  0.00    -0.355 OA
HETATM   31  H   UNL     1     -46.041  56.782 -55.480  1.00  0.00     0.218 HD
ENDBRANCH   6  30
BRANCH   3  32
HETATM   32  C   UNL     1     -41.930  59.469 -55.582  1.00  0.00     0.129 C 
BRANCH  32  33
HETATM   33  C   UNL     1     -42.464  59.737 -56.997  1.00  0.00     0.048 C 
BRANCH  33  34
HETATM   34  C   UNL     1     -41.927  58.864 -58.137  1.00  0.00     0.236 C 
BRANCH  34  35
HETATM   35  N   UNL     1     -42.928  57.893 -58.696  1.00  0.00    -0.067 N 
HETATM   36  H   UNL     1     -43.836  58.056 -58.212  1.00  0.00     0.280 HD
HETATM   37  C   UNL     1     -43.143  57.988 -60.195  1.00  0.00     0.261 C 
HETATM   38  C   UNL     1     -44.187  56.957 -60.641  1.00  0.00     0.195 C 
HETATM   39  O   UNL     1     -43.799  55.632 -60.262  1.00  0.00    -0.388 OA
HETATM   40  C   UNL     1     -43.681  55.511 -58.839  1.00  0.00     0.195 C 
HETATM   41  C   UNL     1     -42.592  56.449 -58.308  1.00  0.00     0.261 C 
ENDBRANCH  34  35
ENDBRANCH  33  34
ENDBRANCH  32  33
ENDBRANCH   3  32
TORSDOF 11
ENDMDL
MODEL 10
REMARK VINA RESULT:      -7.5      2.279      7.516
REMARK  11 active torsions:
REMARK  status: ('A' for Active; 'I' for Inactive)
REMARK    1  A    between atoms: C_3  and  C_4 
REMARK    2  A    between atoms: C_4  and  O_5 
REMARK    3  A    between atoms: C_12  and  C_13 
REMARK    4  A    between atoms: C_13  and  C_14 
REMARK    5  A    between atoms: C_15  and  C_16 
REMARK    6  A    between atoms: C_18  and  N_19 
REMARK    7  A    between atoms: N_25  and  C_26 
REMARK    8  A    between atoms: C_26  and  C_27 
REMARK    9  A    between atoms: C_27  and  C_28 
REMARK   10  A    between atoms: C_28  and  N_29 
REMARK   11  A    between atoms: C_38  and  O_39 
ROOT
HETATM    1  C   UNL     1     -42.393  56.836 -54.673  1.00  0.00     0.059 A 
HETATM    2  C   UNL     1     -43.024  57.737 -55.711  1.00  0.00     0.161 A 
HETATM    3  N   UNL     1     -42.415  59.015 -55.385  1.00  0.00    -0.333 N 
HETATM    4  C   UNL     1     -41.535  58.906 -54.331  1.00  0.00     0.278 A 
HETATM    5  O   UNL     1     -40.998  59.848 -53.767  1.00  0.00    -0.265 OA
HETATM    6  C   UNL     1     -41.541  57.498 -53.872  1.00  0.00     0.146 A 
ENDROOT
BRANCH   1   7
HETATM    7  C   UNL     1     -42.945  55.462 -54.600  1.00  0.00     0.196 C 
HETATM    8  O   UNL     1     -44.006  55.214 -55.164  1.00  0.00    -0.287 OA
BRANCH   7   9
HETATM    9  C   UNL     1     -42.265  54.495 -53.747  1.00  0.00     0.045 A 
HETATM   10  C   UNL     1     -41.079  53.755 -54.106  1.00  0.00    -0.013 A 
HETATM   11  C   UNL     1     -40.360  53.845 -55.413  1.00  0.00     0.052 C 
HETATM   12  C   UNL     1     -40.723  52.971 -53.012  1.00  0.00     0.115 A 
HETATM   13  N   UNL     1     -41.650  53.219 -52.025  1.00  0.00    -0.354 N 
HETATM   14  H   UNL     1     -41.604  52.794 -51.105  1.00  0.00     0.166 HD
HETATM   15  C   UNL     1     -42.565  54.158 -52.432  1.00  0.00     0.020 A 
HETATM   16  C   UNL     1     -43.597  54.645 -51.475  1.00  0.00     0.069 C 
BRANCH  12  17
HETATM   17  C   UNL     1     -39.630  52.051 -52.767  1.00  0.00     0.310 C 
HETATM   18  O   UNL     1     -39.030  51.981 -51.703  1.00  0.00    -0.258 OA
BRANCH  17  19
HETATM   19  O   UNL     1     -39.371  51.295 -53.865  1.00  0.00    -0.321 OA
HETATM   20  C   UNL     1     -39.715  49.917 -53.720  1.00  0.00     0.213 C 
ENDBRANCH  17  19
ENDBRANCH  12  17
ENDBRANCH   7   9
ENDBRANCH   1   7
BRANCH   2  21
HETATM   21  C   UNL     1     -42.808  57.359 -57.167  1.00  0.00    -0.028 A 
HETATM   22  C   UNL     1     -43.491  56.298 -57.783  1.00  0.00     0.045 A 
HETATM   23  C   UNL     1     -43.305  56.030 -59.151  1.00  0.00     0.103 A 
HETATM   24  C   UNL     1     -42.394  56.773 -59.906  1.00  0.00     0.036 A 
HETATM   25  C   UNL     1     -41.678  57.799 -59.292  1.00  0.00     0.003 A 
HETATM   26  C   UNL     1     -41.892  58.094 -57.941  1.00  0.00     0.010 A 
BRANCH  23  27
HETATM   27  N   UNL     1     -44.098  54.975 -59.796  1.00  0.00    -0.116 N 
HETATM   28  O   UNL     1     -44.381  53.979 -59.115  1.00  0.00    -0.532 OA
HETATM   29  O   UNL     1     -44.435  55.145 -60.975  1.00  0.00    -0.532 OA
ENDBRANCH  23  27
ENDBRANCH   2  21
BRANCH   6  30
HETATM   30  O   UNL     1     -40.904  57.137 -52.724  1.00  0.00    -0.355 OA
HETATM   31  H   UNL     1     -41.118  56.220 -52.478  1.00  0.00     0.218 HD
ENDBRANCH   6  30
BRANCH   3  32
HETATM   32  C   UNL     1     -42.930  60.296 -55.839  1.00  0.00     0.129 C 
BRANCH  32  33
HETATM   33  C   UNL     1     -43.969  60.925 -54.899  1.00  0.00     0.048 C 
BRANCH  33  34
HETATM   34  C   UNL     1     -45.319  60.213 -54.754  1.00  0.00     0.236 C 
BRANCH  34  35
HETATM   35  N   UNL     1     -45.709  59.911 -53.335  1.00  0.00    -0.067 N 
HETATM   36  H   UNL     1     -46.703  59.598 -53.336  1.00  0.00     0.280 HD
HETATM   37  C   UNL     1     -44.860  58.856 -52.650  1.00  0.00     0.261 C 
HETATM   38  C   UNL     1     -45.359  58.632 -51.217  1.00  0.00     0.195 C 
HETATM   39  O   UNL     1     -45.356  59.854 -50.472  1.00  0.00    -0.388 OA
HETATM   40  C   UNL     1     -46.227  60.826 -51.065  1.00  0.00     0.195 C 
HETATM   41  C   UNL     1     -45.755  61.180 -52.478  1.00  0.00     0.261 C 
ENDBRANCH  34  35
ENDBRANCH  33  34
ENDBRANCH  32  33
ENDBRANCH   3  32
TORSDOF 11
ENDMDL
