MODEL 1
REMARK VINA RESULT:      -7.5      0.000      0.000
REMARK  8 active torsions:
REMARK  status: ('A' for Active; 'I' for Inactive)
REMARK    1  A    between atoms: C_2  and  C_3 
REMARK    2  A    between atoms: C_3  and  N_4 
REMARK    3  A    between atoms: N_9  and  C_11 
REMARK    4  A    between atoms: C_11  and  C_12 
REMARK    5  A    between atoms: C_14  and  C_15 
REMARK    6  A    between atoms: C_15  and  C_16 
REMARK    7  A    between atoms: C_16  and  C_17 
REMARK    8  A    between atoms: C_17  and  O_18 
ROOT
HETATM    1  N   UNL     1     -42.001  56.313 -51.897  1.00  0.00    -0.066 N 
HETATM    2  H   UNL     1     -41.339  56.250 -52.680  1.00  0.00     0.280 HD
HETATM    3  C   UNL     1     -43.101  57.308 -52.203  1.00  0.00     0.246 C 
HETATM    4  C   UNL     1     -42.522  58.704 -52.499  1.00  0.00     0.009 C 
HETATM    5  C   UNL     1     -41.839  58.752 -53.875  1.00  0.00     0.246 C 
HETATM    6  N   UNL     1     -41.912  60.197 -54.314  1.00  0.00    -0.066 N 
HETATM    7  H   UNL     1     -41.025  60.661 -54.071  1.00  0.00     0.280 HD
HETATM    8  C   UNL     1     -43.011  60.866 -53.516  1.00  0.00     0.236 C 
HETATM    9  C   UNL     1     -43.647  59.732 -52.720  1.00  0.00     0.040 C 
HETATM   10  C   UNL     1     -41.593  59.140 -51.343  1.00  0.00     0.014 C 
HETATM   11  C   UNL     1     -40.569  58.072 -50.947  1.00  0.00     0.029 C 
HETATM   12  C   UNL     1     -41.211  56.715 -50.674  1.00  0.00     0.235 C 
ENDROOT
BRANCH   1  13
HETATM   13  C   UNL     1     -42.526  54.879 -51.770  1.00  0.00     0.273 C 
BRANCH  13  14
HETATM   14  C   UNL     1     -41.555  53.880 -52.347  1.00  0.00    -0.032 A 
HETATM   15  C   UNL     1     -41.541  53.607 -53.727  1.00  0.00     0.012 A 
HETATM   16  C   UNL     1     -40.703  52.617 -54.242  1.00  0.00     0.043 A 
HETATM   17  C   UNL     1     -39.868  51.909 -53.386  1.00  0.00     0.116 A 
HETATM   18  C   UNL     1     -39.846  52.181 -52.026  1.00  0.00     0.043 A 
HETATM   19  F   UNL     1     -39.079  50.948 -53.881  1.00  0.00    -0.206 F 
HETATM   20  C   UNL     1     -40.687  53.166 -51.503  1.00  0.00     0.012 A 
ENDBRANCH  13  14
ENDBRANCH   1  13
BRANCH   6  21
HETATM   21  C   UNL     1     -42.052  60.388 -55.818  1.00  0.00     0.280 C 
BRANCH  21  22
HETATM   22  C   UNL     1     -42.995  59.401 -56.426  1.00  0.00     0.009 A 
HETATM   23  S   UNL     1     -42.392  58.151 -57.440  1.00  0.00    -0.084 SA
HETATM   24  C   UNL     1     -43.953  57.543 -57.748  1.00  0.00     0.058 A 
HETATM   25  C   UNL     1     -44.919  58.246 -57.062  1.00  0.00     0.029 A 
HETATM   26  C   UNL     1     -44.367  59.316 -56.295  1.00  0.00     0.018 A 
BRANCH  24  27
HETATM   27  C   UNL     1     -44.203  56.445 -58.622  1.00  0.00    -0.057 C 
BRANCH  27  28
HETATM   28  C   UNL     1     -44.446  55.516 -59.344  1.00  0.00    -0.075 C 
BRANCH  28  29
HETATM   29  C   UNL     1     -44.759  54.367 -60.192  1.00  0.00     0.258 C 
BRANCH  29  30
HETATM   30  O   UNL     1     -45.166  53.282 -59.373  1.00  0.00    -0.389 OA
HETATM   31  H   UNL     1     -44.701  52.494 -59.702  1.00  0.00     0.210 HD
ENDBRANCH  29  30
ENDBRANCH  28  29
ENDBRANCH  27  28
ENDBRANCH  24  27
ENDBRANCH  21  22
ENDBRANCH   6  21
TORSDOF 8
ENDMDL
MODEL 2
REMARK VINA RESULT:      -7.4      3.213      3.925
REMARK  8 active torsions:
REMARK  status: ('A' for Active; 'I' for Inactive)
REMARK    1  A    between atoms: C_2  and  C_3 
REMARK    2  A    between atoms: C_3  and  N_4 
REMARK    3  A    between atoms: N_9  and  C_11 
REMARK    4  A    between atoms: C_11  and  C_12 
REMARK    5  A    between atoms: C_14  and  C_15 
REMARK    6  A    between atoms: C_15  and  C_16 
REMARK    7  A    between atoms: C_16  and  C_17 
REMARK    8  A    between atoms: C_17  and  O_18 
ROOT
HETATM    1  N   UNL     1     -41.511  55.767 -52.189  1.00  0.00    -0.066 N 
HETATM    2  H   UNL     1     -40.903  55.603 -52.999  1.00  0.00     0.280 HD
HETATM    3  C   UNL     1     -42.961  55.856 -52.616  1.00  0.00     0.246 C 
HETATM    4  C   UNL     1     -43.169  56.979 -53.649  1.00  0.00     0.009 C 
HETATM    5  C   UNL     1     -42.594  56.597 -55.021  1.00  0.00     0.246 C 
HETATM    6  N   UNL     1     -43.388  57.396 -56.030  1.00  0.00    -0.066 N 
HETATM    7  H   UNL     1     -42.862  58.251 -56.262  1.00  0.00     0.280 HD
HETATM    8  C   UNL     1     -44.681  57.821 -55.367  1.00  0.00     0.236 C 
HETATM    9  C   UNL     1     -44.658  57.125 -54.011  1.00  0.00     0.040 C 
HETATM   10  C   UNL     1     -42.601  58.307 -53.099  1.00  0.00     0.014 C 
HETATM   11  C   UNL     1     -41.180  58.178 -52.542  1.00  0.00     0.029 C 
HETATM   12  C   UNL     1     -41.045  57.045 -51.530  1.00  0.00     0.235 C 
ENDROOT
BRANCH   1  13
HETATM   13  C   UNL     1     -41.236  54.552 -51.296  1.00  0.00     0.273 C 
BRANCH  13  14
HETATM   14  C   UNL     1     -40.602  53.426 -52.074  1.00  0.00    -0.032 A 
HETATM   15  C   UNL     1     -40.653  53.407 -53.480  1.00  0.00     0.012 A 
HETATM   16  C   UNL     1     -40.143  52.318 -54.189  1.00  0.00     0.043 A 
HETATM   17  C   UNL     1     -39.569  51.255 -53.501  1.00  0.00     0.116 A 
HETATM   18  C   UNL     1     -39.484  51.267 -52.116  1.00  0.00     0.043 A 
HETATM   19  F   UNL     1     -39.098  50.206 -54.183  1.00  0.00    -0.206 F 
HETATM   20  C   UNL     1     -39.998  52.351 -51.399  1.00  0.00     0.012 A 
ENDBRANCH  13  14
ENDBRANCH   1  13
BRANCH   6  21
HETATM   21  C   UNL     1     -43.592  56.693 -57.366  1.00  0.00     0.280 C 
BRANCH  21  22
HETATM   22  C   UNL     1     -42.953  57.434 -58.496  1.00  0.00     0.009 A 
HETATM   23  S   UNL     1     -42.884  59.150 -58.465  1.00  0.00    -0.084 SA
HETATM   24  C   UNL     1     -42.129  59.223 -59.991  1.00  0.00     0.058 A 
HETATM   25  C   UNL     1     -41.890  57.967 -60.502  1.00  0.00     0.029 A 
HETATM   26  C   UNL     1     -42.361  56.932 -59.639  1.00  0.00     0.018 A 
BRANCH  24  27
HETATM   27  C   UNL     1     -41.803  60.449 -60.641  1.00  0.00    -0.057 C 
BRANCH  27  28
HETATM   28  C   UNL     1     -41.494  61.470 -61.195  1.00  0.00    -0.075 C 
BRANCH  28  29
HETATM   29  C   UNL     1     -41.129  62.695 -61.903  1.00  0.00     0.258 C 
BRANCH  29  30
HETATM   30  O   UNL     1     -39.980  62.445 -62.699  1.00  0.00    -0.389 OA
HETATM   31  H   UNL     1     -40.032  63.047 -63.461  1.00  0.00     0.210 HD
ENDBRANCH  29  30
ENDBRANCH  28  29
ENDBRANCH  27  28
ENDBRANCH  24  27
ENDBRANCH  21  22
ENDBRANCH   6  21
TORSDOF 8
ENDMDL
MODEL 3
REMARK VINA RESULT:      -7.3      2.269      2.982
REMARK  8 active torsions:
REMARK  status: ('A' for Active; 'I' for Inactive)
REMARK    1  A    between atoms: C_2  and  C_3 
REMARK    2  A    between atoms: C_3  and  N_4 
REMARK    3  A    between atoms: N_9  and  C_11 
REMARK    4  A    between atoms: C_11  and  C_12 
REMARK    5  A    between atoms: C_14  and  C_15 
REMARK    6  A    between atoms: C_15  and  C_16 
REMARK    7  A    between atoms: C_16  and  C_17 
REMARK    8  A    between atoms: C_17  and  O_18 
ROOT
HETATM    1  N   UNL     1     -42.580  55.975 -53.067  1.00  0.00    -0.066 N 
HETATM    2  H   UNL     1     -41.707  55.844 -53.590  1.00  0.00     0.280 HD
HETATM    3  C   UNL     1     -43.716  56.337 -54.001  1.00  0.00     0.246 C 
HETATM    4  C   UNL     1     -43.397  57.617 -54.796  1.00  0.00     0.009 C 
HETATM    5  C   UNL     1     -42.339  57.359 -55.880  1.00  0.00     0.246 C 
HETATM    6  N   UNL     1     -42.585  58.404 -56.944  1.00  0.00    -0.066 N 
HETATM    7  H   UNL     1     -41.948  59.197 -56.782  1.00  0.00     0.280 HD
HETATM    8  C   UNL     1     -44.001  58.913 -56.771  1.00  0.00     0.236 C 
HETATM    9  C   UNL     1     -44.590  58.031 -55.676  1.00  0.00     0.040 C 
HETATM   10  C   UNL     1     -43.006  58.753 -53.823  1.00  0.00     0.014 C 
HETATM   11  C   UNL     1     -41.954  58.337 -52.791  1.00  0.00     0.029 C 
HETATM   12  C   UNL     1     -42.332  57.061 -52.046  1.00  0.00     0.235 C 
ENDROOT
BRANCH   1  13
HETATM   13  C   UNL     1     -42.789  54.617 -52.390  1.00  0.00     0.273 C 
BRANCH  13  14
HETATM   14  C   UNL     1     -41.704  53.638 -52.768  1.00  0.00    -0.032 A 
HETATM   15  C   UNL     1     -41.611  53.142 -54.081  1.00  0.00     0.012 A 
HETATM   16  C   UNL     1     -40.662  52.169 -54.402  1.00  0.00     0.043 A 
HETATM   17  C   UNL     1     -39.797  51.701 -53.420  1.00  0.00     0.116 A 
HETATM   18  C   UNL     1     -39.855  52.197 -52.125  1.00  0.00     0.043 A 
HETATM   19  F   UNL     1     -38.902  50.757 -53.727  1.00  0.00    -0.206 F 
HETATM   20  C   UNL     1     -40.806  53.166 -51.796  1.00  0.00     0.012 A 
ENDBRANCH  13  14
ENDBRANCH   1  13
BRANCH   6  21
HETATM   21  C   UNL     1     -42.276  57.941 -58.361  1.00  0.00     0.280 C 
BRANCH  21  22
HETATM   22  C   UNL     1     -43.421  57.202 -58.975  1.00  0.00     0.009 A 
HETATM   23  S   UNL     1     -44.562  58.043 -59.945  1.00  0.00    -0.084 SA
HETATM   24  C   UNL     1     -45.497  56.640 -60.196  1.00  0.00     0.058 A 
HETATM   25  C   UNL     1     -44.934  55.538 -59.592  1.00  0.00     0.029 A 
HETATM   26  C   UNL     1     -43.734  55.859 -58.890  1.00  0.00     0.018 A 
BRANCH  24  27
HETATM   27  C   UNL     1     -46.714  56.637 -60.939  1.00  0.00    -0.057 C 
BRANCH  27  28
HETATM   28  C   UNL     1     -47.723  56.655 -61.590  1.00  0.00    -0.075 C 
BRANCH  28  29
HETATM   29  C   UNL     1     -48.956  56.638 -62.376  1.00  0.00     0.258 C 
BRANCH  29  30
HETATM   30  O   UNL     1     -48.676  56.122 -63.668  1.00  0.00    -0.389 OA
HETATM   31  H   UNL     1     -49.171  55.289 -63.749  1.00  0.00     0.210 HD
ENDBRANCH  29  30
ENDBRANCH  28  29
ENDBRANCH  27  28
ENDBRANCH  24  27
ENDBRANCH  21  22
ENDBRANCH   6  21
TORSDOF 8
ENDMDL
MODEL 4
REMARK VINA RESULT:      -7.2      3.244      6.078
REMARK  8 active torsions:
REMARK  status: ('A' for Active; 'I' for Inactive)
REMARK    1  A    between atoms: C_2  and  C_3 
REMARK    2  A    between atoms: C_3  and  N_4 
REMARK    3  A    between atoms: N_9  and  C_11 
REMARK    4  A    between atoms: C_11  and  C_12 
REMARK    5  A    between atoms: C_14  and  C_15 
REMARK    6  A    between atoms: C_15  and  C_16 
REMARK    7  A    between atoms: C_16  and  C_17 
REMARK    8  A    between atoms: C_17  and  O_18 
ROOT
HETATM    1  N   UNL     1     -43.236  56.632 -56.427  1.00  0.00    -0.066 N 
HETATM    2  H   UNL     1     -43.898  56.400 -55.677  1.00  0.00     0.280 HD
HETATM    3  C   UNL     1     -42.267  57.704 -55.974  1.00  0.00     0.246 C 
HETATM    4  C   UNL     1     -43.013  58.979 -55.536  1.00  0.00     0.009 C 
HETATM    5  C   UNL     1     -43.718  58.784 -54.185  1.00  0.00     0.246 C 
HETATM    6  N   UNL     1     -43.824  60.165 -53.579  1.00  0.00    -0.066 N 
HETATM    7  H   UNL     1     -44.756  60.549 -53.793  1.00  0.00     0.280 HD
HETATM    8  C   UNL     1     -42.800  61.047 -54.261  1.00  0.00     0.236 C 
HETATM    9  C   UNL     1     -42.021  60.096 -55.164  1.00  0.00     0.040 C 
HETATM   10  C   UNL     1     -43.968  59.439 -56.661  1.00  0.00     0.014 C 
HETATM   11  C   UNL     1     -44.851  58.314 -57.209  1.00  0.00     0.029 C 
HETATM   12  C   UNL     1     -44.049  57.083 -57.618  1.00  0.00     0.235 C 
ENDROOT
BRANCH   1  13
HETATM   13  C   UNL     1     -42.542  55.295 -56.704  1.00  0.00     0.273 C 
BRANCH  13  14
HETATM   14  C   UNL     1     -42.128  54.609 -55.425  1.00  0.00    -0.032 A 
HETATM   15  C   UNL     1     -42.997  54.571 -54.319  1.00  0.00     0.012 A 
HETATM   16  C   UNL     1     -42.574  54.015 -53.110  1.00  0.00     0.043 A 
HETATM   17  C   UNL     1     -41.294  53.484 -53.006  1.00  0.00     0.116 A 
HETATM   18  C   UNL     1     -40.432  53.487 -54.094  1.00  0.00     0.043 A 
HETATM   19  F   UNL     1     -40.886  52.968 -51.842  1.00  0.00    -0.206 F 
HETATM   20  C   UNL     1     -40.846  54.048 -55.305  1.00  0.00     0.012 A 
ENDBRANCH  13  14
ENDBRANCH   1  13
BRANCH   6  21
HETATM   21  C   UNL     1     -43.732  60.191 -52.059  1.00  0.00     0.280 C 
BRANCH  21  22
HETATM   22  C   UNL     1     -42.695  59.248 -51.541  1.00  0.00     0.009 A 
HETATM   23  S   UNL     1     -43.153  57.683 -50.999  1.00  0.00    -0.084 SA
HETATM   24  C   UNL     1     -41.557  57.287 -50.554  1.00  0.00     0.058 A 
HETATM   25  C   UNL     1     -40.677  58.304 -50.850  1.00  0.00     0.029 A 
HETATM   26  C   UNL     1     -41.331  59.436 -51.424  1.00  0.00     0.018 A 
BRANCH  24  27
HETATM   27  C   UNL     1     -41.203  56.047 -49.944  1.00  0.00    -0.057 C 
BRANCH  27  28
HETATM   28  C   UNL     1     -40.941  54.996 -49.425  1.00  0.00    -0.075 C 
BRANCH  28  29
HETATM   29  C   UNL     1     -40.610  53.736 -48.762  1.00  0.00     0.258 C 
BRANCH  29  30
HETATM   30  O   UNL     1     -40.611  53.938 -47.357  1.00  0.00    -0.389 OA
HETATM   31  H   UNL     1     -41.182  53.249 -46.976  1.00  0.00     0.210 HD
ENDBRANCH  29  30
ENDBRANCH  28  29
ENDBRANCH  27  28
ENDBRANCH  24  27
ENDBRANCH  21  22
ENDBRANCH   6  21
TORSDOF 8
ENDMDL
MODEL 5
REMARK VINA RESULT:      -7.1     17.022     19.809
REMARK  8 active torsions:
REMARK  status: ('A' for Active; 'I' for Inactive)
REMARK    1  A    between atoms: C_2  and  C_3 
REMARK    2  A    between atoms: C_3  and  N_4 
REMARK    3  A    between atoms: N_9  and  C_11 
REMARK    4  A    between atoms: C_11  and  C_12 
REMARK    5  A    between atoms: C_14  and  C_15 
REMARK    6  A    between atoms: C_15  and  C_16 
REMARK    7  A    between atoms: C_16  and  C_17 
REMARK    8  A    between atoms: C_17  and  O_18 
ROOT
HETATM    1  N   UNL     1     -37.080  39.515 -59.330  1.00  0.00    -0.066 N 
HETATM    2  H   UNL     1     -37.922  39.412 -58.752  1.00  0.00     0.280 HD
HETATM    3  C   UNL     1     -35.831  39.458 -58.475  1.00  0.00     0.246 C 
HETATM    4  C   UNL     1     -35.848  40.555 -57.393  1.00  0.00     0.009 C 
HETATM    5  C   UNL     1     -36.853  40.232 -56.277  1.00  0.00     0.246 C 
HETATM    6  N   UNL     1     -36.339  40.948 -55.049  1.00  0.00    -0.066 N 
HETATM    7  H   UNL     1     -36.828  41.851 -54.964  1.00  0.00     0.280 HD
HETATM    8  C   UNL     1     -34.870  41.242 -55.267  1.00  0.00     0.236 C 
HETATM    9  C   UNL     1     -34.537  40.552 -56.586  1.00  0.00     0.040 C 
HETATM   10  C   UNL     1     -36.090  41.933 -58.050  1.00  0.00     0.014 C 
HETATM   11  C   UNL     1     -37.274  41.946 -59.021  1.00  0.00     0.029 C 
HETATM   12  C   UNL     1     -37.196  40.832 -60.060  1.00  0.00     0.235 C 
ENDROOT
BRANCH   1  13
HETATM   13  C   UNL     1     -37.178  38.333 -60.301  1.00  0.00     0.273 C 
BRANCH  13  14
HETATM   14  C   UNL     1     -38.558  38.222 -60.900  1.00  0.00    -0.032 A 
HETATM   15  C   UNL     1     -39.697  38.187 -60.076  1.00  0.00     0.012 A 
HETATM   16  C   UNL     1     -40.964  37.994 -60.631  1.00  0.00     0.043 A 
HETATM   17  C   UNL     1     -41.098  37.851 -62.007  1.00  0.00     0.116 A 
HETATM   18  C   UNL     1     -39.989  37.910 -62.840  1.00  0.00     0.043 A 
HETATM   19  F   UNL     1     -42.310  37.648 -62.533  1.00  0.00    -0.206 F 
HETATM   20  C   UNL     1     -38.719  38.097 -62.291  1.00  0.00     0.012 A 
ENDBRANCH  13  14
ENDBRANCH   1  13
BRANCH   6  21
HETATM   21  C   UNL     1     -36.625  40.227 -53.738  1.00  0.00     0.280 C 
BRANCH  21  22
HETATM   22  C   UNL     1     -35.659  40.609 -52.663  1.00  0.00     0.009 A 
HETATM   23  S   UNL     1     -34.721  39.399 -51.883  1.00  0.00    -0.084 SA
HETATM   24  C   UNL     1     -33.984  40.532 -50.845  1.00  0.00     0.058 A 
HETATM   25  C   UNL     1     -34.405  41.816 -51.110  1.00  0.00     0.029 A 
HETATM   26  C   UNL     1     -35.369  41.864 -52.162  1.00  0.00     0.018 A 
BRANCH  24  27
HETATM   27  C   UNL     1     -33.054  40.166 -49.828  1.00  0.00    -0.057 C 
BRANCH  27  28
HETATM   28  C   UNL     1     -32.283  39.824 -48.973  1.00  0.00    -0.075 C 
BRANCH  28  29
HETATM   29  C   UNL     1     -31.372  39.414 -47.906  1.00  0.00     0.258 C 
BRANCH  29  30
HETATM   30  O   UNL     1     -30.042  39.736 -48.282  1.00  0.00    -0.389 OA
HETATM   31  H   UNL     1     -29.781  39.095 -48.964  1.00  0.00     0.210 HD
ENDBRANCH  29  30
ENDBRANCH  28  29
ENDBRANCH  27  28
ENDBRANCH  24  27
ENDBRANCH  21  22
ENDBRANCH   6  21
TORSDOF 8
ENDMDL
MODEL 6
REMARK VINA RESULT:      -6.8     16.099     18.985
REMARK  8 active torsions:
REMARK  status: ('A' for Active; 'I' for Inactive)
REMARK    1  A    between atoms: C_2  and  C_3 
REMARK    2  A    between atoms: C_3  and  N_4 
REMARK    3  A    between atoms: N_9  and  C_11 
REMARK    4  A    between atoms: C_11  and  C_12 
REMARK    5  A    between atoms: C_14  and  C_15 
REMARK    6  A    between atoms: C_15  and  C_16 
REMARK    7  A    between atoms: C_16  and  C_17 
REMARK    8  A    between atoms: C_17  and  O_18 
ROOT
HETATM    1  N   UNL     1     -33.679  39.015 -56.505  1.00  0.00    -0.066 N 
HETATM    2  H   UNL     1     -33.950  39.995 -56.365  1.00  0.00     0.280 HD
HETATM    3  C   UNL     1     -33.565  38.294 -55.178  1.00  0.00     0.246 C 
HETATM    4  C   UNL     1     -32.541  38.983 -54.257  1.00  0.00     0.009 C 
HETATM    5  C   UNL     1     -33.083  40.309 -53.703  1.00  0.00     0.246 C 
HETATM    6  N   UNL     1     -32.351  40.534 -52.399  1.00  0.00    -0.066 N 
HETATM    7  H   UNL     1     -31.548  41.156 -52.573  1.00  0.00     0.280 HD
HETATM    8  C   UNL     1     -31.803  39.198 -51.942  1.00  0.00     0.236 C 
HETATM    9  C   UNL     1     -32.361  38.196 -52.946  1.00  0.00     0.040 C 
HETATM   10  C   UNL     1     -31.193  39.138 -54.998  1.00  0.00     0.014 C 
HETATM   11  C   UNL     1     -31.333  39.743 -56.398  1.00  0.00     0.029 C 
HETATM   12  C   UNL     1     -32.366  39.016 -57.252  1.00  0.00     0.235 C 
ENDROOT
BRANCH   1  13
HETATM   13  C   UNL     1     -34.811  38.461 -57.376  1.00  0.00     0.273 C 
BRANCH  13  14
HETATM   14  C   UNL     1     -35.629  39.570 -57.992  1.00  0.00    -0.032 A 
HETATM   15  C   UNL     1     -36.347  39.355 -59.183  1.00  0.00     0.012 A 
HETATM   16  C   UNL     1     -37.028  40.409 -59.795  1.00  0.00     0.043 A 
HETATM   17  C   UNL     1     -37.007  41.672 -59.215  1.00  0.00     0.116 A 
HETATM   18  C   UNL     1     -36.328  41.898 -58.026  1.00  0.00     0.043 A 
HETATM   19  F   UNL     1     -37.646  42.683 -59.813  1.00  0.00    -0.206 F 
HETATM   20  C   UNL     1     -35.639  40.850 -57.411  1.00  0.00     0.012 A 
ENDBRANCH  13  14
ENDBRANCH   1  13
BRANCH   6  21
HETATM   21  C   UNL     1     -33.172  41.249 -51.334  1.00  0.00     0.280 C 
BRANCH  21  22
HETATM   22  C   UNL     1     -34.611  40.843 -51.366  1.00  0.00     0.009 A 
HETATM   23  S   UNL     1     -35.708  41.655 -52.408  1.00  0.00    -0.084 SA
HETATM   24  C   UNL     1     -37.031  40.730 -51.862  1.00  0.00     0.058 A 
HETATM   25  C   UNL     1     -36.645  39.787 -50.935  1.00  0.00     0.029 A 
HETATM   26  C   UNL     1     -35.248  39.847 -50.650  1.00  0.00     0.018 A 
BRANCH  24  27
HETATM   27  C   UNL     1     -38.366  40.933 -52.320  1.00  0.00    -0.057 C 
BRANCH  27  28
HETATM   28  C   UNL     1     -39.491  41.136 -52.687  1.00  0.00    -0.075 C 
BRANCH  28  29
HETATM   29  C   UNL     1     -40.848  41.416 -53.152  1.00  0.00     0.258 C 
BRANCH  29  30
HETATM   30  O   UNL     1     -40.800  41.816 -54.513  1.00  0.00    -0.389 OA
HETATM   31  H   UNL     1     -41.474  41.296 -54.982  1.00  0.00     0.210 HD
ENDBRANCH  29  30
ENDBRANCH  28  29
ENDBRANCH  27  28
ENDBRANCH  24  27
ENDBRANCH  21  22
ENDBRANCH   6  21
TORSDOF 8
ENDMDL
MODEL 7
REMARK VINA RESULT:      -6.7      3.377      7.260
REMARK  8 active torsions:
REMARK  status: ('A' for Active; 'I' for Inactive)
REMARK    1  A    between atoms: C_2  and  C_3 
REMARK    2  A    between atoms: C_3  and  N_4 
REMARK    3  A    between atoms: N_9  and  C_11 
REMARK    4  A    between atoms: C_11  and  C_12 
REMARK    5  A    between atoms: C_14  and  C_15 
REMARK    6  A    between atoms: C_15  and  C_16 
REMARK    7  A    between atoms: C_16  and  C_17 
REMARK    8  A    between atoms: C_17  and  O_18 
ROOT
HETATM    1  N   UNL     1     -43.006  58.694 -57.074  1.00  0.00    -0.066 N 
HETATM    2  H   UNL     1     -43.917  58.316 -56.790  1.00  0.00     0.280 HD
HETATM    3  C   UNL     1     -41.909  58.196 -56.157  1.00  0.00     0.246 C 
HETATM    4  C   UNL     1     -42.190  58.583 -54.693  1.00  0.00     0.009 C 
HETATM    5  C   UNL     1     -43.328  57.741 -54.095  1.00  0.00     0.246 C 
HETATM    6  N   UNL     1     -43.078  57.721 -52.604  1.00  0.00    -0.066 N 
HETATM    7  H   UNL     1     -43.649  58.456 -52.163  1.00  0.00     0.280 HD
HETATM    8  C   UNL     1     -41.624  58.073 -52.376  1.00  0.00     0.236 C 
HETATM    9  C   UNL     1     -41.029  58.155 -53.777  1.00  0.00     0.040 C 
HETATM   10  C   UNL     1     -42.442  60.105 -54.592  1.00  0.00     0.014 C 
HETATM   11  C   UNL     1     -43.454  60.624 -55.618  1.00  0.00     0.029 C 
HETATM   12  C   UNL     1     -43.117  60.200 -57.044  1.00  0.00     0.235 C 
ENDROOT
BRANCH   1  13
HETATM   13  C   UNL     1     -42.849  58.179 -58.509  1.00  0.00     0.273 C 
BRANCH  13  14
HETATM   14  C   UNL     1     -44.149  57.637 -59.049  1.00  0.00    -0.032 A 
HETATM   15  C   UNL     1     -45.378  58.038 -58.495  1.00  0.00     0.012 A 
HETATM   16  C   UNL     1     -46.572  57.465 -58.939  1.00  0.00     0.043 A 
HETATM   17  C   UNL     1     -46.543  56.506 -59.944  1.00  0.00     0.116 A 
HETATM   18  C   UNL     1     -45.343  56.117 -60.523  1.00  0.00     0.043 A 
HETATM   19  F   UNL     1     -47.686  55.947 -60.354  1.00  0.00    -0.206 F 
HETATM   20  C   UNL     1     -44.145  56.681 -60.079  1.00  0.00     0.012 A 
ENDBRANCH  13  14
ENDBRANCH   1  13
BRANCH   6  21
HETATM   21  C   UNL     1     -43.506  56.432 -51.915  1.00  0.00     0.280 C 
BRANCH  21  22
HETATM   22  C   UNL     1     -42.463  55.365 -52.018  1.00  0.00     0.009 A 
HETATM   23  S   UNL     1     -42.466  54.291 -53.359  1.00  0.00    -0.084 SA
HETATM   24  C   UNL     1     -41.127  53.422 -52.763  1.00  0.00     0.058 A 
HETATM   25  C   UNL     1     -40.653  53.959 -51.587  1.00  0.00     0.029 A 
HETATM   26  C   UNL     1     -41.420  55.084 -51.158  1.00  0.00     0.018 A 
BRANCH  24  27
HETATM   27  C   UNL     1     -40.589  52.275 -53.417  1.00  0.00    -0.057 C 
BRANCH  27  28
HETATM   28  C   UNL     1     -40.118  51.301 -53.938  1.00  0.00    -0.075 C 
BRANCH  28  29
HETATM   29  C   UNL     1     -39.581  50.101 -54.579  1.00  0.00     0.258 C 
BRANCH  29  30
HETATM   30  O   UNL     1     -39.343  49.113 -53.589  1.00  0.00    -0.389 OA
HETATM   31  H   UNL     1     -40.159  48.591 -53.513  1.00  0.00     0.210 HD
ENDBRANCH  29  30
ENDBRANCH  28  29
ENDBRANCH  27  28
ENDBRANCH  24  27
ENDBRANCH  21  22
ENDBRANCH   6  21
TORSDOF 8
ENDMDL
MODEL 8
REMARK VINA RESULT:      -6.6      3.263      6.075
REMARK  8 active torsions:
REMARK  status: ('A' for Active; 'I' for Inactive)
REMARK    1  A    between atoms: C_2  and  C_3 
REMARK    2  A    between atoms: C_3  and  N_4 
REMARK    3  A    between atoms: N_9  and  C_11 
REMARK    4  A    between atoms: C_11  and  C_12 
REMARK    5  A    between atoms: C_14  and  C_15 
REMARK    6  A    between atoms: C_15  and  C_16 
REMARK    7  A    between atoms: C_16  and  C_17 
REMARK    8  A    between atoms: C_17  and  O_18 
ROOT
HETATM    1  N   UNL     1     -42.196  54.129 -54.505  1.00  0.00    -0.066 N 
HETATM    2  H   UNL     1     -41.534  54.884 -54.718  1.00  0.00     0.280 HD
HETATM    3  C   UNL     1     -42.979  54.440 -53.246  1.00  0.00     0.246 C 
HETATM    4  C   UNL     1     -42.038  54.651 -52.045  1.00  0.00     0.009 C 
HETATM    5  C   UNL     1     -41.296  55.993 -52.139  1.00  0.00     0.246 C 
HETATM    6  N   UNL     1     -40.963  56.373 -50.714  1.00  0.00    -0.066 N 
HETATM    7  H   UNL     1     -39.999  56.073 -50.508  1.00  0.00     0.280 HD
HETATM    8  C   UNL     1     -41.888  55.596 -49.801  1.00  0.00     0.236 C 
HETATM    9  C   UNL     1     -42.840  54.877 -50.750  1.00  0.00     0.040 C 
HETATM   10  C   UNL     1     -41.090  53.439 -51.904  1.00  0.00     0.014 C 
HETATM   11  C   UNL     1     -40.406  53.044 -53.216  1.00  0.00     0.029 C 
HETATM   12  C   UNL     1     -41.394  52.857 -54.362  1.00  0.00     0.235 C 
ENDROOT
BRANCH   1  13
HETATM   13  C   UNL     1     -43.086  54.085 -55.751  1.00  0.00     0.273 C 
BRANCH  13  14
HETATM   14  C   UNL     1     -42.905  55.316 -56.605  1.00  0.00    -0.032 A 
HETATM   15  C   UNL     1     -42.420  56.512 -56.045  1.00  0.00     0.012 A 
HETATM   16  C   UNL     1     -42.339  57.671 -56.820  1.00  0.00     0.043 A 
HETATM   17  C   UNL     1     -42.727  57.636 -58.154  1.00  0.00     0.116 A 
HETATM   18  C   UNL     1     -43.183  56.459 -58.732  1.00  0.00     0.043 A 
HETATM   19  F   UNL     1     -42.666  58.752 -58.887  1.00  0.00    -0.206 F 
HETATM   20  C   UNL     1     -43.272  55.298 -57.962  1.00  0.00     0.012 A 
ENDBRANCH  13  14
ENDBRANCH   1  13
BRANCH   6  21
HETATM   21  C   UNL     1     -40.967  57.873 -50.448  1.00  0.00     0.280 C 
BRANCH  21  22
HETATM   22  C   UNL     1     -41.799  58.618 -51.441  1.00  0.00     0.009 A 
HETATM   23  S   UNL     1     -41.103  59.142 -52.921  1.00  0.00    -0.084 SA
HETATM   24  C   UNL     1     -42.548  59.892 -53.424  1.00  0.00     0.058 A 
HETATM   25  C   UNL     1     -43.560  59.714 -52.507  1.00  0.00     0.029 A 
HETATM   26  C   UNL     1     -43.132  58.975 -51.364  1.00  0.00     0.018 A 
BRANCH  24  27
HETATM   27  C   UNL     1     -42.666  60.617 -54.646  1.00  0.00    -0.057 C 
BRANCH  27  28
HETATM   28  C   UNL     1     -42.731  61.217 -55.684  1.00  0.00    -0.075 C 
BRANCH  28  29
HETATM   29  C   UNL     1     -42.829  61.917 -56.964  1.00  0.00     0.258 C 
BRANCH  29  30
HETATM   30  O   UNL     1     -41.522  62.191 -57.445  1.00  0.00    -0.389 OA
HETATM   31  H   UNL     1     -41.011  62.527 -56.689  1.00  0.00     0.210 HD
ENDBRANCH  29  30
ENDBRANCH  28  29
ENDBRANCH  27  28
ENDBRANCH  24  27
ENDBRANCH  21  22
ENDBRANCH   6  21
TORSDOF 8
ENDMDL
MODEL 9
REMARK VINA RESULT:      -6.6      5.014      8.200
REMARK  8 active torsions:
REMARK  status: ('A' for Active; 'I' for Inactive)
REMARK    1  A    between atoms: C_2  and  C_3 
REMARK    2  A    between atoms: C_3  and  N_4 
REMARK    3  A    between atoms: N_9  and  C_11 
REMARK    4  A    between atoms: C_11  and  C_12 
REMARK    5  A    between atoms: C_14  and  C_15 
REMARK    6  A    between atoms: C_15  and  C_16 
REMARK    7  A    between atoms: C_16  and  C_17 
REMARK    8  A    between atoms: C_17  and  O_18 
ROOT
HETATM    1  N   UNL     1     -43.883  61.966 -50.564  1.00  0.00    -0.066 N 
HETATM    2  H   UNL     1     -42.866  61.855 -50.655  1.00  0.00     0.280 HD
HETATM    3  C   UNL     1     -44.547  60.630 -50.300  1.00  0.00     0.246 C 
HETATM    4  C   UNL     1     -44.239  59.624 -51.425  1.00  0.00     0.009 C 
HETATM    5  C   UNL     1     -42.787  59.127 -51.356  1.00  0.00     0.246 C 
HETATM    6  N   UNL     1     -42.793  57.764 -52.009  1.00  0.00    -0.066 N 
HETATM    7  H   UNL     1     -42.508  57.868 -52.994  1.00  0.00     0.280 HD
HETATM    8  C   UNL     1     -44.219  57.254 -51.998  1.00  0.00     0.236 C 
HETATM    9  C   UNL     1     -44.989  58.299 -51.199  1.00  0.00     0.040 C 
HETATM   10  C   UNL     1     -44.607  60.242 -52.794  1.00  0.00     0.014 C 
HETATM   11  C   UNL     1     -44.044  61.651 -52.997  1.00  0.00     0.029 C 
HETATM   12  C   UNL     1     -44.382  62.592 -51.845  1.00  0.00     0.235 C 
ENDROOT
BRANCH   1  13
HETATM   13  C   UNL     1     -44.023  62.933 -49.384  1.00  0.00     0.273 C 
BRANCH  13  14
HETATM   14  C   UNL     1     -44.993  62.412 -48.352  1.00  0.00    -0.032 A 
HETATM   15  C   UNL     1     -44.605  61.408 -47.446  1.00  0.00     0.012 A 
HETATM   16  C   UNL     1     -45.532  60.867 -46.554  1.00  0.00     0.043 A 
HETATM   17  C   UNL     1     -46.841  61.335 -46.553  1.00  0.00     0.116 A 
HETATM   18  C   UNL     1     -47.237  62.343 -47.421  1.00  0.00     0.043 A 
HETATM   19  F   UNL     1     -47.731  60.802 -45.710  1.00  0.00    -0.206 F 
HETATM   20  C   UNL     1     -46.316  62.885 -48.320  1.00  0.00     0.012 A 
ENDBRANCH  13  14
ENDBRANCH   1  13
BRANCH   6  21
HETATM   21  C   UNL     1     -41.792  56.781 -51.418  1.00  0.00     0.280 C 
BRANCH  21  22
HETATM   22  C   UNL     1     -41.358  55.753 -52.412  1.00  0.00     0.009 A 
HETATM   23  S   UNL     1     -41.162  54.117 -51.925  1.00  0.00    -0.084 SA
HETATM   24  C   UNL     1     -40.643  53.637 -53.476  1.00  0.00     0.058 A 
HETATM   25  C   UNL     1     -40.658  54.688 -54.366  1.00  0.00     0.029 A 
HETATM   26  C   UNL     1     -41.075  55.909 -53.756  1.00  0.00     0.018 A 
BRANCH  24  27
HETATM   27  C   UNL     1     -40.240  52.305 -53.785  1.00  0.00    -0.057 C 
BRANCH  27  28
HETATM   28  C   UNL     1     -39.914  51.172 -54.013  1.00  0.00    -0.075 C 
BRANCH  28  29
HETATM   29  C   UNL     1     -39.514  49.786 -54.251  1.00  0.00     0.258 C 
BRANCH  29  30
HETATM   30  O   UNL     1     -39.492  49.089 -53.015  1.00  0.00    -0.389 OA
HETATM   31  H   UNL     1     -38.871  49.565 -52.437  1.00  0.00     0.210 HD
ENDBRANCH  29  30
ENDBRANCH  28  29
ENDBRANCH  27  28
ENDBRANCH  24  27
ENDBRANCH  21  22
ENDBRANCH   6  21
TORSDOF 8
ENDMDL
MODEL 10
REMARK VINA RESULT:      -6.6      2.209      2.608
REMARK  8 active torsions:
REMARK  status: ('A' for Active; 'I' for Inactive)
REMARK    1  A    between atoms: C_2  and  C_3 
REMARK    2  A    between atoms: C_3  and  N_4 
REMARK    3  A    between atoms: N_9  and  C_11 
REMARK    4  A    between atoms: C_11  and  C_12 
REMARK    5  A    between atoms: C_14  and  C_15 
REMARK    6  A    between atoms: C_15  and  C_16 
REMARK    7  A    between atoms: C_16  and  C_17 
REMARK    8  A    between atoms: C_17  and  O_18 
ROOT
HETATM    1  N   UNL     1     -42.512  57.391 -54.197  1.00  0.00    -0.066 N 
HETATM    2  H   UNL     1     -41.814  57.328 -54.947  1.00  0.00     0.280 HD
HETATM    3  C   UNL     1     -43.550  58.446 -54.517  1.00  0.00     0.246 C 
HETATM    4  C   UNL     1     -42.895  59.825 -54.724  1.00  0.00     0.009 C 
HETATM    5  C   UNL     1     -42.140  59.896 -56.060  1.00  0.00     0.246 C 
HETATM    6  N   UNL     1     -42.126  61.359 -56.441  1.00  0.00    -0.066 N 
HETATM    7  H   UNL     1     -41.233  61.772 -56.135  1.00  0.00     0.280 HD
HETATM    8  C   UNL     1     -43.235  62.046 -55.673  1.00  0.00     0.236 C 
HETATM    9  C   UNL     1     -43.960  60.911 -54.958  1.00  0.00     0.040 C 
HETATM   10  C   UNL     1     -42.010  60.172 -53.505  1.00  0.00     0.014 C 
HETATM   11  C   UNL     1     -41.057  59.043 -53.103  1.00  0.00     0.029 C 
HETATM   12  C   UNL     1     -41.770  57.707 -52.920  1.00  0.00     0.235 C 
ENDROOT
BRANCH   1  13
HETATM   13  C   UNL     1     -43.106  55.979 -54.157  1.00  0.00     0.273 C 
BRANCH  13  14
HETATM   14  C   UNL     1     -42.029  54.926 -54.075  1.00  0.00    -0.032 A 
HETATM   15  C   UNL     1     -41.101  54.766 -55.120  1.00  0.00     0.012 A 
HETATM   16  C   UNL     1     -40.163  53.733 -55.079  1.00  0.00     0.043 A 
HETATM   17  C   UNL     1     -40.139  52.869 -53.990  1.00  0.00     0.116 A 
HETATM   18  C   UNL     1     -41.028  53.026 -52.936  1.00  0.00     0.043 A 
HETATM   19  F   UNL     1     -39.251  51.869 -53.962  1.00  0.00    -0.206 F 
HETATM   20  C   UNL     1     -41.972  54.054 -52.974  1.00  0.00     0.012 A 
ENDBRANCH  13  14
ENDBRANCH   1  13
BRANCH   6  21
HETATM   21  C   UNL     1     -42.178  61.616 -57.941  1.00  0.00     0.280 C 
BRANCH  21  22
HETATM   22  C   UNL     1     -42.724  60.446 -58.695  1.00  0.00     0.009 A 
HETATM   23  S   UNL     1     -44.421  60.195 -58.775  1.00  0.00    -0.084 SA
HETATM   24  C   UNL     1     -44.243  58.760 -59.677  1.00  0.00     0.058 A 
HETATM   25  C   UNL     1     -42.921  58.493 -59.954  1.00  0.00     0.029 A 
HETATM   26  C   UNL     1     -42.042  59.468 -59.392  1.00  0.00     0.018 A 
BRANCH  24  27
HETATM   27  C   UNL     1     -45.346  57.949 -60.076  1.00  0.00    -0.057 C 
BRANCH  27  28
HETATM   28  C   UNL     1     -46.252  57.238 -60.415  1.00  0.00    -0.075 C 
BRANCH  28  29
HETATM   29  C   UNL     1     -47.377  56.386 -60.799  1.00  0.00     0.258 C 
BRANCH  29  30
HETATM   30  O   UNL     1     -47.353  56.191 -62.204  1.00  0.00    -0.389 OA
HETATM   31  H   UNL     1     -46.936  55.326 -62.359  1.00  0.00     0.210 HD
ENDBRANCH  29  30
ENDBRANCH  28  29
ENDBRANCH  27  28
ENDBRANCH  24  27
ENDBRANCH  21  22
ENDBRANCH   6  21
TORSDOF 8
ENDMDL
