MODEL 1
REMARK VINA RESULT:      -9.3      0.000      0.000
REMARK  2 active torsions:
REMARK  status: ('A' for Active; 'I' for Inactive)
REMARK    1  A    between atoms: N_4  and  C_5 
REMARK    2  A    between atoms: C_15  and  C_16 
REMARK       I    between atoms: C_16  and  N_17 
ROOT
HETATM    1  C   UNL     1     -42.872  55.836 -56.602  1.00  0.00     0.073 C 
HETATM    2  C   UNL     1     -42.460  55.274 -55.292  1.00  0.00     0.069 C 
HETATM    3  N   UNL     1     -41.538  54.301 -55.229  1.00  0.00    -0.170 NA
HETATM    4  N   UNL     1     -41.448  53.979 -53.902  1.00  0.00    -0.216 N 
HETATM    5  C   UNL     1     -42.136  54.910 -53.143  1.00  0.00     0.145 C 
HETATM    6  C   UNL     1     -42.875  55.680 -54.012  1.00  0.00     0.087 C 
HETATM    7  N   UNL     1     -42.125  55.124 -51.807  1.00  0.00    -0.349 N 
HETATM    8  C   UNL     1     -42.868  56.185 -51.318  1.00  0.00     0.111 C 
HETATM    9  C   UNL     1     -43.664  56.982 -52.069  1.00  0.00     0.099 C 
HETATM   10  C   UNL     1     -43.797  56.693 -53.532  1.00  0.00     0.205 C 
HETATM   11  O   UNL     1     -44.607  57.247 -54.266  1.00  0.00    -0.286 OA
HETATM   12  H   UNL     1     -41.448  54.705 -51.171  1.00  0.00     0.167 HD
ENDROOT
BRANCH   9  13
HETATM   13  C   UNL     1     -44.411  58.028 -51.325  1.00  0.00     0.264 C 
HETATM   14  N   UNL     1     -43.929  59.326 -51.311  1.00  0.00    -0.309 N 
HETATM   15  C   UNL     1     -42.765  59.913 -52.040  1.00  0.00     0.093 C 
HETATM   16  C   UNL     1     -44.460  60.355 -50.488  1.00  0.00     0.044 A 
HETATM   17  C   UNL     1     -42.911  61.446 -51.931  1.00  0.00     0.066 C 
HETATM   18  C   UNL     1     -41.431  59.450 -51.450  1.00  0.00     0.033 C 
HETATM   19  C   UNL     1     -43.857  61.578 -50.784  1.00  0.00    -0.029 A 
HETATM   20  C   UNL     1     -44.195  62.742 -50.107  1.00  0.00     0.009 A 
HETATM   21  C   UNL     1     -45.146  62.662 -49.090  1.00  0.00     0.001 A 
HETATM   22  C   UNL     1     -45.750  61.437 -48.780  1.00  0.00     0.002 A 
HETATM   23  C   UNL     1     -45.413  60.275 -49.484  1.00  0.00     0.030 A 
HETATM   24  O   UNL     1     -45.396  57.650 -50.684  1.00  0.00    -0.267 OA
ENDBRANCH   9  13
BRANCH   4  25
HETATM   25  C   UNL     1     -40.755  52.804 -53.494  1.00  0.00     0.060 A 
HETATM   26  C   UNL     1     -40.662  51.720 -54.381  1.00  0.00     0.031 A 
HETATM   27  C   UNL     1     -40.013  50.546 -53.994  1.00  0.00     0.002 A 
HETATM   28  C   UNL     1     -39.469  50.438 -52.716  1.00  0.00     0.000 A 
HETATM   29  C   UNL     1     -39.577  51.501 -51.821  1.00  0.00     0.002 A 
HETATM   30  C   UNL     1     -40.220  52.681 -52.205  1.00  0.00     0.031 A 
ENDBRANCH   4  25
TORSDOF 2
ENDMDL
MODEL 2
REMARK VINA RESULT:      -9.2      2.017      3.432
REMARK  2 active torsions:
REMARK  status: ('A' for Active; 'I' for Inactive)
REMARK    1  A    between atoms: N_4  and  C_5 
REMARK    2  A    between atoms: C_15  and  C_16 
REMARK       I    between atoms: C_16  and  N_17 
ROOT
HETATM    1  C   UNL     1     -40.136  54.088 -48.093  1.00  0.00     0.073 C 
HETATM    2  C   UNL     1     -40.459  53.792 -49.510  1.00  0.00     0.069 C 
HETATM    3  N   UNL     1     -40.178  52.590 -50.035  1.00  0.00    -0.170 NA
HETATM    4  N   UNL     1     -40.538  52.681 -51.352  1.00  0.00    -0.216 N 
HETATM    5  C   UNL     1     -41.248  53.849 -51.566  1.00  0.00     0.145 C 
HETATM    6  C   UNL     1     -41.118  54.622 -50.435  1.00  0.00     0.087 C 
HETATM    7  N   UNL     1     -41.987  54.237 -52.632  1.00  0.00    -0.349 N 
HETATM    8  C   UNL     1     -42.657  55.446 -52.547  1.00  0.00     0.111 C 
HETATM    9  C   UNL     1     -42.569  56.306 -51.506  1.00  0.00     0.099 C 
HETATM   10  C   UNL     1     -41.661  55.966 -50.365  1.00  0.00     0.205 C 
HETATM   11  O   UNL     1     -41.388  56.741 -49.456  1.00  0.00    -0.286 OA
HETATM   12  H   UNL     1     -42.259  53.613 -53.391  1.00  0.00     0.167 HD
ENDROOT
BRANCH   9  13
HETATM   13  C   UNL     1     -43.334  57.570 -51.651  1.00  0.00     0.264 C 
HETATM   14  N   UNL     1     -42.815  58.593 -52.426  1.00  0.00    -0.309 N 
HETATM   15  C   UNL     1     -41.585  58.609 -53.273  1.00  0.00     0.093 C 
HETATM   16  C   UNL     1     -43.371  59.899 -52.483  1.00  0.00     0.044 A 
HETATM   17  C   UNL     1     -41.691  59.861 -54.171  1.00  0.00     0.066 C 
HETATM   18  C   UNL     1     -40.311  58.653 -52.426  1.00  0.00     0.033 C 
HETATM   19  C   UNL     1     -42.712  60.670 -53.442  1.00  0.00    -0.029 A 
HETATM   20  C   UNL     1     -43.061  61.992 -53.683  1.00  0.00     0.009 A 
HETATM   21  C   UNL     1     -44.083  62.555 -52.919  1.00  0.00     0.001 A 
HETATM   22  C   UNL     1     -44.745  61.791 -51.949  1.00  0.00     0.002 A 
HETATM   23  C   UNL     1     -44.395  60.454 -51.731  1.00  0.00     0.030 A 
HETATM   24  O   UNL     1     -44.373  57.664 -50.990  1.00  0.00    -0.267 OA
ENDBRANCH   9  13
BRANCH   4  25
HETATM   25  C   UNL     1     -40.139  51.674 -52.276  1.00  0.00     0.060 A 
HETATM   26  C   UNL     1     -40.197  51.946 -53.652  1.00  0.00     0.031 A 
HETATM   27  C   UNL     1     -39.839  50.965 -54.579  1.00  0.00     0.002 A 
HETATM   28  C   UNL     1     -39.440  49.704 -54.143  1.00  0.00     0.000 A 
HETATM   29  C   UNL     1     -39.401  49.419 -52.779  1.00  0.00     0.002 A 
HETATM   30  C   UNL     1     -39.752  50.398 -51.846  1.00  0.00     0.031 A 
ENDBRANCH   4  25
TORSDOF 2
ENDMDL
MODEL 3
REMARK VINA RESULT:      -9.2      2.014      8.486
REMARK  2 active torsions:
REMARK  status: ('A' for Active; 'I' for Inactive)
REMARK    1  A    between atoms: N_4  and  C_5 
REMARK    2  A    between atoms: C_15  and  C_16 
REMARK       I    between atoms: C_16  and  N_17 
ROOT
HETATM    1  C   UNL     1     -41.791  59.545 -54.991  1.00  0.00     0.073 C 
HETATM    2  C   UNL     1     -42.377  59.335 -53.645  1.00  0.00     0.069 C 
HETATM    3  N   UNL     1     -43.337  60.153 -53.186  1.00  0.00    -0.170 NA
HETATM    4  N   UNL     1     -43.597  59.722 -51.914  1.00  0.00    -0.216 N 
HETATM    5  C   UNL     1     -42.968  58.509 -51.690  1.00  0.00     0.145 C 
HETATM    6  C   UNL     1     -42.102  58.297 -52.737  1.00  0.00     0.087 C 
HETATM    7  N   UNL     1     -43.130  57.616 -50.685  1.00  0.00    -0.349 N 
HETATM    8  C   UNL     1     -42.410  56.435 -50.750  1.00  0.00     0.111 C 
HETATM    9  C   UNL     1     -41.500  56.137 -51.707  1.00  0.00     0.099 C 
HETATM   10  C   UNL     1     -41.205  57.156 -52.763  1.00  0.00     0.205 C 
HETATM   11  O   UNL     1     -40.292  57.053 -53.574  1.00  0.00    -0.286 OA
HETATM   12  H   UNL     1     -43.894  57.653 -50.011  1.00  0.00     0.167 HD
ENDROOT
BRANCH   9  13
HETATM   13  C   UNL     1     -40.808  54.833 -51.550  1.00  0.00     0.264 C 
HETATM   14  N   UNL     1     -40.796  53.938 -52.606  1.00  0.00    -0.309 N 
HETATM   15  C   UNL     1     -41.310  54.109 -53.998  1.00  0.00     0.093 C 
HETATM   16  C   UNL     1     -40.326  52.602 -52.503  1.00  0.00     0.044 A 
HETATM   17  C   UNL     1     -40.720  52.946 -54.826  1.00  0.00     0.066 C 
HETATM   18  C   UNL     1     -42.840  54.090 -54.047  1.00  0.00     0.033 C 
HETATM   19  C   UNL     1     -40.319  51.987 -53.756  1.00  0.00    -0.029 A 
HETATM   20  C   UNL     1     -39.911  50.670 -53.921  1.00  0.00     0.009 A 
HETATM   21  C   UNL     1     -39.526  49.951 -52.790  1.00  0.00     0.001 A 
HETATM   22  C   UNL     1     -39.536  50.558 -51.528  1.00  0.00     0.002 A 
HETATM   23  C   UNL     1     -39.932  51.892 -51.379  1.00  0.00     0.030 A 
HETATM   24  O   UNL     1     -40.343  54.588 -50.432  1.00  0.00    -0.267 OA
ENDBRANCH   9  13
BRANCH   4  25
HETATM   25  C   UNL     1     -44.378  60.520 -51.031  1.00  0.00     0.060 A 
HETATM   26  C   UNL     1     -45.692  60.856 -51.392  1.00  0.00     0.031 A 
HETATM   27  C   UNL     1     -46.468  61.662 -50.557  1.00  0.00     0.002 A 
HETATM   28  C   UNL     1     -45.936  62.152 -49.368  1.00  0.00     0.000 A 
HETATM   29  C   UNL     1     -44.624  61.842 -49.012  1.00  0.00     0.002 A 
HETATM   30  C   UNL     1     -43.843  61.031 -49.841  1.00  0.00     0.031 A 
ENDBRANCH   4  25
TORSDOF 2
ENDMDL
MODEL 4
REMARK VINA RESULT:      -9.0      2.140      3.735
REMARK  2 active torsions:
REMARK  status: ('A' for Active; 'I' for Inactive)
REMARK    1  A    between atoms: N_4  and  C_5 
REMARK    2  A    between atoms: C_15  and  C_16 
REMARK       I    between atoms: C_16  and  N_17 
ROOT
HETATM    1  C   UNL     1     -40.877  54.665 -48.483  1.00  0.00     0.073 C 
HETATM    2  C   UNL     1     -40.802  54.374 -49.936  1.00  0.00     0.069 C 
HETATM    3  N   UNL     1     -40.738  53.106 -50.373  1.00  0.00    -0.170 NA
HETATM    4  N   UNL     1     -40.613  53.202 -51.732  1.00  0.00    -0.216 N 
HETATM    5  C   UNL     1     -40.837  54.508 -52.135  1.00  0.00     0.145 C 
HETATM    6  C   UNL     1     -40.853  55.289 -51.002  1.00  0.00     0.087 C 
HETATM    7  N   UNL     1     -41.046  55.014 -53.372  1.00  0.00    -0.349 N 
HETATM    8  C   UNL     1     -41.317  56.368 -53.478  1.00  0.00     0.111 C 
HETATM    9  C   UNL     1     -41.317  57.239 -52.442  1.00  0.00     0.099 C 
HETATM   10  C   UNL     1     -40.965  56.734 -51.076  1.00  0.00     0.205 C 
HETATM   11  O   UNL     1     -40.780  57.460 -50.107  1.00  0.00    -0.286 OA
HETATM   12  H   UNL     1     -41.233  54.442 -54.195  1.00  0.00     0.167 HD
ENDROOT
BRANCH   9  13
HETATM   13  C   UNL     1     -41.583  58.657 -52.794  1.00  0.00     0.264 C 
HETATM   14  N   UNL     1     -42.756  59.254 -52.367  1.00  0.00    -0.309 N 
HETATM   15  C   UNL     1     -43.824  58.713 -51.474  1.00  0.00     0.093 C 
HETATM   16  C   UNL     1     -43.191  60.536 -52.798  1.00  0.00     0.044 A 
HETATM   17  C   UNL     1     -44.698  59.918 -51.060  1.00  0.00     0.066 C 
HETATM   18  C   UNL     1     -44.667  57.645 -52.175  1.00  0.00     0.033 C 
HETATM   19  C   UNL     1     -44.337  60.924 -52.102  1.00  0.00    -0.029 A 
HETATM   20  C   UNL     1     -44.967  62.136 -52.349  1.00  0.00     0.009 A 
HETATM   21  C   UNL     1     -44.441  62.963 -53.341  1.00  0.00     0.001 A 
HETATM   22  C   UNL     1     -43.295  62.579 -54.050  1.00  0.00     0.002 A 
HETATM   23  C   UNL     1     -42.661  61.362 -53.777  1.00  0.00     0.030 A 
HETATM   24  O   UNL     1     -40.759  59.204 -53.533  1.00  0.00    -0.267 OA
ENDBRANCH   9  13
BRANCH   4  25
HETATM   25  C   UNL     1     -40.257  52.060 -52.503  1.00  0.00     0.060 A 
HETATM   26  C   UNL     1     -39.844  50.891 -51.845  1.00  0.00     0.031 A 
HETATM   27  C   UNL     1     -39.462  49.766 -52.580  1.00  0.00     0.002 A 
HETATM   28  C   UNL     1     -39.471  49.805 -53.971  1.00  0.00     0.000 A 
HETATM   29  C   UNL     1     -39.858  50.970 -54.633  1.00  0.00     0.002 A 
HETATM   30  C   UNL     1     -40.247  52.097 -53.904  1.00  0.00     0.031 A 
ENDBRANCH   4  25
TORSDOF 2
ENDMDL
MODEL 5
REMARK VINA RESULT:      -8.9      1.741      8.623
REMARK  2 active torsions:
REMARK  status: ('A' for Active; 'I' for Inactive)
REMARK    1  A    between atoms: N_4  and  C_5 
REMARK    2  A    between atoms: C_15  and  C_16 
REMARK       I    between atoms: C_16  and  N_17 
ROOT
HETATM    1  C   UNL     1     -43.231  62.439 -52.876  1.00  0.00     0.073 C 
HETATM    2  C   UNL     1     -43.906  61.650 -51.817  1.00  0.00     0.069 C 
HETATM    3  N   UNL     1     -44.691  62.255 -50.913  1.00  0.00    -0.170 NA
HETATM    4  N   UNL     1     -45.090  61.261 -50.062  1.00  0.00    -0.216 N 
HETATM    5  C   UNL     1     -44.740  60.027 -50.582  1.00  0.00     0.145 C 
HETATM    6  C   UNL     1     -43.893  60.254 -51.642  1.00  0.00     0.087 C 
HETATM    7  N   UNL     1     -45.128  58.784 -50.212  1.00  0.00    -0.349 N 
HETATM    8  C   UNL     1     -44.670  57.715 -50.964  1.00  0.00     0.111 C 
HETATM    9  C   UNL     1     -43.802  57.814 -51.998  1.00  0.00     0.099 C 
HETATM   10  C   UNL     1     -43.255  59.162 -52.354  1.00  0.00     0.205 C 
HETATM   11  O   UNL     1     -42.350  59.340 -53.160  1.00  0.00    -0.286 OA
HETATM   12  H   UNL     1     -45.896  58.598 -49.568  1.00  0.00     0.167 HD
ENDROOT
BRANCH   9  13
HETATM   13  C   UNL     1     -43.406  56.529 -52.629  1.00  0.00     0.264 C 
HETATM   14  N   UNL     1     -42.406  55.768 -52.049  1.00  0.00    -0.309 N 
HETATM   15  C   UNL     1     -41.677  55.982 -50.764  1.00  0.00     0.093 C 
HETATM   16  C   UNL     1     -41.829  54.625 -52.664  1.00  0.00     0.044 A 
HETATM   17  C   UNL     1     -40.943  54.659 -50.453  1.00  0.00     0.066 C 
HETATM   18  C   UNL     1     -40.686  57.145 -50.857  1.00  0.00     0.033 C 
HETATM   19  C   UNL     1     -40.942  53.994 -51.789  1.00  0.00    -0.029 A 
HETATM   20  C   UNL     1     -40.238  52.857 -52.158  1.00  0.00     0.009 A 
HETATM   21  C   UNL     1     -40.414  52.360 -53.449  1.00  0.00     0.001 A 
HETATM   22  C   UNL     1     -41.296  52.991 -54.336  1.00  0.00     0.002 A 
HETATM   23  C   UNL     1     -42.013  54.126 -53.944  1.00  0.00     0.030 A 
HETATM   24  O   UNL     1     -43.951  56.253 -53.702  1.00  0.00    -0.267 OA
ENDBRANCH   9  13
BRANCH   4  25
HETATM   25  C   UNL     1     -45.724  61.583 -48.828  1.00  0.00     0.060 A 
HETATM   26  C   UNL     1     -46.748  62.544 -48.815  1.00  0.00     0.031 A 
HETATM   27  C   UNL     1     -47.365  62.898 -47.613  1.00  0.00     0.002 A 
HETATM   28  C   UNL     1     -46.955  62.314 -46.418  1.00  0.00     0.000 A 
HETATM   29  C   UNL     1     -45.923  61.376 -46.420  1.00  0.00     0.002 A 
HETATM   30  C   UNL     1     -45.305  61.012 -47.619  1.00  0.00     0.031 A 
ENDBRANCH   4  25
TORSDOF 2
ENDMDL
MODEL 6
REMARK VINA RESULT:      -8.7      2.255      8.493
REMARK  2 active torsions:
REMARK  status: ('A' for Active; 'I' for Inactive)
REMARK    1  A    between atoms: N_4  and  C_5 
REMARK    2  A    between atoms: C_15  and  C_16 
REMARK       I    between atoms: C_16  and  N_17 
ROOT
HETATM    1  C   UNL     1     -45.830  58.947 -50.588  1.00  0.00     0.073 C 
HETATM    2  C   UNL     1     -44.771  59.281 -51.570  1.00  0.00     0.069 C 
HETATM    3  N   UNL     1     -44.723  60.499 -52.131  1.00  0.00    -0.170 NA
HETATM    4  N   UNL     1     -43.684  60.444 -53.020  1.00  0.00    -0.216 N 
HETATM    5  C   UNL     1     -42.962  59.279 -52.828  1.00  0.00     0.145 C 
HETATM    6  C   UNL     1     -43.696  58.475 -51.986  1.00  0.00     0.087 C 
HETATM    7  N   UNL     1     -41.747  58.918 -53.304  1.00  0.00    -0.349 N 
HETATM    8  C   UNL     1     -41.226  57.704 -52.889  1.00  0.00     0.111 C 
HETATM    9  C   UNL     1     -41.874  56.816 -52.100  1.00  0.00     0.099 C 
HETATM   10  C   UNL     1     -43.270  57.127 -51.658  1.00  0.00     0.205 C 
HETATM   11  O   UNL     1     -43.997  56.328 -51.081  1.00  0.00    -0.286 OA
HETATM   12  H   UNL     1     -41.104  59.562 -53.762  1.00  0.00     0.167 HD
ENDROOT
BRANCH   9  13
HETATM   13  C   UNL     1     -41.144  55.552 -51.823  1.00  0.00     0.264 C 
HETATM   14  N   UNL     1     -40.993  54.619 -52.834  1.00  0.00    -0.309 N 
HETATM   15  C   UNL     1     -41.379  54.712 -54.274  1.00  0.00     0.093 C 
HETATM   16  C   UNL     1     -40.478  53.311 -52.630  1.00  0.00     0.044 A 
HETATM   17  C   UNL     1     -40.663  53.547 -54.993  1.00  0.00     0.066 C 
HETATM   18  C   UNL     1     -42.895  54.619 -54.465  1.00  0.00     0.033 C 
HETATM   19  C   UNL     1     -40.326  52.649 -53.850  1.00  0.00    -0.029 A 
HETATM   20  C   UNL     1     -39.848  51.348 -53.920  1.00  0.00     0.009 A 
HETATM   21  C   UNL     1     -39.542  50.691 -52.728  1.00  0.00     0.001 A 
HETATM   22  C   UNL     1     -39.699  51.345 -51.499  1.00  0.00     0.002 A 
HETATM   23  C   UNL     1     -40.163  52.664 -51.446  1.00  0.00     0.030 A 
HETATM   24  O   UNL     1     -40.778  55.372 -50.657  1.00  0.00    -0.267 OA
ENDBRANCH   9  13
BRANCH   4  25
HETATM   25  C   UNL     1     -43.507  61.478 -53.982  1.00  0.00     0.060 A 
HETATM   26  C   UNL     1     -43.374  62.805 -53.545  1.00  0.00     0.031 A 
HETATM   27  C   UNL     1     -43.228  63.840 -54.471  1.00  0.00     0.002 A 
HETATM   28  C   UNL     1     -43.233  63.563 -55.835  1.00  0.00     0.000 A 
HETATM   29  C   UNL     1     -43.388  62.250 -56.278  1.00  0.00     0.002 A 
HETATM   30  C   UNL     1     -43.528  61.209 -55.357  1.00  0.00     0.031 A 
ENDBRANCH   4  25
TORSDOF 2
ENDMDL
MODEL 7
REMARK VINA RESULT:      -8.3      3.660      6.593
REMARK  2 active torsions:
REMARK  status: ('A' for Active; 'I' for Inactive)
REMARK    1  A    between atoms: N_4  and  C_5 
REMARK    2  A    between atoms: C_15  and  C_16 
REMARK       I    between atoms: C_16  and  N_17 
ROOT
HETATM    1  C   UNL     1     -44.357  57.506 -52.256  1.00  0.00     0.073 C 
HETATM    2  C   UNL     1     -43.637  56.551 -53.132  1.00  0.00     0.069 C 
HETATM    3  N   UNL     1     -43.027  55.476 -52.611  1.00  0.00    -0.170 NA
HETATM    4  N   UNL     1     -42.418  54.860 -53.670  1.00  0.00    -0.216 N 
HETATM    5  C   UNL     1     -42.852  55.426 -54.857  1.00  0.00     0.145 C 
HETATM    6  C   UNL     1     -43.544  56.571 -54.535  1.00  0.00     0.087 C 
HETATM    7  N   UNL     1     -42.705  54.997 -56.132  1.00  0.00    -0.349 N 
HETATM    8  C   UNL     1     -43.310  55.735 -57.135  1.00  0.00     0.111 C 
HETATM    9  C   UNL     1     -43.977  56.897 -56.943  1.00  0.00     0.099 C 
HETATM   10  C   UNL     1     -44.051  57.466 -55.560  1.00  0.00     0.205 C 
HETATM   11  O   UNL     1     -44.487  58.581 -55.303  1.00  0.00    -0.286 OA
HETATM   12  H   UNL     1     -42.373  54.066 -56.382  1.00  0.00     0.167 HD
ENDROOT
BRANCH   9  13
HETATM   13  C   UNL     1     -44.502  57.547 -58.171  1.00  0.00     0.264 C 
HETATM   14  N   UNL     1     -43.662  58.346 -58.928  1.00  0.00    -0.309 N 
HETATM   15  C   UNL     1     -42.201  58.607 -58.765  1.00  0.00     0.093 C 
HETATM   16  C   UNL     1     -44.106  59.154 -60.009  1.00  0.00     0.044 A 
HETATM   17  C   UNL     1     -41.728  59.273 -60.075  1.00  0.00     0.066 C 
HETATM   18  C   UNL     1     -41.914  59.508 -57.562  1.00  0.00     0.033 C 
HETATM   19  C   UNL     1     -43.020  59.743 -60.658  1.00  0.00    -0.029 A 
HETATM   20  C   UNL     1     -43.189  60.591 -61.743  1.00  0.00     0.009 A 
HETATM   21  C   UNL     1     -44.489  60.870 -62.167  1.00  0.00     0.001 A 
HETATM   22  C   UNL     1     -45.585  60.289 -61.517  1.00  0.00     0.002 A 
HETATM   23  C   UNL     1     -45.397  59.421 -60.436  1.00  0.00     0.030 A 
HETATM   24  O   UNL     1     -45.705  57.395 -58.402  1.00  0.00    -0.267 OA
ENDBRANCH   9  13
BRANCH   4  25
HETATM   25  C   UNL     1     -41.462  53.829 -53.449  1.00  0.00     0.060 A 
HETATM   26  C   UNL     1     -41.241  52.872 -54.451  1.00  0.00     0.031 A 
HETATM   27  C   UNL     1     -40.330  51.834 -54.246  1.00  0.00     0.002 A 
HETATM   28  C   UNL     1     -39.647  51.733 -53.036  1.00  0.00     0.000 A 
HETATM   29  C   UNL     1     -39.877  52.666 -52.027  1.00  0.00     0.002 A 
HETATM   30  C   UNL     1     -40.784  53.711 -52.228  1.00  0.00     0.031 A 
ENDBRANCH   4  25
TORSDOF 2
ENDMDL
MODEL 8
REMARK VINA RESULT:      -8.2      3.429      5.171
REMARK  2 active torsions:
REMARK  status: ('A' for Active; 'I' for Inactive)
REMARK    1  A    between atoms: N_4  and  C_5 
REMARK    2  A    between atoms: C_15  and  C_16 
REMARK       I    between atoms: C_16  and  N_17 
ROOT
HETATM    1  C   UNL     1     -41.055  57.006 -50.929  1.00  0.00     0.073 C 
HETATM    2  C   UNL     1     -41.076  55.989 -52.009  1.00  0.00     0.069 C 
HETATM    3  N   UNL     1     -40.911  54.689 -51.723  1.00  0.00    -0.170 NA
HETATM    4  N   UNL     1     -40.918  54.052 -52.934  1.00  0.00    -0.216 N 
HETATM    5  C   UNL     1     -41.319  54.930 -53.926  1.00  0.00     0.145 C 
HETATM    6  C   UNL     1     -41.321  56.193 -53.379  1.00  0.00     0.087 C 
HETATM    7  N   UNL     1     -41.690  54.689 -55.205  1.00  0.00    -0.349 N 
HETATM    8  C   UNL     1     -42.117  55.764 -55.966  1.00  0.00     0.111 C 
HETATM    9  C   UNL     1     -42.121  57.052 -55.549  1.00  0.00     0.099 C 
HETATM   10  C   UNL     1     -41.598  57.369 -54.183  1.00  0.00     0.205 C 
HETATM   11  O   UNL     1     -41.409  58.507 -53.772  1.00  0.00    -0.286 OA
HETATM   12  H   UNL     1     -41.884  53.758 -55.573  1.00  0.00     0.167 HD
ENDROOT
BRANCH   9  13
HETATM   13  C   UNL     1     -42.573  58.050 -56.553  1.00  0.00     0.264 C 
HETATM   14  N   UNL     1     -43.698  58.812 -56.294  1.00  0.00    -0.309 N 
HETATM   15  C   UNL     1     -44.535  58.877 -55.058  1.00  0.00     0.093 C 
HETATM   16  C   UNL     1     -44.316  59.657 -57.254  1.00  0.00     0.044 A 
HETATM   17  C   UNL     1     -45.424  60.132 -55.199  1.00  0.00     0.066 C 
HETATM   18  C   UNL     1     -45.391  57.621 -54.884  1.00  0.00     0.033 C 
HETATM   19  C   UNL     1     -45.348  60.392 -56.667  1.00  0.00    -0.029 A 
HETATM   20  C   UNL     1     -46.117  61.285 -57.400  1.00  0.00     0.009 A 
HETATM   21  C   UNL     1     -45.854  61.419 -58.763  1.00  0.00     0.001 A 
HETATM   22  C   UNL     1     -44.826  60.680 -59.362  1.00  0.00     0.002 A 
HETATM   23  C   UNL     1     -44.046  59.798 -58.606  1.00  0.00     0.030 A 
HETATM   24  O   UNL     1     -41.947  58.081 -57.617  1.00  0.00    -0.267 OA
ENDBRANCH   9  13
BRANCH   4  25
HETATM   25  C   UNL     1     -40.507  52.692 -53.032  1.00  0.00     0.060 A 
HETATM   26  C   UNL     1     -39.913  52.074 -51.921  1.00  0.00     0.031 A 
HETATM   27  C   UNL     1     -39.475  50.750 -52.002  1.00  0.00     0.002 A 
HETATM   28  C   UNL     1     -39.609  50.042 -53.193  1.00  0.00     0.000 A 
HETATM   29  C   UNL     1     -40.178  50.656 -54.308  1.00  0.00     0.002 A 
HETATM   30  C   UNL     1     -40.624  51.978 -54.232  1.00  0.00     0.031 A 
ENDBRANCH   4  25
TORSDOF 2
ENDMDL
MODEL 9
REMARK VINA RESULT:      -8.2      3.302      6.463
REMARK  2 active torsions:
REMARK  status: ('A' for Active; 'I' for Inactive)
REMARK    1  A    between atoms: N_4  and  C_5 
REMARK    2  A    between atoms: C_15  and  C_16 
REMARK       I    between atoms: C_16  and  N_17 
ROOT
HETATM    1  C   UNL     1     -45.541  58.270 -51.079  1.00  0.00     0.073 C 
HETATM    2  C   UNL     1     -44.316  57.521 -51.450  1.00  0.00     0.069 C 
HETATM    3  N   UNL     1     -43.944  56.437 -50.753  1.00  0.00    -0.170 NA
HETATM    4  N   UNL     1     -42.760  56.040 -51.312  1.00  0.00    -0.216 N 
HETATM    5  C   UNL     1     -42.538  56.737 -52.488  1.00  0.00     0.145 C 
HETATM    6  C   UNL     1     -43.459  57.758 -52.539  1.00  0.00     0.087 C 
HETATM    7  N   UNL     1     -41.638  56.516 -53.474  1.00  0.00    -0.349 N 
HETATM    8  C   UNL     1     -41.684  57.341 -54.586  1.00  0.00     0.111 C 
HETATM    9  C   UNL     1     -42.516  58.400 -54.727  1.00  0.00     0.099 C 
HETATM   10  C   UNL     1     -43.437  58.748 -53.600  1.00  0.00     0.205 C 
HETATM   11  O   UNL     1     -44.110  59.771 -53.560  1.00  0.00    -0.286 OA
HETATM   12  H   UNL     1     -41.084  55.665 -53.556  1.00  0.00     0.167 HD
ENDROOT
BRANCH   9  13
HETATM   13  C   UNL     1     -42.356  59.178 -55.982  1.00  0.00     0.264 C 
HETATM   14  N   UNL     1     -43.047  58.786 -57.116  1.00  0.00    -0.309 N 
HETATM   15  C   UNL     1     -44.064  57.705 -57.280  1.00  0.00     0.093 C 
HETATM   16  C   UNL     1     -42.829  59.344 -58.404  1.00  0.00     0.044 A 
HETATM   17  C   UNL     1     -44.746  57.951 -58.645  1.00  0.00     0.066 C 
HETATM   18  C   UNL     1     -43.430  56.314 -57.232  1.00  0.00     0.033 C 
HETATM   19  C   UNL     1     -43.757  58.844 -59.318  1.00  0.00    -0.029 A 
HETATM   20  C   UNL     1     -43.748  59.226 -60.653  1.00  0.00     0.009 A 
HETATM   21  C   UNL     1     -42.761  60.115 -61.078  1.00  0.00     0.001 A 
HETATM   22  C   UNL     1     -41.820  60.616 -60.170  1.00  0.00     0.002 A 
HETATM   23  C   UNL     1     -41.854  60.236 -58.823  1.00  0.00     0.030 A 
HETATM   24  O   UNL     1     -41.535  60.100 -55.957  1.00  0.00    -0.267 OA
ENDBRANCH   9  13
BRANCH   4  25
HETATM   25  C   UNL     1     -41.945  55.073 -50.658  1.00  0.00     0.060 A 
HETATM   26  C   UNL     1     -41.459  55.346 -49.370  1.00  0.00     0.031 A 
HETATM   27  C   UNL     1     -40.634  54.426 -48.719  1.00  0.00     0.002 A 
HETATM   28  C   UNL     1     -40.273  53.241 -49.353  1.00  0.00     0.000 A 
HETATM   29  C   UNL     1     -40.733  52.972 -50.642  1.00  0.00     0.002 A 
HETATM   30  C   UNL     1     -41.565  53.885 -51.296  1.00  0.00     0.031 A 
ENDBRANCH   4  25
TORSDOF 2
ENDMDL
MODEL 10
REMARK VINA RESULT:      -8.1     17.053     19.763
REMARK  2 active torsions:
REMARK  status: ('A' for Active; 'I' for Inactive)
REMARK    1  A    between atoms: N_4  and  C_5 
REMARK    2  A    between atoms: C_15  and  C_16 
REMARK       I    between atoms: C_16  and  N_17 
ROOT
HETATM    1  C   UNL     1     -37.936  38.527 -48.964  1.00  0.00     0.073 C 
HETATM    2  C   UNL     1     -36.517  38.614 -49.385  1.00  0.00     0.069 C 
HETATM    3  N   UNL     1     -35.530  38.419 -48.496  1.00  0.00    -0.170 NA
HETATM    4  N   UNL     1     -34.373  38.635 -49.193  1.00  0.00    -0.216 N 
HETATM    5  C   UNL     1     -34.648  38.729 -50.547  1.00  0.00     0.145 C 
HETATM    6  C   UNL     1     -36.014  38.827 -50.681  1.00  0.00     0.087 C 
HETATM    7  N   UNL     1     -33.811  38.706 -51.610  1.00  0.00    -0.349 N 
HETATM    8  C   UNL     1     -34.374  38.750 -52.875  1.00  0.00     0.111 C 
HETATM    9  C   UNL     1     -35.696  38.887 -53.127  1.00  0.00     0.099 C 
HETATM   10  C   UNL     1     -36.638  39.043 -51.974  1.00  0.00     0.205 C 
HETATM   11  O   UNL     1     -37.822  39.332 -52.094  1.00  0.00    -0.286 OA
HETATM   12  H   UNL     1     -32.828  38.442 -51.552  1.00  0.00     0.167 HD
ENDROOT
BRANCH   9  13
HETATM   13  C   UNL     1     -36.071  38.963 -54.562  1.00  0.00     0.264 C 
HETATM   14  N   UNL     1     -35.981  40.175 -55.225  1.00  0.00    -0.309 N 
HETATM   15  C   UNL     1     -35.447  41.482 -54.741  1.00  0.00     0.093 C 
HETATM   16  C   UNL     1     -36.484  40.396 -56.535  1.00  0.00     0.044 A 
HETATM   17  C   UNL     1     -35.268  42.371 -55.992  1.00  0.00     0.066 C 
HETATM   18  C   UNL     1     -36.389  42.145 -53.733  1.00  0.00     0.033 C 
HETATM   19  C   UNL     1     -36.135  41.671 -56.985  1.00  0.00    -0.029 A 
HETATM   20  C   UNL     1     -36.519  42.135 -58.235  1.00  0.00     0.009 A 
HETATM   21  C   UNL     1     -37.295  41.301 -59.040  1.00  0.00     0.001 A 
HETATM   22  C   UNL     1     -37.656  40.023 -58.594  1.00  0.00     0.002 A 
HETATM   23  C   UNL     1     -37.246  39.562 -57.338  1.00  0.00     0.030 A 
HETATM   24  O   UNL     1     -36.528  37.932 -55.066  1.00  0.00    -0.267 OA
ENDBRANCH   9  13
BRANCH   4  25
HETATM   25  C   UNL     1     -33.134  38.769 -48.504  1.00  0.00     0.060 A 
HETATM   26  C   UNL     1     -32.830  37.878 -47.463  1.00  0.00     0.031 A 
HETATM   27  C   UNL     1     -31.634  38.008 -46.752  1.00  0.00     0.002 A 
HETATM   28  C   UNL     1     -30.746  39.034 -47.061  1.00  0.00     0.000 A 
HETATM   29  C   UNL     1     -31.051  39.937 -48.079  1.00  0.00     0.002 A 
HETATM   30  C   UNL     1     -32.243  39.809 -48.798  1.00  0.00     0.031 A 
ENDBRANCH   4  25
TORSDOF 2
ENDMDL
