MODEL 1
REMARK VINA RESULT:      -8.0      0.000      0.000
REMARK  10 active torsions:
REMARK  status: ('A' for Active; 'I' for Inactive)
REMARK    1  A    between atoms: C_2  and  N_3 
REMARK    2  A    between atoms: N_3  and  C_4 
REMARK    3  A    between atoms: N_3  and  C_37 
REMARK    4  A    between atoms: C_7  and  C_8 
REMARK    5  A    between atoms: N_9  and  C_11 
REMARK    6  A    between atoms: C_11  and  C_12 
REMARK       I    between atoms: C_12  and  N_13 
REMARK    7  A    between atoms: N_13  and  C_14 
REMARK    8  A    between atoms: C_20  and  C_21 
REMARK    9  A    between atoms: C_21  and  O_22 
REMARK   10  A    between atoms: C_28  and  O_29 
ROOT
HETATM    1  C   UNL     1     -42.939  56.744 -56.429  1.00  0.00     0.228 C 
HETATM    2  N   UNL     1     -43.724  57.666 -55.504  1.00  0.00    -0.054 N 
HETATM    3  H   UNL     1     -43.015  58.082 -54.874  1.00  0.00     0.281 HD
HETATM    4  C   UNL     1     -44.299  58.863 -56.220  1.00  0.00     0.239 C 
HETATM    5  C   UNL     1     -45.204  58.420 -57.357  1.00  0.00     0.066 C 
HETATM    6  C   UNL     1     -44.441  57.536 -58.341  1.00  0.00     0.065 C 
HETATM    7  C   UNL     1     -43.833  56.304 -57.622  1.00  0.00     0.055 C 
HETATM    8  C   UNL     1     -45.351  57.092 -59.500  1.00  0.00     0.038 C 
HETATM    9  C   UNL     1     -44.610  56.210 -60.503  1.00  0.00     0.003 C 
HETATM   10  C   UNL     1     -43.939  55.025 -59.821  1.00  0.00     0.001 C 
HETATM   11  C   UNL     1     -43.049  55.459 -58.657  1.00  0.00     0.010 C 
ENDROOT
BRANCH   2  12
HETATM   12  C   UNL     1     -44.689  57.029 -54.491  1.00  0.00     0.338 C 
BRANCH  12  13
HETATM   13  C   UNL     1     -44.432  57.633 -53.103  1.00  0.00     0.248 C 
HETATM   14  N   UNL     1     -45.100  58.813 -52.857  1.00  0.00    -0.319 N 
HETATM   15  H   UNL     1     -45.999  58.987 -53.310  1.00  0.00     0.169 HD
HETATM   16  O   UNL     1     -43.633  57.054 -52.367  1.00  0.00    -0.271 OA
BRANCH  14  17
HETATM   17  C   UNL     1     -44.770  59.730 -51.864  1.00  0.00     0.094 A 
HETATM   18  S   UNL     1     -45.595  59.719 -50.385  1.00  0.00    -0.076 SA
HETATM   19  C   UNL     1     -44.610  60.944 -49.731  1.00  0.00    -0.012 A 
HETATM   20  C   UNL     1     -44.856  61.410 -48.329  1.00  0.00     0.057 C 
HETATM   21  C   UNL     1     -43.647  61.380 -50.632  1.00  0.00    -0.030 A 
HETATM   22  C   UNL     1     -42.649  62.457 -50.325  1.00  0.00     0.050 C 
HETATM   23  C   UNL     1     -43.729  60.649 -51.892  1.00  0.00     0.080 A 
BRANCH  23  24
HETATM   24  C   UNL     1     -42.885  60.795 -53.086  1.00  0.00     0.296 C 
HETATM   25  O   UNL     1     -43.300  61.336 -54.110  1.00  0.00    -0.259 OA
BRANCH  24  26
HETATM   26  O   UNL     1     -41.630  60.296 -52.936  1.00  0.00    -0.322 OA
HETATM   27  C   UNL     1     -41.245  59.331 -53.914  1.00  0.00     0.213 C 
ENDBRANCH  24  26
ENDBRANCH  23  24
ENDBRANCH  14  17
ENDBRANCH  12  13
ENDBRANCH   2  12
BRANCH   1  28
HETATM   28  C   UNL     1     -42.227  55.648 -55.648  1.00  0.00    -0.027 A 
HETATM   29  C   UNL     1     -40.941  55.797 -55.108  1.00  0.00     0.011 A 
HETATM   30  C   UNL     1     -40.367  54.787 -54.324  1.00  0.00     0.030 A 
HETATM   31  C   UNL     1     -41.034  53.583 -54.087  1.00  0.00     0.030 A 
HETATM   32  C   UNL     1     -42.282  53.405 -54.695  1.00  0.00     0.030 A 
HETATM   33  C   UNL     1     -42.877  54.419 -55.455  1.00  0.00     0.011 A 
BRANCH  31  34
HETATM   34  N   UNL     1     -40.535  52.582 -53.257  1.00  0.00    -0.382 N 
BRANCH  34  35
HETATM   35  C   UNL     1     -40.299  52.873 -51.835  1.00  0.00     0.118 C 
HETATM   36  C   UNL     1     -41.524  53.519 -51.197  1.00  0.00     0.026 C 
ENDBRANCH  34  35
BRANCH  34  37
HETATM   37  C   UNL     1     -39.622  51.623 -53.896  1.00  0.00     0.118 C 
HETATM   38  C   UNL     1     -40.320  50.321 -54.268  1.00  0.00     0.026 C 
ENDBRANCH  34  37
ENDBRANCH  31  34
ENDBRANCH   1  28
BRANCH   6  39
HETATM   39  O   UNL     1     -43.367  58.330 -58.859  1.00  0.00    -0.389 OA
HETATM   40  H   UNL     1     -43.721  59.176 -59.195  1.00  0.00     0.210 HD
ENDBRANCH   6  39
TORSDOF 10
ENDMDL
MODEL 2
REMARK VINA RESULT:      -7.9      2.746      6.603
REMARK  10 active torsions:
REMARK  status: ('A' for Active; 'I' for Inactive)
REMARK    1  A    between atoms: C_2  and  N_3 
REMARK    2  A    between atoms: N_3  and  C_4 
REMARK    3  A    between atoms: N_3  and  C_37 
REMARK    4  A    between atoms: C_7  and  C_8 
REMARK    5  A    between atoms: N_9  and  C_11 
REMARK    6  A    between atoms: C_11  and  C_12 
REMARK       I    between atoms: C_12  and  N_13 
REMARK    7  A    between atoms: N_13  and  C_14 
REMARK    8  A    between atoms: C_20  and  C_21 
REMARK    9  A    between atoms: C_21  and  O_22 
REMARK   10  A    between atoms: C_28  and  O_29 
ROOT
HETATM    1  C   UNL     1     -43.312  57.448 -56.426  1.00  0.00     0.228 C 
HETATM    2  N   UNL     1     -43.108  55.939 -56.390  1.00  0.00    -0.054 N 
HETATM    3  H   UNL     1     -43.770  55.595 -55.673  1.00  0.00     0.281 HD
HETATM    4  C   UNL     1     -43.573  55.255 -57.652  1.00  0.00     0.239 C 
HETATM    5  C   UNL     1     -42.851  55.820 -58.863  1.00  0.00     0.066 C 
HETATM    6  C   UNL     1     -43.075  57.326 -58.970  1.00  0.00     0.065 C 
HETATM    7  C   UNL     1     -42.611  58.048 -57.678  1.00  0.00     0.055 C 
HETATM    8  C   UNL     1     -42.353  57.903 -60.200  1.00  0.00     0.038 C 
HETATM    9  C   UNL     1     -42.566  59.410 -60.333  1.00  0.00     0.003 C 
HETATM   10  C   UNL     1     -42.187  60.147 -59.055  1.00  0.00     0.001 C 
HETATM   11  C   UNL     1     -42.886  59.565 -57.827  1.00  0.00     0.010 C 
ENDROOT
BRANCH   2  12
HETATM   12  C   UNL     1     -41.773  55.398 -55.851  1.00  0.00     0.338 C 
BRANCH  12  13
HETATM   13  C   UNL     1     -41.965  54.947 -54.396  1.00  0.00     0.248 C 
HETATM   14  N   UNL     1     -40.807  54.892 -53.653  1.00  0.00    -0.319 N 
HETATM   15  H   UNL     1     -40.037  55.527 -53.873  1.00  0.00     0.169 HD
HETATM   16  O   UNL     1     -43.101  54.631 -54.041  1.00  0.00    -0.271 OA
BRANCH  14  17
HETATM   17  C   UNL     1     -40.648  54.186 -52.464  1.00  0.00     0.094 A 
HETATM   18  S   UNL     1     -40.791  54.980 -50.975  1.00  0.00    -0.076 SA
HETATM   19  C   UNL     1     -40.604  53.536 -50.093  1.00  0.00    -0.012 A 
HETATM   20  C   UNL     1     -40.650  53.583 -48.597  1.00  0.00     0.057 C 
HETATM   21  C   UNL     1     -40.424  52.435 -50.920  1.00  0.00    -0.030 A 
HETATM   22  C   UNL     1     -40.227  51.038 -50.411  1.00  0.00     0.050 C 
HETATM   23  C   UNL     1     -40.466  52.816 -52.328  1.00  0.00     0.080 A 
BRANCH  23  24
HETATM   24  C   UNL     1     -40.337  51.952 -53.509  1.00  0.00     0.296 C 
HETATM   25  O   UNL     1     -41.236  51.858 -54.344  1.00  0.00    -0.259 OA
BRANCH  24  26
HETATM   26  O   UNL     1     -39.148  51.299 -53.585  1.00  0.00    -0.322 OA
HETATM   27  C   UNL     1     -39.237  49.932 -53.986  1.00  0.00     0.213 C 
ENDBRANCH  24  26
ENDBRANCH  23  24
ENDBRANCH  14  17
ENDBRANCH  12  13
ENDBRANCH   2  12
BRANCH   1  28
HETATM   28  C   UNL     1     -42.999  58.083 -55.078  1.00  0.00    -0.027 A 
HETATM   29  C   UNL     1     -43.875  58.040 -53.984  1.00  0.00     0.011 A 
HETATM   30  C   UNL     1     -43.501  58.566 -52.740  1.00  0.00     0.030 A 
HETATM   31  C   UNL     1     -42.264  59.189 -52.556  1.00  0.00     0.030 A 
HETATM   32  C   UNL     1     -41.426  59.303 -53.672  1.00  0.00     0.030 A 
HETATM   33  C   UNL     1     -41.778  58.754 -54.910  1.00  0.00     0.011 A 
BRANCH  31  34
HETATM   34  N   UNL     1     -41.821  59.661 -51.323  1.00  0.00    -0.382 N 
BRANCH  34  35
HETATM   35  C   UNL     1     -40.834  58.881 -50.562  1.00  0.00     0.118 C 
HETATM   36  C   UNL     1     -39.486  59.591 -50.523  1.00  0.00     0.026 C 
ENDBRANCH  34  35
BRANCH  34  37
HETATM   37  C   UNL     1     -42.807  60.422 -50.542  1.00  0.00     0.118 C 
HETATM   38  C   UNL     1     -43.025  61.824 -51.095  1.00  0.00     0.026 C 
ENDBRANCH  34  37
ENDBRANCH  31  34
ENDBRANCH   1  28
BRANCH   6  39
HETATM   39  O   UNL     1     -44.487  57.523 -59.112  1.00  0.00    -0.389 OA
HETATM   40  H   UNL     1     -44.651  58.242 -59.753  1.00  0.00     0.210 HD
ENDBRANCH   6  39
TORSDOF 10
ENDMDL
MODEL 3
REMARK VINA RESULT:      -7.8      2.255      6.296
REMARK  10 active torsions:
REMARK  status: ('A' for Active; 'I' for Inactive)
REMARK    1  A    between atoms: C_2  and  N_3 
REMARK    2  A    between atoms: N_3  and  C_4 
REMARK    3  A    between atoms: N_3  and  C_37 
REMARK    4  A    between atoms: C_7  and  C_8 
REMARK    5  A    between atoms: N_9  and  C_11 
REMARK    6  A    between atoms: C_11  and  C_12 
REMARK       I    between atoms: C_12  and  N_13 
REMARK    7  A    between atoms: N_13  and  C_14 
REMARK    8  A    between atoms: C_20  and  C_21 
REMARK    9  A    between atoms: C_21  and  O_22 
REMARK   10  A    between atoms: C_28  and  O_29 
ROOT
HETATM    1  C   UNL     1     -42.248  55.433 -52.697  1.00  0.00     0.228 C 
HETATM    2  N   UNL     1     -42.036  56.542 -51.673  1.00  0.00    -0.054 N 
HETATM    3  H   UNL     1     -42.954  57.014 -51.593  1.00  0.00     0.281 HD
HETATM    4  C   UNL     1     -41.793  56.013 -50.281  1.00  0.00     0.239 C 
HETATM    5  C   UNL     1     -40.586  55.089 -50.264  1.00  0.00     0.066 C 
HETATM    6  C   UNL     1     -40.781  53.930 -51.238  1.00  0.00     0.065 C 
HETATM    7  C   UNL     1     -41.042  54.452 -52.675  1.00  0.00     0.055 C 
HETATM    8  C   UNL     1     -39.566  52.986 -51.218  1.00  0.00     0.038 C 
HETATM    9  C   UNL     1     -39.738  51.812 -52.181  1.00  0.00     0.003 C 
HETATM   10  C   UNL     1     -40.067  52.286 -53.591  1.00  0.00     0.001 C 
HETATM   11  C   UNL     1     -41.261  53.240 -53.614  1.00  0.00     0.010 C 
ENDROOT
BRANCH   2  12
HETATM   12  C   UNL     1     -41.124  57.719 -52.055  1.00  0.00     0.338 C 
BRANCH  12  13
HETATM   13  C   UNL     1     -41.966  59.000 -52.136  1.00  0.00     0.248 C 
HETATM   14  N   UNL     1     -43.326  58.792 -52.196  1.00  0.00    -0.319 N 
HETATM   15  H   UNL     1     -43.729  57.966 -51.750  1.00  0.00     0.169 HD
HETATM   16  O   UNL     1     -41.366  60.075 -52.190  1.00  0.00    -0.271 OA
BRANCH  14  17
HETATM   17  C   UNL     1     -44.262  59.724 -52.633  1.00  0.00     0.094 A 
HETATM   18  S   UNL     1     -44.105  60.442 -54.159  1.00  0.00    -0.076 SA
HETATM   19  C   UNL     1     -45.574  61.287 -54.005  1.00  0.00    -0.012 A 
HETATM   20  C   UNL     1     -46.033  62.167 -55.127  1.00  0.00     0.057 C 
HETATM   21  C   UNL     1     -46.199  61.039 -52.790  1.00  0.00    -0.030 A 
HETATM   22  C   UNL     1     -47.504  61.657 -52.384  1.00  0.00     0.050 C 
HETATM   23  C   UNL     1     -45.430  60.098 -51.981  1.00  0.00     0.080 A 
BRANCH  23  24
HETATM   24  C   UNL     1     -45.753  59.566 -50.650  1.00  0.00     0.296 C 
HETATM   25  O   UNL     1     -45.861  58.358 -50.445  1.00  0.00    -0.259 OA
BRANCH  24  26
HETATM   26  O   UNL     1     -45.902  60.523 -49.697  1.00  0.00    -0.322 OA
HETATM   27  C   UNL     1     -44.697  61.190 -49.321  1.00  0.00     0.213 C 
ENDBRANCH  24  26
ENDBRANCH  23  24
ENDBRANCH  14  17
ENDBRANCH  12  13
ENDBRANCH   2  12
BRANCH   1  28
HETATM   28  C   UNL     1     -42.665  55.998 -54.049  1.00  0.00    -0.027 A 
HETATM   29  C   UNL     1     -41.775  56.174 -55.118  1.00  0.00     0.011 A 
HETATM   30  C   UNL     1     -42.228  56.617 -56.367  1.00  0.00     0.030 A 
HETATM   31  C   UNL     1     -43.571  56.939 -56.581  1.00  0.00     0.030 A 
HETATM   32  C   UNL     1     -44.441  56.840 -55.489  1.00  0.00     0.030 A 
HETATM   33  C   UNL     1     -44.003  56.370 -54.246  1.00  0.00     0.011 A 
BRANCH  31  34
HETATM   34  N   UNL     1     -44.080  57.313 -57.823  1.00  0.00    -0.382 N 
BRANCH  34  35
HETATM   35  C   UNL     1     -43.179  57.379 -58.983  1.00  0.00     0.118 C 
HETATM   36  C   UNL     1     -43.280  56.114 -59.827  1.00  0.00     0.026 C 
ENDBRANCH  34  35
BRANCH  34  37
HETATM   37  C   UNL     1     -45.188  58.279 -57.791  1.00  0.00     0.118 C 
HETATM   38  C   UNL     1     -46.400  57.794 -58.577  1.00  0.00     0.026 C 
ENDBRANCH  34  37
ENDBRANCH  31  34
ENDBRANCH   1  28
BRANCH   6  39
HETATM   39  O   UNL     1     -41.944  53.217 -50.801  1.00  0.00    -0.389 OA
HETATM   40  H   UNL     1     -41.672  52.474 -50.226  1.00  0.00     0.210 HD
ENDBRANCH   6  39
TORSDOF 10
ENDMDL
MODEL 4
REMARK VINA RESULT:      -7.8      2.760      8.033
REMARK  10 active torsions:
REMARK  status: ('A' for Active; 'I' for Inactive)
REMARK    1  A    between atoms: C_2  and  N_3 
REMARK    2  A    between atoms: N_3  and  C_4 
REMARK    3  A    between atoms: N_3  and  C_37 
REMARK    4  A    between atoms: C_7  and  C_8 
REMARK    5  A    between atoms: N_9  and  C_11 
REMARK    6  A    between atoms: C_11  and  C_12 
REMARK       I    between atoms: C_12  and  N_13 
REMARK    7  A    between atoms: N_13  and  C_14 
REMARK    8  A    between atoms: C_20  and  C_21 
REMARK    9  A    between atoms: C_21  and  O_22 
REMARK   10  A    between atoms: C_28  and  O_29 
ROOT
HETATM    1  C   UNL     1     -42.257  58.124 -53.698  1.00  0.00     0.228 C 
HETATM    2  N   UNL     1     -42.048  56.910 -52.801  1.00  0.00    -0.054 N 
HETATM    3  H   UNL     1     -41.411  56.291 -53.332  1.00  0.00     0.281 HD
HETATM    4  C   UNL     1     -41.262  57.233 -51.554  1.00  0.00     0.239 C 
HETATM    5  C   UNL     1     -41.955  58.322 -50.753  1.00  0.00     0.066 C 
HETATM    6  C   UNL     1     -42.136  59.580 -51.599  1.00  0.00     0.065 C 
HETATM    7  C   UNL     1     -42.934  59.269 -52.892  1.00  0.00     0.055 C 
HETATM    8  C   UNL     1     -42.829  60.691 -50.790  1.00  0.00     0.038 C 
HETATM    9  C   UNL     1     -43.017  61.964 -51.612  1.00  0.00     0.003 C 
HETATM   10  C   UNL     1     -43.737  61.685 -52.925  1.00  0.00     0.001 C 
HETATM   11  C   UNL     1     -43.063  60.569 -53.723  1.00  0.00     0.010 C 
ENDROOT
BRANCH   2  12
HETATM   12  C   UNL     1     -43.242  55.974 -52.554  1.00  0.00     0.338 C 
BRANCH  12  13
HETATM   13  C   UNL     1     -42.719  54.579 -52.183  1.00  0.00     0.248 C 
HETATM   14  N   UNL     1     -41.426  54.325 -52.585  1.00  0.00    -0.319 N 
HETATM   15  H   UNL     1     -40.760  55.096 -52.658  1.00  0.00     0.169 HD
HETATM   16  O   UNL     1     -43.496  53.810 -51.618  1.00  0.00    -0.271 OA
BRANCH  14  17
HETATM   17  C   UNL     1     -40.856  53.060 -52.702  1.00  0.00     0.094 A 
HETATM   18  S   UNL     1     -40.679  52.342 -54.225  1.00  0.00    -0.076 SA
HETATM   19  C   UNL     1     -39.864  50.991 -53.586  1.00  0.00    -0.012 A 
HETATM   20  C   UNL     1     -39.401  49.910 -54.513  1.00  0.00     0.057 C 
HETATM   21  C   UNL     1     -39.723  51.068 -52.207  1.00  0.00    -0.030 A 
HETATM   22  C   UNL     1     -39.051  50.011 -51.380  1.00  0.00     0.050 C 
HETATM   23  C   UNL     1     -40.296  52.303 -51.682  1.00  0.00     0.080 A 
BRANCH  23  24
HETATM   24  C   UNL     1     -40.334  52.769 -50.289  1.00  0.00     0.296 C 
HETATM   25  O   UNL     1     -40.673  52.028 -49.368  1.00  0.00    -0.259 OA
BRANCH  24  26
HETATM   26  O   UNL     1     -39.952  54.063 -50.132  1.00  0.00    -0.322 OA
HETATM   27  C   UNL     1     -40.539  54.733 -49.017  1.00  0.00     0.213 C 
ENDBRANCH  24  26
ENDBRANCH  23  24
ENDBRANCH  14  17
ENDBRANCH  12  13
ENDBRANCH   2  12
BRANCH   1  28
HETATM   28  C   UNL     1     -42.894  57.732 -55.024  1.00  0.00    -0.027 A 
HETATM   29  C   UNL     1     -44.182  58.133 -55.409  1.00  0.00     0.011 A 
HETATM   30  C   UNL     1     -44.687  57.816 -56.677  1.00  0.00     0.030 A 
HETATM   31  C   UNL     1     -43.946  57.055 -57.585  1.00  0.00     0.030 A 
HETATM   32  C   UNL     1     -42.695  56.586 -57.166  1.00  0.00     0.030 A 
HETATM   33  C   UNL     1     -42.170  56.924 -55.913  1.00  0.00     0.011 A 
BRANCH  31  34
HETATM   34  N   UNL     1     -44.376  56.776 -58.880  1.00  0.00    -0.382 N 
BRANCH  34  35
HETATM   35  C   UNL     1     -43.680  55.748 -59.668  1.00  0.00     0.118 C 
HETATM   36  C   UNL     1     -44.492  54.459 -59.727  1.00  0.00     0.026 C 
ENDBRANCH  34  35
BRANCH  34  37
HETATM   37  C   UNL     1     -44.932  57.916 -59.624  1.00  0.00     0.118 C 
HETATM   38  C   UNL     1     -46.399  57.711 -59.984  1.00  0.00     0.026 C 
ENDBRANCH  34  37
ENDBRANCH  31  34
ENDBRANCH   1  28
BRANCH   6  39
HETATM   39  O   UNL     1     -40.824  60.016 -51.974  1.00  0.00    -0.389 OA
HETATM   40  H   UNL     1     -40.265  59.237 -52.164  1.00  0.00     0.210 HD
ENDBRANCH   6  39
TORSDOF 10
ENDMDL
MODEL 5
REMARK VINA RESULT:      -7.7      2.715      6.431
REMARK  10 active torsions:
REMARK  status: ('A' for Active; 'I' for Inactive)
REMARK    1  A    between atoms: C_2  and  N_3 
REMARK    2  A    between atoms: N_3  and  C_4 
REMARK    3  A    between atoms: N_3  and  C_37 
REMARK    4  A    between atoms: C_7  and  C_8 
REMARK    5  A    between atoms: N_9  and  C_11 
REMARK    6  A    between atoms: C_11  and  C_12 
REMARK       I    between atoms: C_12  and  N_13 
REMARK    7  A    between atoms: N_13  and  C_14 
REMARK    8  A    between atoms: C_20  and  C_21 
REMARK    9  A    between atoms: C_21  and  O_22 
REMARK   10  A    between atoms: C_28  and  O_29 
ROOT
HETATM    1  C   UNL     1     -43.242  57.453 -56.537  1.00  0.00     0.228 C 
HETATM    2  N   UNL     1     -43.054  55.942 -56.502  1.00  0.00    -0.054 N 
HETATM    3  H   UNL     1     -43.699  55.607 -55.764  1.00  0.00     0.281 HD
HETATM    4  C   UNL     1     -43.566  55.260 -57.747  1.00  0.00     0.239 C 
HETATM    5  C   UNL     1     -42.873  55.813 -58.982  1.00  0.00     0.066 C 
HETATM    6  C   UNL     1     -43.083  57.322 -59.086  1.00  0.00     0.065 C 
HETATM    7  C   UNL     1     -42.573  58.042 -57.811  1.00  0.00     0.055 C 
HETATM    8  C   UNL     1     -42.392  57.887 -60.340  1.00  0.00     0.038 C 
HETATM    9  C   UNL     1     -42.592  59.395 -60.472  1.00  0.00     0.003 C 
HETATM   10  C   UNL     1     -42.166  60.131 -59.208  1.00  0.00     0.001 C 
HETATM   11  C   UNL     1     -42.835  59.561 -57.957  1.00  0.00     0.010 C 
ENDROOT
BRANCH   2  12
HETATM   12  C   UNL     1     -41.710  55.387 -56.001  1.00  0.00     0.338 C 
BRANCH  12  13
HETATM   13  C   UNL     1     -41.929  54.677 -54.659  1.00  0.00     0.248 C 
HETATM   14  N   UNL     1     -40.806  54.584 -53.867  1.00  0.00    -0.319 N 
HETATM   15  H   UNL     1     -40.085  55.306 -53.930  1.00  0.00     0.169 HD
HETATM   16  O   UNL     1     -43.049  54.217 -54.432  1.00  0.00    -0.271 OA
BRANCH  14  17
HETATM   17  C   UNL     1     -40.641  53.698 -52.807  1.00  0.00     0.094 A 
HETATM   18  S   UNL     1     -40.071  52.128 -53.088  1.00  0.00    -0.076 SA
HETATM   19  C   UNL     1     -40.034  51.755 -51.427  1.00  0.00    -0.012 A 
HETATM   20  C   UNL     1     -39.571  50.399 -50.993  1.00  0.00     0.057 C 
HETATM   21  C   UNL     1     -40.461  52.817 -50.641  1.00  0.00    -0.030 A 
HETATM   22  C   UNL     1     -40.537  52.764 -49.143  1.00  0.00     0.050 C 
HETATM   23  C   UNL     1     -40.805  53.977 -51.457  1.00  0.00     0.080 A 
BRANCH  23  24
HETATM   24  C   UNL     1     -41.277  55.295 -51.012  1.00  0.00     0.296 C 
HETATM   25  O   UNL     1     -40.547  56.069 -50.394  1.00  0.00    -0.259 OA
BRANCH  24  26
HETATM   26  O   UNL     1     -42.563  55.565 -51.358  1.00  0.00    -0.322 OA
HETATM   27  C   UNL     1     -43.536  54.688 -50.789  1.00  0.00     0.213 C 
ENDBRANCH  24  26
ENDBRANCH  23  24
ENDBRANCH  14  17
ENDBRANCH  12  13
ENDBRANCH   2  12
BRANCH   1  28
HETATM   28  C   UNL     1     -42.882  58.089 -55.201  1.00  0.00    -0.027 A 
HETATM   29  C   UNL     1     -41.724  58.854 -54.999  1.00  0.00     0.011 A 
HETATM   30  C   UNL     1     -41.484  59.488 -53.773  1.00  0.00     0.030 A 
HETATM   31  C   UNL     1     -42.364  59.347 -52.697  1.00  0.00     0.030 A 
HETATM   32  C   UNL     1     -43.476  58.515 -52.876  1.00  0.00     0.030 A 
HETATM   33  C   UNL     1     -43.740  57.903 -54.107  1.00  0.00     0.011 A 
BRANCH  31  34
HETATM   34  N   UNL     1     -42.204  60.014 -51.485  1.00  0.00    -0.382 N 
BRANCH  34  35
HETATM   35  C   UNL     1     -41.467  59.363 -50.392  1.00  0.00     0.118 C 
HETATM   36  C   UNL     1     -39.978  59.680 -50.472  1.00  0.00     0.026 C 
ENDBRANCH  34  35
BRANCH  34  37
HETATM   37  C   UNL     1     -43.310  60.903 -51.098  1.00  0.00     0.118 C 
HETATM   38  C   UNL     1     -43.329  62.190 -51.914  1.00  0.00     0.026 C 
ENDBRANCH  34  37
ENDBRANCH  31  34
ENDBRANCH   1  28
BRANCH   6  39
HETATM   39  O   UNL     1     -44.496  57.534 -59.187  1.00  0.00    -0.389 OA
HETATM   40  H   UNL     1     -44.907  56.775 -59.645  1.00  0.00     0.210 HD
ENDBRANCH   6  39
TORSDOF 10
ENDMDL
MODEL 6
REMARK VINA RESULT:      -7.6      2.321      7.063
REMARK  10 active torsions:
REMARK  status: ('A' for Active; 'I' for Inactive)
REMARK    1  A    between atoms: C_2  and  N_3 
REMARK    2  A    between atoms: N_3  and  C_4 
REMARK    3  A    between atoms: N_3  and  C_37 
REMARK    4  A    between atoms: C_7  and  C_8 
REMARK    5  A    between atoms: N_9  and  C_11 
REMARK    6  A    between atoms: C_11  and  C_12 
REMARK       I    between atoms: C_12  and  N_13 
REMARK    7  A    between atoms: N_13  and  C_14 
REMARK    8  A    between atoms: C_20  and  C_21 
REMARK    9  A    between atoms: C_21  and  O_22 
REMARK   10  A    between atoms: C_28  and  O_29 
ROOT
HETATM    1  C   UNL     1     -43.741  58.619 -53.381  1.00  0.00     0.228 C 
HETATM    2  N   UNL     1     -44.276  59.017 -54.752  1.00  0.00    -0.054 N 
HETATM    3  H   UNL     1     -44.849  58.212 -55.060  1.00  0.00     0.281 HD
HETATM    4  C   UNL     1     -45.272  60.148 -54.685  1.00  0.00     0.239 C 
HETATM    5  C   UNL     1     -44.650  61.369 -54.027  1.00  0.00     0.066 C 
HETATM    6  C   UNL     1     -44.149  61.028 -52.626  1.00  0.00     0.065 C 
HETATM    7  C   UNL     1     -43.131  59.860 -52.670  1.00  0.00     0.055 C 
HETATM    8  C   UNL     1     -43.526  62.263 -51.950  1.00  0.00     0.038 C 
HETATM    9  C   UNL     1     -43.021  61.951 -50.543  1.00  0.00     0.003 C 
HETATM   10  C   UNL     1     -42.071  60.761 -50.538  1.00  0.00     0.001 C 
HETATM   11  C   UNL     1     -42.677  59.538 -51.225  1.00  0.00     0.010 C 
ENDROOT
BRANCH   2  12
HETATM   12  C   UNL     1     -43.278  59.139 -55.914  1.00  0.00     0.338 C 
BRANCH  12  13
HETATM   13  C   UNL     1     -44.022  58.923 -57.240  1.00  0.00     0.248 C 
HETATM   14  N   UNL     1     -44.829  57.807 -57.270  1.00  0.00    -0.319 N 
HETATM   15  H   UNL     1     -45.258  57.472 -56.406  1.00  0.00     0.169 HD
HETATM   16  O   UNL     1     -43.799  59.715 -58.155  1.00  0.00    -0.271 OA
BRANCH  14  17
HETATM   17  C   UNL     1     -45.307  57.193 -58.424  1.00  0.00     0.094 A 
HETATM   18  S   UNL     1     -46.830  57.602 -59.041  1.00  0.00    -0.076 SA
HETATM   19  C   UNL     1     -46.639  56.600 -60.404  1.00  0.00    -0.012 A 
HETATM   20  C   UNL     1     -47.738  56.530 -61.419  1.00  0.00     0.057 C 
HETATM   21  C   UNL     1     -45.419  55.938 -60.402  1.00  0.00    -0.030 A 
HETATM   22  C   UNL     1     -44.989  54.984 -61.478  1.00  0.00     0.050 C 
HETATM   23  C   UNL     1     -44.619  56.301 -59.237  1.00  0.00     0.080 A 
BRANCH  23  24
HETATM   24  C   UNL     1     -43.271  55.839 -58.878  1.00  0.00     0.296 C 
HETATM   25  O   UNL     1     -43.021  55.373 -57.767  1.00  0.00    -0.259 OA
BRANCH  24  26
HETATM   26  O   UNL     1     -42.362  55.965 -59.880  1.00  0.00    -0.322 OA
HETATM   27  C   UNL     1     -41.938  57.302 -60.144  1.00  0.00     0.213 C 
ENDBRANCH  24  26
ENDBRANCH  23  24
ENDBRANCH  14  17
ENDBRANCH  12  13
ENDBRANCH   2  12
BRANCH   1  28
HETATM   28  C   UNL     1     -42.880  57.366 -53.463  1.00  0.00    -0.027 A 
HETATM   29  C   UNL     1     -41.499  57.395 -53.699  1.00  0.00     0.011 A 
HETATM   30  C   UNL     1     -40.739  56.217 -53.679  1.00  0.00     0.030 A 
HETATM   31  C   UNL     1     -41.336  54.971 -53.466  1.00  0.00     0.030 A 
HETATM   32  C   UNL     1     -42.727  54.939 -53.314  1.00  0.00     0.030 A 
HETATM   33  C   UNL     1     -43.489  56.112 -53.301  1.00  0.00     0.011 A 
BRANCH  31  34
HETATM   34  N   UNL     1     -40.613  53.785 -53.367  1.00  0.00    -0.382 N 
BRANCH  34  35
HETATM   35  C   UNL     1     -40.312  53.017 -54.584  1.00  0.00     0.118 C 
HETATM   36  C   UNL     1     -40.262  51.522 -54.291  1.00  0.00     0.026 C 
ENDBRANCH  34  35
BRANCH  34  37
HETATM   37  C   UNL     1     -40.827  53.012 -52.134  1.00  0.00     0.118 C 
HETATM   38  C   UNL     1     -40.036  53.572 -50.957  1.00  0.00     0.026 C 
ENDBRANCH  34  37
ENDBRANCH  31  34
ENDBRANCH   1  28
BRANCH   6  39
HETATM   39  O   UNL     1     -45.291  60.601 -51.873  1.00  0.00    -0.389 OA
HETATM   40  H   UNL     1     -45.620  59.755 -52.234  1.00  0.00     0.210 HD
ENDBRANCH   6  39
TORSDOF 10
ENDMDL
MODEL 7
REMARK VINA RESULT:      -7.5      1.956      5.827
REMARK  10 active torsions:
REMARK  status: ('A' for Active; 'I' for Inactive)
REMARK    1  A    between atoms: C_2  and  N_3 
REMARK    2  A    between atoms: N_3  and  C_4 
REMARK    3  A    between atoms: N_3  and  C_37 
REMARK    4  A    between atoms: C_7  and  C_8 
REMARK    5  A    between atoms: N_9  and  C_11 
REMARK    6  A    between atoms: C_11  and  C_12 
REMARK       I    between atoms: C_12  and  N_13 
REMARK    7  A    between atoms: N_13  and  C_14 
REMARK    8  A    between atoms: C_20  and  C_21 
REMARK    9  A    between atoms: C_21  and  O_22 
REMARK   10  A    between atoms: C_28  and  O_29 
ROOT
HETATM    1  C   UNL     1     -42.347  55.513 -52.705  1.00  0.00     0.228 C 
HETATM    2  N   UNL     1     -42.084  56.553 -51.622  1.00  0.00    -0.054 N 
HETATM    3  H   UNL     1     -42.993  57.026 -51.477  1.00  0.00     0.281 HD
HETATM    4  C   UNL     1     -41.793  55.935 -50.276  1.00  0.00     0.239 C 
HETATM    5  C   UNL     1     -40.596  55.003 -50.364  1.00  0.00     0.066 C 
HETATM    6  C   UNL     1     -40.841  53.909 -51.401  1.00  0.00     0.065 C 
HETATM    7  C   UNL     1     -41.152  54.523 -52.791  1.00  0.00     0.055 C 
HETATM    8  C   UNL     1     -39.635  52.956 -51.488  1.00  0.00     0.038 C 
HETATM    9  C   UNL     1     -39.857  51.847 -52.516  1.00  0.00     0.003 C 
HETATM   10  C   UNL     1     -40.234  52.412 -53.879  1.00  0.00     0.001 C 
HETATM   11  C   UNL     1     -41.418  53.375 -53.795  1.00  0.00     0.010 C 
ENDROOT
BRANCH   2  12
HETATM   12  C   UNL     1     -41.175  57.745 -51.965  1.00  0.00     0.338 C 
BRANCH  12  13
HETATM   13  C   UNL     1     -41.720  59.005 -51.277  1.00  0.00     0.248 C 
HETATM   14  N   UNL     1     -43.078  59.190 -51.408  1.00  0.00    -0.319 N 
HETATM   15  H   UNL     1     -43.691  58.377 -51.501  1.00  0.00     0.169 HD
HETATM   16  O   UNL     1     -40.910  59.750 -50.726  1.00  0.00    -0.271 OA
BRANCH  14  17
HETATM   17  C   UNL     1     -43.748  60.394 -51.210  1.00  0.00     0.094 A 
HETATM   18  S   UNL     1     -44.111  60.921 -49.643  1.00  0.00    -0.076 SA
HETATM   19  C   UNL     1     -44.760  62.393 -50.198  1.00  0.00    -0.012 A 
HETATM   20  C   UNL     1     -45.286  63.381 -49.204  1.00  0.00     0.057 C 
HETATM   21  C   UNL     1     -44.714  62.499 -51.582  1.00  0.00    -0.030 A 
HETATM   22  C   UNL     1     -45.224  63.687 -52.343  1.00  0.00     0.050 C 
HETATM   23  C   UNL     1     -44.098  61.320 -52.184  1.00  0.00     0.080 A 
BRANCH  23  24
HETATM   24  C   UNL     1     -43.847  61.051 -53.606  1.00  0.00     0.296 C 
HETATM   25  O   UNL     1     -44.762  60.805 -54.390  1.00  0.00    -0.259 OA
BRANCH  24  26
HETATM   26  O   UNL     1     -42.535  61.115 -53.954  1.00  0.00    -0.322 OA
HETATM   27  C   UNL     1     -42.103  60.104 -54.865  1.00  0.00     0.213 C 
ENDBRANCH  24  26
ENDBRANCH  23  24
ENDBRANCH  14  17
ENDBRANCH  12  13
ENDBRANCH   2  12
BRANCH   1  28
HETATM   28  C   UNL     1     -42.810  56.165 -54.000  1.00  0.00    -0.027 A 
HETATM   29  C   UNL     1     -42.039  56.186 -55.171  1.00  0.00     0.011 A 
HETATM   30  C   UNL     1     -42.548  56.724 -56.360  1.00  0.00     0.030 A 
HETATM   31  C   UNL     1     -43.821  57.296 -56.413  1.00  0.00     0.030 A 
HETATM   32  C   UNL     1     -44.556  57.348 -55.222  1.00  0.00     0.030 A 
HETATM   33  C   UNL     1     -44.068  56.786 -54.037  1.00  0.00     0.011 A 
BRANCH  31  34
HETATM   34  N   UNL     1     -44.396  57.777 -57.586  1.00  0.00    -0.382 N 
BRANCH  34  35
HETATM   35  C   UNL     1     -45.550  58.686 -57.507  1.00  0.00     0.118 C 
HETATM   36  C   UNL     1     -46.804  58.030 -58.072  1.00  0.00     0.026 C 
ENDBRANCH  34  35
BRANCH  34  37
HETATM   37  C   UNL     1     -44.353  56.863 -58.737  1.00  0.00     0.118 C 
HETATM   38  C   UNL     1     -43.625  57.470 -59.930  1.00  0.00     0.026 C 
ENDBRANCH  34  37
ENDBRANCH  31  34
ENDBRANCH   1  28
BRANCH   6  39
HETATM   39  O   UNL     1     -41.993  53.179 -50.964  1.00  0.00    -0.389 OA
HETATM   40  H   UNL     1     -41.838  52.222 -51.091  1.00  0.00     0.210 HD
ENDBRANCH   6  39
TORSDOF 10
ENDMDL
MODEL 8
REMARK VINA RESULT:      -7.4      2.617      6.882
REMARK  10 active torsions:
REMARK  status: ('A' for Active; 'I' for Inactive)
REMARK    1  A    between atoms: C_2  and  N_3 
REMARK    2  A    between atoms: N_3  and  C_4 
REMARK    3  A    between atoms: N_3  and  C_37 
REMARK    4  A    between atoms: C_7  and  C_8 
REMARK    5  A    between atoms: N_9  and  C_11 
REMARK    6  A    between atoms: C_11  and  C_12 
REMARK       I    between atoms: C_12  and  N_13 
REMARK    7  A    between atoms: N_13  and  C_14 
REMARK    8  A    between atoms: C_20  and  C_21 
REMARK    9  A    between atoms: C_21  and  O_22 
REMARK   10  A    between atoms: C_28  and  O_29 
ROOT
HETATM    1  C   UNL     1     -42.841  57.136 -52.899  1.00  0.00     0.228 C 
HETATM    2  N   UNL     1     -43.363  57.646 -54.237  1.00  0.00    -0.054 N 
HETATM    3  H   UNL     1     -44.050  56.936 -54.546  1.00  0.00     0.281 HD
HETATM    4  C   UNL     1     -44.192  58.900 -54.102  1.00  0.00     0.239 C 
HETATM    5  C   UNL     1     -43.387  60.003 -53.435  1.00  0.00     0.066 C 
HETATM    6  C   UNL     1     -42.891  59.553 -52.064  1.00  0.00     0.065 C 
HETATM    7  C   UNL     1     -42.043  58.259 -52.178  1.00  0.00     0.055 C 
HETATM    8  C   UNL     1     -42.083  60.670 -51.379  1.00  0.00     0.038 C 
HETATM    9  C   UNL     1     -41.578  60.247 -50.000  1.00  0.00     0.003 C 
HETATM   10  C   UNL     1     -40.800  58.940 -50.063  1.00  0.00     0.001 C 
HETATM   11  C   UNL     1     -41.590  57.832 -50.760  1.00  0.00     0.010 C 
ENDROOT
BRANCH   2  12
HETATM   12  C   UNL     1     -42.397  57.669 -55.433  1.00  0.00     0.338 C 
BRANCH  12  13
HETATM   13  C   UNL     1     -42.962  56.785 -56.553  1.00  0.00     0.248 C 
HETATM   14  N   UNL     1     -43.168  57.436 -57.749  1.00  0.00    -0.319 N 
HETATM   15  H   UNL     1     -42.574  58.228 -58.001  1.00  0.00     0.169 HD
HETATM   16  O   UNL     1     -43.225  55.614 -56.279  1.00  0.00    -0.271 OA
BRANCH  14  17
HETATM   17  C   UNL     1     -43.987  56.982 -58.779  1.00  0.00     0.094 A 
HETATM   18  S   UNL     1     -43.432  55.797 -59.853  1.00  0.00    -0.076 SA
HETATM   19  C   UNL     1     -44.928  55.709 -60.661  1.00  0.00    -0.012 A 
HETATM   20  C   UNL     1     -45.087  54.753 -61.802  1.00  0.00     0.057 C 
HETATM   21  C   UNL     1     -45.865  56.584 -60.128  1.00  0.00    -0.030 A 
HETATM   22  C   UNL     1     -47.265  56.722 -60.649  1.00  0.00     0.050 C 
HETATM   23  C   UNL     1     -45.314  57.329 -59.000  1.00  0.00     0.080 A 
BRANCH  23  24
HETATM   24  C   UNL     1     -45.982  58.330 -58.157  1.00  0.00     0.296 C 
HETATM   25  O   UNL     1     -46.196  58.132 -56.962  1.00  0.00    -0.259 OA
BRANCH  24  26
HETATM   26  O   UNL     1     -46.314  59.470 -58.817  1.00  0.00    -0.322 OA
HETATM   27  C   UNL     1     -45.263  60.430 -58.928  1.00  0.00     0.213 C 
ENDBRANCH  24  26
ENDBRANCH  23  24
ENDBRANCH  14  17
ENDBRANCH  12  13
ENDBRANCH   2  12
BRANCH   1  28
HETATM   28  C   UNL     1     -42.163  55.781 -53.047  1.00  0.00    -0.027 A 
HETATM   29  C   UNL     1     -40.946  55.598 -53.719  1.00  0.00     0.011 A 
HETATM   30  C   UNL     1     -40.322  54.344 -53.752  1.00  0.00     0.030 A 
HETATM   31  C   UNL     1     -40.908  53.225 -53.155  1.00  0.00     0.030 A 
HETATM   32  C   UNL     1     -42.162  53.394 -52.557  1.00  0.00     0.030 A 
HETATM   33  C   UNL     1     -42.778  54.649 -52.492  1.00  0.00     0.011 A 
BRANCH  31  34
HETATM   34  N   UNL     1     -40.293  51.977 -53.100  1.00  0.00    -0.382 N 
BRANCH  34  35
HETATM   35  C   UNL     1     -39.285  51.712 -52.062  1.00  0.00     0.118 C 
HETATM   36  C   UNL     1     -39.895  50.957 -50.886  1.00  0.00     0.026 C 
ENDBRANCH  34  35
BRANCH  34  37
HETATM   37  C   UNL     1     -40.101  51.304 -54.394  1.00  0.00     0.118 C 
HETATM   38  C   UNL     1     -39.491  49.917 -54.239  1.00  0.00     0.026 C 
ENDBRANCH  34  37
ENDBRANCH  31  34
ENDBRANCH   1  28
BRANCH   6  39
HETATM   39  O   UNL     1     -44.054  59.260 -51.280  1.00  0.00    -0.389 OA
HETATM   40  H   UNL     1     -44.682  60.007 -51.340  1.00  0.00     0.210 HD
ENDBRANCH   6  39
TORSDOF 10
ENDMDL
MODEL 9
REMARK VINA RESULT:      -7.4      2.618      7.936
REMARK  10 active torsions:
REMARK  status: ('A' for Active; 'I' for Inactive)
REMARK    1  A    between atoms: C_2  and  N_3 
REMARK    2  A    between atoms: N_3  and  C_4 
REMARK    3  A    between atoms: N_3  and  C_37 
REMARK    4  A    between atoms: C_7  and  C_8 
REMARK    5  A    between atoms: N_9  and  C_11 
REMARK    6  A    between atoms: C_11  and  C_12 
REMARK       I    between atoms: C_12  and  N_13 
REMARK    7  A    between atoms: N_13  and  C_14 
REMARK    8  A    between atoms: C_20  and  C_21 
REMARK    9  A    between atoms: C_21  and  O_22 
REMARK   10  A    between atoms: C_28  and  O_29 
ROOT
HETATM    1  C   UNL     1     -42.145  58.587 -53.219  1.00  0.00     0.228 C 
HETATM    2  N   UNL     1     -41.995  57.302 -52.413  1.00  0.00    -0.054 N 
HETATM    3  H   UNL     1     -41.344  56.714 -52.963  1.00  0.00     0.281 HD
HETATM    4  C   UNL     1     -41.261  57.511 -51.111  1.00  0.00     0.239 C 
HETATM    5  C   UNL     1     -41.973  58.547 -50.257  1.00  0.00     0.066 C 
HETATM    6  C   UNL     1     -42.096  59.870 -51.007  1.00  0.00     0.065 C 
HETATM    7  C   UNL     1     -42.840  59.677 -52.354  1.00  0.00     0.055 C 
HETATM    8  C   UNL     1     -42.808  60.927 -50.143  1.00  0.00     0.038 C 
HETATM    9  C   UNL     1     -42.940  62.264 -50.869  1.00  0.00     0.003 C 
HETATM   10  C   UNL     1     -43.603  62.102 -52.230  1.00  0.00     0.001 C 
HETATM   11  C   UNL     1     -42.912  61.041 -53.085  1.00  0.00     0.010 C 
ENDROOT
BRANCH   2  12
HETATM   12  C   UNL     1     -43.213  56.372 -52.294  1.00  0.00     0.338 C 
BRANCH  12  13
HETATM   13  C   UNL     1     -42.732  54.954 -51.960  1.00  0.00     0.248 C 
HETATM   14  N   UNL     1     -41.381  54.749 -52.136  1.00  0.00    -0.319 N 
HETATM   15  H   UNL     1     -40.733  55.529 -52.014  1.00  0.00     0.169 HD
HETATM   16  O   UNL     1     -43.579  54.128 -51.620  1.00  0.00    -0.271 OA
BRANCH  14  17
HETATM   17  C   UNL     1     -40.767  53.506 -52.259  1.00  0.00     0.094 A 
HETATM   18  S   UNL     1     -40.287  52.650 -50.878  1.00  0.00    -0.076 SA
HETATM   19  C   UNL     1     -39.781  51.303 -51.788  1.00  0.00    -0.012 A 
HETATM   20  C   UNL     1     -39.220  50.110 -51.077  1.00  0.00     0.057 C 
HETATM   21  C   UNL     1     -39.965  51.490 -53.151  1.00  0.00    -0.030 A 
HETATM   22  C   UNL     1     -39.600  50.469 -54.188  1.00  0.00     0.050 C 
HETATM   23  C   UNL     1     -40.566  52.791 -53.432  1.00  0.00     0.080 A 
BRANCH  23  24
HETATM   24  C   UNL     1     -40.935  53.360 -54.735  1.00  0.00     0.296 C 
HETATM   25  O   UNL     1     -40.090  53.798 -55.514  1.00  0.00    -0.259 OA
BRANCH  24  26
HETATM   26  O   UNL     1     -42.270  53.337 -54.986  1.00  0.00    -0.322 OA
HETATM   27  C   UNL     1     -42.787  54.516 -55.603  1.00  0.00     0.213 C 
ENDBRANCH  24  26
ENDBRANCH  23  24
ENDBRANCH  14  17
ENDBRANCH  12  13
ENDBRANCH   2  12
BRANCH   1  28
HETATM   28  C   UNL     1     -42.728  58.312 -54.599  1.00  0.00    -0.027 A 
HETATM   29  C   UNL     1     -41.951  58.239 -55.763  1.00  0.00     0.011 A 
HETATM   30  C   UNL     1     -42.527  57.899 -56.994  1.00  0.00     0.030 A 
HETATM   31  C   UNL     1     -43.899  57.662 -57.114  1.00  0.00     0.030 A 
HETATM   32  C   UNL     1     -44.684  57.817 -55.966  1.00  0.00     0.030 A 
HETATM   33  C   UNL     1     -44.113  58.127 -54.726  1.00  0.00     0.011 A 
BRANCH  31  34
HETATM   34  N   UNL     1     -44.503  57.251 -58.299  1.00  0.00    -0.382 N 
BRANCH  34  35
HETATM   35  C   UNL     1     -43.899  56.161 -59.080  1.00  0.00     0.118 C 
HETATM   36  C   UNL     1     -44.962  55.380 -59.844  1.00  0.00     0.026 C 
ENDBRANCH  34  35
BRANCH  34  37
HETATM   37  C   UNL     1     -45.193  58.304 -59.060  1.00  0.00     0.118 C 
HETATM   38  C   UNL     1     -44.299  58.928 -60.124  1.00  0.00     0.026 C 
ENDBRANCH  34  37
ENDBRANCH  31  34
ENDBRANCH   1  28
BRANCH   6  39
HETATM   39  O   UNL     1     -40.762  60.309 -51.289  1.00  0.00    -0.389 OA
HETATM   40  H   UNL     1     -40.733  61.286 -51.282  1.00  0.00     0.210 HD
ENDBRANCH   6  39
TORSDOF 10
ENDMDL
MODEL 10
REMARK VINA RESULT:      -7.3      2.586      7.126
REMARK  10 active torsions:
REMARK  status: ('A' for Active; 'I' for Inactive)
REMARK    1  A    between atoms: C_2  and  N_3 
REMARK    2  A    between atoms: N_3  and  C_4 
REMARK    3  A    between atoms: N_3  and  C_37 
REMARK    4  A    between atoms: C_7  and  C_8 
REMARK    5  A    between atoms: N_9  and  C_11 
REMARK    6  A    between atoms: C_11  and  C_12 
REMARK       I    between atoms: C_12  and  N_13 
REMARK    7  A    between atoms: N_13  and  C_14 
REMARK    8  A    between atoms: C_20  and  C_21 
REMARK    9  A    between atoms: C_21  and  O_22 
REMARK   10  A    between atoms: C_28  and  O_29 
ROOT
HETATM    1  C   UNL     1     -44.443  59.829 -51.807  1.00  0.00     0.228 C 
HETATM    2  N   UNL     1     -44.035  60.465 -53.130  1.00  0.00    -0.054 N 
HETATM    3  H   UNL     1     -44.192  59.730 -53.842  1.00  0.00     0.281 HD
HETATM    4  C   UNL     1     -44.968  61.571 -53.561  1.00  0.00     0.239 C 
HETATM    5  C   UNL     1     -45.040  62.653 -52.496  1.00  0.00     0.066 C 
HETATM    6  C   UNL     1     -45.500  62.068 -51.163  1.00  0.00     0.065 C 
HETATM    7  C   UNL     1     -44.560  60.922 -50.707  1.00  0.00     0.055 C 
HETATM    8  C   UNL     1     -45.584  63.161 -50.083  1.00  0.00     0.038 C 
HETATM    9  C   UNL     1     -46.048  62.602 -48.739  1.00  0.00     0.003 C 
HETATM   10  C   UNL     1     -45.189  61.427 -48.292  1.00  0.00     0.001 C 
HETATM   11  C   UNL     1     -45.086  60.347 -49.369  1.00  0.00     0.010 C 
ENDROOT
BRANCH   2  12
HETATM   12  C   UNL     1     -42.549  60.789 -53.354  1.00  0.00     0.338 C 
BRANCH  12  13
HETATM   13  C   UNL     1     -42.026  59.957 -54.533  1.00  0.00     0.248 C 
HETATM   14  N   UNL     1     -42.813  60.002 -55.662  1.00  0.00    -0.319 N 
HETATM   15  H   UNL     1     -43.366  60.838 -55.858  1.00  0.00     0.169 HD
HETATM   16  O   UNL     1     -41.001  59.298 -54.357  1.00  0.00    -0.271 OA
BRANCH  14  17
HETATM   17  C   UNL     1     -42.772  59.083 -56.707  1.00  0.00     0.094 A 
HETATM   18  S   UNL     1     -41.962  59.462 -58.145  1.00  0.00    -0.076 SA
HETATM   19  C   UNL     1     -42.239  57.918 -58.806  1.00  0.00    -0.012 A 
HETATM   20  C   UNL     1     -41.714  57.603 -60.172  1.00  0.00     0.057 C 
HETATM   21  C   UNL     1     -42.955  57.099 -57.943  1.00  0.00    -0.030 A 
HETATM   22  C   UNL     1     -43.347  55.688 -58.271  1.00  0.00     0.050 C 
HETATM   23  C   UNL     1     -43.258  57.783 -56.690  1.00  0.00     0.080 A 
BRANCH  23  24
HETATM   24  C   UNL     1     -43.977  57.261 -55.520  1.00  0.00     0.296 C 
HETATM   25  O   UNL     1     -44.905  57.880 -55.001  1.00  0.00    -0.259 OA
BRANCH  24  26
HETATM   26  O   UNL     1     -43.528  56.052 -55.093  1.00  0.00    -0.322 OA
HETATM   27  C   UNL     1     -42.200  56.053 -54.569  1.00  0.00     0.213 C 
ENDBRANCH  24  26
ENDBRANCH  23  24
ENDBRANCH  14  17
ENDBRANCH  12  13
ENDBRANCH   2  12
BRANCH   1  28
HETATM   28  C   UNL     1     -43.591  58.608 -51.492  1.00  0.00    -0.027 A 
HETATM   29  C   UNL     1     -42.231  58.682 -51.160  1.00  0.00     0.011 A 
HETATM   30  C   UNL     1     -41.515  57.534 -50.794  1.00  0.00     0.030 A 
HETATM   31  C   UNL     1     -42.116  56.273 -50.789  1.00  0.00     0.030 A 
HETATM   32  C   UNL     1     -43.451  56.192 -51.201  1.00  0.00     0.030 A 
HETATM   33  C   UNL     1     -44.183  57.336 -51.538  1.00  0.00     0.011 A 
BRANCH  31  34
HETATM   34  N   UNL     1     -41.465  55.117 -50.365  1.00  0.00    -0.382 N 
BRANCH  34  35
HETATM   35  C   UNL     1     -41.802  53.828 -50.987  1.00  0.00     0.118 C 
HETATM   36  C   UNL     1     -40.897  53.541 -52.179  1.00  0.00     0.026 C 
ENDBRANCH  34  35
BRANCH  34  37
HETATM   37  C   UNL     1     -41.084  55.086 -48.945  1.00  0.00     0.118 C 
HETATM   38  C   UNL     1     -40.601  53.709 -48.506  1.00  0.00     0.026 C 
ENDBRANCH  34  37
ENDBRANCH  31  34
ENDBRANCH   1  28
BRANCH   6  39
HETATM   39  O   UNL     1     -46.804  61.518 -51.384  1.00  0.00    -0.389 OA
HETATM   40  H   UNL     1     -47.427  62.238 -51.604  1.00  0.00     0.210 HD
ENDBRANCH   6  39
TORSDOF 10
ENDMDL
