MODEL 1
REMARK VINA RESULT:      -8.7      0.000      0.000
REMARK  5 active torsions:
REMARK  status: ('A' for Active; 'I' for Inactive)
REMARK    1  A    between atoms: C_2  and  C_3 
REMARK    2  A    between atoms: N_12  and  N_13 
REMARK       I    between atoms: N_13  and  C_14 
REMARK    3  A    between atoms: C_14  and  C_15 
REMARK    4  A    between atoms: C_15  and  N_16 
REMARK       I    between atoms: N_16  and  C_17 
REMARK    5  A    between atoms: C_17  and  C_18 
ROOT
HETATM    1  N   UNL     1     -41.346  56.723 -53.100  1.00  0.00    -0.255 N 
HETATM    2  C   UNL     1     -41.922  56.758 -51.843  1.00  0.00     0.254 C 
HETATM    3  O   UNL     1     -42.960  57.357 -51.567  1.00  0.00    -0.270 OA
HETATM    4  H   UNL     1     -40.857  55.859 -53.358  1.00  0.00     0.191 HD
ENDROOT
BRANCH   1   5
HETATM    5  N   UNL     1     -42.013  57.373 -54.127  1.00  0.00    -0.167 N 
HETATM    6  C   UNL     1     -41.750  58.656 -54.517  1.00  0.00     0.345 C 
HETATM    7  N   UNL     1     -42.594  58.957 -55.568  1.00  0.00    -0.319 N 
HETATM    8  O   UNL     1     -40.937  59.435 -54.049  1.00  0.00    -0.245 OA
HETATM    9  C   UNL     1     -43.343  57.795 -56.022  1.00  0.00     0.141 C 
HETATM   10  H   UNL     1     -42.449  59.799 -56.107  1.00  0.00     0.166 HD
HETATM   11  C   UNL     1     -44.852  58.039 -55.907  1.00  0.00     0.055 C 
HETATM   12  C   UNL     1     -42.953  56.770 -54.927  1.00  0.00     0.279 C 
HETATM   13  O   UNL     1     -43.413  55.639 -54.805  1.00  0.00    -0.268 OA
BRANCH   9  14
HETATM   14  C   UNL     1     -42.900  57.433 -57.437  1.00  0.00    -0.021 A 
HETATM   15  C   UNL     1     -43.289  56.202 -58.004  1.00  0.00     0.010 A 
HETATM   16  C   UNL     1     -42.926  55.856 -59.307  1.00  0.00     0.001 A 
HETATM   17  C   UNL     1     -42.174  56.735 -60.078  1.00  0.00     0.000 A 
HETATM   18  C   UNL     1     -41.789  57.962 -59.545  1.00  0.00     0.001 A 
HETATM   19  C   UNL     1     -42.152  58.311 -58.240  1.00  0.00     0.010 A 
ENDBRANCH   9  14
ENDBRANCH   1   5
BRANCH   2  20
HETATM   20  C   UNL     1     -41.159  55.925 -50.816  1.00  0.00     0.227 C 
BRANCH  20  21
HETATM   21  N   UNL     1     -40.894  54.584 -51.301  1.00  0.00    -0.348 N 
HETATM   22  C   UNL     1     -40.082  53.729 -50.587  1.00  0.00     0.252 C 
HETATM   23  O   UNL     1     -39.476  54.111 -49.589  1.00  0.00    -0.268 OA
HETATM   24  H   UNL     1     -41.454  54.256 -52.074  1.00  0.00     0.163 HD
BRANCH  22  25
HETATM   25  C   UNL     1     -39.984  52.313 -51.052  1.00  0.00     0.033 A 
HETATM   26  C   UNL     1     -39.778  51.965 -52.393  1.00  0.00     0.036 A 
HETATM   27  C   UNL     1     -39.734  50.617 -52.759  1.00  0.00     0.012 A 
HETATM   28 BR   UNL     1     -39.481  50.151 -54.575  1.00  0.00    -0.051 Br
HETATM   29  C   UNL     1     -39.875  49.611 -51.805  1.00  0.00     0.019 A 
HETATM   30  C   UNL     1     -40.056  49.953 -50.466  1.00  0.00     0.002 A 
HETATM   31  C   UNL     1     -40.109  51.298 -50.091  1.00  0.00     0.017 A 
ENDBRANCH  22  25
ENDBRANCH  20  21
ENDBRANCH   2  20
TORSDOF 5
ENDMDL
MODEL 2
REMARK VINA RESULT:      -8.5      2.376      7.613
REMARK  5 active torsions:
REMARK  status: ('A' for Active; 'I' for Inactive)
REMARK    1  A    between atoms: C_2  and  C_3 
REMARK    2  A    between atoms: N_12  and  N_13 
REMARK       I    between atoms: N_13  and  C_14 
REMARK    3  A    between atoms: C_14  and  C_15 
REMARK    4  A    between atoms: C_15  and  N_16 
REMARK       I    between atoms: N_16  and  C_17 
REMARK    5  A    between atoms: C_17  and  C_18 
ROOT
HETATM    1  N   UNL     1     -43.624  55.726 -53.165  1.00  0.00    -0.255 N 
HETATM    2  C   UNL     1     -43.740  57.051 -52.786  1.00  0.00     0.254 C 
HETATM    3  O   UNL     1     -43.169  57.554 -51.821  1.00  0.00    -0.270 OA
HETATM    4  H   UNL     1     -43.669  55.529 -54.171  1.00  0.00     0.191 HD
ENDROOT
BRANCH   1   5
HETATM    5  N   UNL     1     -42.766  54.924 -52.428  1.00  0.00    -0.167 N 
HETATM    6  C   UNL     1     -43.174  54.086 -51.429  1.00  0.00     0.345 C 
HETATM    7  N   UNL     1     -42.055  53.444 -50.935  1.00  0.00    -0.319 N 
HETATM    8  O   UNL     1     -44.305  53.908 -51.007  1.00  0.00    -0.245 OA
HETATM    9  C   UNL     1     -40.867  53.725 -51.726  1.00  0.00     0.141 C 
HETATM   10  H   UNL     1     -42.159  52.663 -50.303  1.00  0.00     0.166 HD
HETATM   11  C   UNL     1     -39.778  54.376 -50.865  1.00  0.00     0.055 C 
HETATM   12  C   UNL     1     -41.419  54.816 -52.678  1.00  0.00     0.279 C 
HETATM   13  O   UNL     1     -40.764  55.459 -53.491  1.00  0.00    -0.268 OA
BRANCH   9  14
HETATM   14  C   UNL     1     -40.403  52.441 -52.410  1.00  0.00    -0.021 A 
HETATM   15  C   UNL     1     -39.814  51.411 -51.648  1.00  0.00     0.010 A 
HETATM   16  C   UNL     1     -39.407  50.213 -52.240  1.00  0.00     0.001 A 
HETATM   17  C   UNL     1     -39.588  50.012 -53.604  1.00  0.00     0.000 A 
HETATM   18  C   UNL     1     -40.180  51.009 -54.374  1.00  0.00     0.001 A 
HETATM   19  C   UNL     1     -40.587  52.210 -53.784  1.00  0.00     0.010 A 
ENDBRANCH   9  14
ENDBRANCH   1   5
BRANCH   2  20
HETATM   20  C   UNL     1     -44.627  57.863 -53.728  1.00  0.00     0.227 C 
BRANCH  20  21
HETATM   21  N   UNL     1     -44.401  57.510 -55.117  1.00  0.00    -0.348 N 
HETATM   22  C   UNL     1     -43.535  58.247 -55.894  1.00  0.00     0.252 C 
HETATM   23  O   UNL     1     -43.020  59.279 -55.471  1.00  0.00    -0.268 OA
HETATM   24  H   UNL     1     -44.765  56.622 -55.431  1.00  0.00     0.163 HD
BRANCH  22  25
HETATM   25  C   UNL     1     -43.220  57.735 -57.262  1.00  0.00     0.033 A 
HETATM   26  C   UNL     1     -43.884  56.645 -57.838  1.00  0.00     0.036 A 
HETATM   27  C   UNL     1     -43.509  56.199 -59.108  1.00  0.00     0.012 A 
HETATM   28 BR   UNL     1     -44.391  54.710 -59.872  1.00  0.00    -0.051 Br
HETATM   29  C   UNL     1     -42.493  56.835 -59.819  1.00  0.00     0.019 A 
HETATM   30  C   UNL     1     -41.846  57.935 -59.260  1.00  0.00     0.002 A 
HETATM   31  C   UNL     1     -42.208  58.383 -57.987  1.00  0.00     0.017 A 
ENDBRANCH  22  25
ENDBRANCH  20  21
ENDBRANCH   2  20
TORSDOF 5
ENDMDL
MODEL 3
REMARK VINA RESULT:      -8.3      4.091      9.055
REMARK  5 active torsions:
REMARK  status: ('A' for Active; 'I' for Inactive)
REMARK    1  A    between atoms: C_2  and  C_3 
REMARK    2  A    between atoms: N_12  and  N_13 
REMARK       I    between atoms: N_13  and  C_14 
REMARK    3  A    between atoms: C_14  and  C_15 
REMARK    4  A    between atoms: C_15  and  N_16 
REMARK       I    between atoms: N_16  and  C_17 
REMARK    5  A    between atoms: C_17  and  C_18 
ROOT
HETATM    1  N   UNL     1     -42.123  55.663 -56.287  1.00  0.00    -0.255 N 
HETATM    2  C   UNL     1     -42.377  57.023 -56.276  1.00  0.00     0.254 C 
HETATM    3  O   UNL     1     -42.527  57.697 -55.259  1.00  0.00    -0.270 OA
HETATM    4  H   UNL     1     -41.527  55.312 -57.044  1.00  0.00     0.191 HD
ENDROOT
BRANCH   1   5
HETATM    5  N   UNL     1     -41.985  55.029 -55.062  1.00  0.00    -0.167 N 
HETATM    6  C   UNL     1     -43.024  54.482 -54.363  1.00  0.00     0.345 C 
HETATM    7  N   UNL     1     -42.509  53.931 -53.206  1.00  0.00    -0.319 N 
HETATM    8  O   UNL     1     -44.208  54.465 -54.660  1.00  0.00    -0.245 OA
HETATM    9  C   UNL     1     -41.055  53.955 -53.186  1.00  0.00     0.141 C 
HETATM   10  H   UNL     1     -43.087  53.336 -52.630  1.00  0.00     0.166 HD
HETATM   11  C   UNL     1     -40.537  54.747 -51.980  1.00  0.00     0.055 C 
HETATM   12  C   UNL     1     -40.774  54.801 -54.453  1.00  0.00     0.279 C 
HETATM   13  O   UNL     1     -39.674  55.195 -54.825  1.00  0.00    -0.268 OA
BRANCH   9  14
HETATM   14  C   UNL     1     -40.528  52.523 -53.233  1.00  0.00    -0.021 A 
HETATM   15  C   UNL     1     -39.934  51.953 -52.088  1.00  0.00     0.010 A 
HETATM   16  C   UNL     1     -39.470  50.635 -52.090  1.00  0.00     0.001 A 
HETATM   17  C   UNL     1     -39.599  49.854 -53.233  1.00  0.00     0.000 A 
HETATM   18  C   UNL     1     -40.194  50.389 -54.371  1.00  0.00     0.001 A 
HETATM   19  C   UNL     1     -40.658  51.708 -54.371  1.00  0.00     0.010 A 
ENDBRANCH   9  14
ENDBRANCH   1   5
BRANCH   2  20
HETATM   20  C   UNL     1     -42.406  57.633 -57.676  1.00  0.00     0.227 C 
BRANCH  20  21
HETATM   21  N   UNL     1     -43.612  57.269 -58.395  1.00  0.00    -0.348 N 
HETATM   22  C   UNL     1     -44.474  58.242 -58.855  1.00  0.00     0.252 C 
HETATM   23  O   UNL     1     -44.304  59.427 -58.576  1.00  0.00    -0.268 OA
HETATM   24  H   UNL     1     -43.703  56.306 -58.685  1.00  0.00     0.163 HD
BRANCH  22  25
HETATM   25  C   UNL     1     -45.606  57.812 -59.730  1.00  0.00     0.033 A 
HETATM   26  C   UNL     1     -46.476  58.718 -60.349  1.00  0.00     0.036 A 
HETATM   27  C   UNL     1     -47.536  58.240 -61.123  1.00  0.00     0.012 A 
HETATM   28 BR   UNL     1     -48.725  59.467 -61.937  1.00  0.00    -0.051 Br
HETATM   29  C   UNL     1     -47.731  56.873 -61.303  1.00  0.00     0.019 A 
HETATM   30  C   UNL     1     -46.854  55.968 -60.708  1.00  0.00     0.002 A 
HETATM   31  C   UNL     1     -45.795  56.436 -59.925  1.00  0.00     0.017 A 
ENDBRANCH  22  25
ENDBRANCH  20  21
ENDBRANCH   2  20
TORSDOF 5
ENDMDL
MODEL 4
REMARK VINA RESULT:      -8.2      5.002      8.762
REMARK  5 active torsions:
REMARK  status: ('A' for Active; 'I' for Inactive)
REMARK    1  A    between atoms: C_2  and  C_3 
REMARK    2  A    between atoms: N_12  and  N_13 
REMARK       I    between atoms: N_13  and  C_14 
REMARK    3  A    between atoms: C_14  and  C_15 
REMARK    4  A    between atoms: C_15  and  N_16 
REMARK       I    between atoms: N_16  and  C_17 
REMARK    5  A    between atoms: C_17  and  C_18 
ROOT
HETATM    1  N   UNL     1     -43.631  57.242 -51.029  1.00  0.00    -0.255 N 
HETATM    2  C   UNL     1     -44.099  57.422 -52.319  1.00  0.00     0.254 C 
HETATM    3  O   UNL     1     -43.879  56.655 -53.254  1.00  0.00    -0.270 OA
HETATM    4  H   UNL     1     -44.237  57.570 -50.270  1.00  0.00     0.191 HD
ENDROOT
BRANCH   1   5
HETATM    5  N   UNL     1     -42.902  56.092 -50.770  1.00  0.00    -0.167 N 
HETATM    6  C   UNL     1     -43.449  54.926 -50.314  1.00  0.00     0.345 C 
HETATM    7  N   UNL     1     -42.428  54.004 -50.186  1.00  0.00    -0.319 N 
HETATM    8  O   UNL     1     -44.616  54.694 -50.046  1.00  0.00    -0.245 OA
HETATM    9  C   UNL     1     -41.171  54.498 -50.724  1.00  0.00     0.141 C 
HETATM   10  H   UNL     1     -42.645  53.032 -50.018  1.00  0.00     0.166 HD
HETATM   11  C   UNL     1     -40.084  54.522 -49.642  1.00  0.00     0.055 C 
HETATM   12  C   UNL     1     -41.557  55.968 -51.026  1.00  0.00     0.279 C 
HETATM   13  O   UNL     1     -40.794  56.847 -51.411  1.00  0.00    -0.268 OA
BRANCH   9  14
HETATM   14  C   UNL     1     -40.784  53.665 -51.944  1.00  0.00    -0.021 A 
HETATM   15  C   UNL     1     -39.974  52.522 -51.788  1.00  0.00     0.010 A 
HETATM   16  C   UNL     1     -39.628  51.722 -52.880  1.00  0.00     0.001 A 
HETATM   17  C   UNL     1     -40.092  52.042 -54.151  1.00  0.00     0.000 A 
HETATM   18  C   UNL     1     -40.904  53.158 -54.328  1.00  0.00     0.001 A 
HETATM   19  C   UNL     1     -41.251  53.960 -53.236  1.00  0.00     0.010 A 
ENDBRANCH   9  14
ENDBRANCH   1   5
BRANCH   2  20
HETATM   20  C   UNL     1     -44.975  58.664 -52.465  1.00  0.00     0.227 C 
BRANCH  20  21
HETATM   21  N   UNL     1     -44.694  59.644 -51.432  1.00  0.00    -0.348 N 
HETATM   22  C   UNL     1     -45.676  60.511 -51.005  1.00  0.00     0.252 C 
HETATM   23  O   UNL     1     -46.773  60.554 -51.557  1.00  0.00    -0.268 OA
HETATM   24  H   UNL     1     -43.821  59.551 -50.934  1.00  0.00     0.163 HD
BRANCH  22  25
HETATM   25  C   UNL     1     -45.373  61.380 -49.828  1.00  0.00     0.033 A 
HETATM   26  C   UNL     1     -45.306  60.890 -48.518  1.00  0.00     0.036 A 
HETATM   27  C   UNL     1     -45.054  61.771 -47.462  1.00  0.00     0.012 A 
HETATM   28 BR   UNL     1     -44.990  61.109 -45.691  1.00  0.00    -0.051 Br
HETATM   29  C   UNL     1     -44.850  63.129 -47.696  1.00  0.00     0.019 A 
HETATM   30  C   UNL     1     -44.892  63.617 -49.001  1.00  0.00     0.002 A 
HETATM   31  C   UNL     1     -45.151  62.745 -50.062  1.00  0.00     0.017 A 
ENDBRANCH  22  25
ENDBRANCH  20  21
ENDBRANCH   2  20
TORSDOF 5
ENDMDL
MODEL 5
REMARK VINA RESULT:      -8.2      7.150     10.043
REMARK  5 active torsions:
REMARK  status: ('A' for Active; 'I' for Inactive)
REMARK    1  A    between atoms: C_2  and  C_3 
REMARK    2  A    between atoms: N_12  and  N_13 
REMARK       I    between atoms: N_13  and  C_14 
REMARK    3  A    between atoms: C_14  and  C_15 
REMARK    4  A    between atoms: C_15  and  N_16 
REMARK       I    between atoms: N_16  and  C_17 
REMARK    5  A    between atoms: C_17  and  C_18 
ROOT
HETATM    1  N   UNL     1     -44.514  60.602 -48.904  1.00  0.00    -0.255 N 
HETATM    2  C   UNL     1     -45.169  60.524 -50.120  1.00  0.00     0.254 C 
HETATM    3  O   UNL     1     -46.326  60.891 -50.315  1.00  0.00    -0.270 OA
HETATM    4  H   UNL     1     -43.505  60.781 -48.936  1.00  0.00     0.191 HD
ENDROOT
BRANCH   1   5
HETATM    5  N   UNL     1     -45.199  61.176 -47.845  1.00  0.00    -0.167 N 
HETATM    6  C   UNL     1     -46.005  60.480 -46.988  1.00  0.00     0.345 C 
HETATM    7  N   UNL     1     -46.504  61.374 -46.060  1.00  0.00    -0.319 N 
HETATM    8  O   UNL     1     -46.273  59.290 -47.004  1.00  0.00    -0.245 OA
HETATM    9  C   UNL     1     -45.895  62.689 -46.182  1.00  0.00     0.141 C 
HETATM   10  H   UNL     1     -46.990  61.033 -45.243  1.00  0.00     0.166 HD
HETATM   11  C   UNL     1     -46.958  63.759 -46.462  1.00  0.00     0.055 C 
HETATM   12  C   UNL     1     -45.076  62.497 -47.483  1.00  0.00     0.279 C 
HETATM   13  O   UNL     1     -44.449  63.370 -48.074  1.00  0.00    -0.268 OA
BRANCH   9  14
HETATM   14  C   UNL     1     -45.069  62.978 -44.932  1.00  0.00    -0.021 A 
HETATM   15  C   UNL     1     -44.327  61.945 -44.323  1.00  0.00     0.010 A 
HETATM   16  C   UNL     1     -43.537  62.184 -43.196  1.00  0.00     0.001 A 
HETATM   17  C   UNL     1     -43.463  63.464 -42.657  1.00  0.00     0.000 A 
HETATM   18  C   UNL     1     -44.175  64.503 -43.248  1.00  0.00     0.001 A 
HETATM   19  C   UNL     1     -44.967  64.265 -44.376  1.00  0.00     0.010 A 
ENDBRANCH   9  14
ENDBRANCH   1   5
BRANCH   2  20
HETATM   20  C   UNL     1     -44.286  59.971 -51.236  1.00  0.00     0.227 C 
BRANCH  20  21
HETATM   21  N   UNL     1     -44.068  58.544 -51.093  1.00  0.00    -0.348 N 
HETATM   22  C   UNL     1     -42.853  57.984 -51.422  1.00  0.00     0.252 C 
HETATM   23  O   UNL     1     -41.965  58.652 -51.946  1.00  0.00    -0.268 OA
HETATM   24  H   UNL     1     -44.771  58.019 -50.592  1.00  0.00     0.163 HD
BRANCH  22  25
HETATM   25  C   UNL     1     -42.639  56.542 -51.095  1.00  0.00     0.033 A 
HETATM   26  C   UNL     1     -41.774  56.111 -50.082  1.00  0.00     0.036 A 
HETATM   27  C   UNL     1     -41.598  54.743 -49.858  1.00  0.00     0.012 A 
HETATM   28 BR   UNL     1     -40.409  54.165 -48.505  1.00  0.00    -0.051 Br
HETATM   29  C   UNL     1     -42.284  53.799 -50.619  1.00  0.00     0.019 A 
HETATM   30  C   UNL     1     -43.163  54.223 -51.613  1.00  0.00     0.002 A 
HETATM   31  C   UNL     1     -43.341  55.589 -51.850  1.00  0.00     0.017 A 
ENDBRANCH  22  25
ENDBRANCH  20  21
ENDBRANCH   2  20
TORSDOF 5
ENDMDL
MODEL 6
REMARK VINA RESULT:      -8.1      2.965      4.053
REMARK  5 active torsions:
REMARK  status: ('A' for Active; 'I' for Inactive)
REMARK    1  A    between atoms: C_2  and  C_3 
REMARK    2  A    between atoms: N_12  and  N_13 
REMARK       I    between atoms: N_13  and  C_14 
REMARK    3  A    between atoms: C_14  and  C_15 
REMARK    4  A    between atoms: C_15  and  N_16 
REMARK       I    between atoms: N_16  and  C_17 
REMARK    5  A    between atoms: C_17  and  C_18 
ROOT
HETATM    1  N   UNL     1     -44.086  56.914 -55.686  1.00  0.00    -0.255 N 
HETATM    2  C   UNL     1     -43.072  57.389 -54.874  1.00  0.00     0.254 C 
HETATM    3  O   UNL     1     -42.105  58.036 -55.271  1.00  0.00    -0.270 OA
HETATM    4  H   UNL     1     -45.025  56.875 -55.275  1.00  0.00     0.191 HD
ENDROOT
BRANCH   1   5
HETATM    5  N   UNL     1     -44.026  57.233 -57.034  1.00  0.00    -0.167 N 
HETATM    6  C   UNL     1     -43.398  56.465 -57.974  1.00  0.00     0.345 C 
HETATM    7  N   UNL     1     -43.556  57.085 -59.198  1.00  0.00    -0.319 N 
HETATM    8  O   UNL     1     -42.787  55.421 -57.810  1.00  0.00    -0.245 OA
HETATM    9  C   UNL     1     -44.458  58.223 -59.125  1.00  0.00     0.141 C 
HETATM   10  H   UNL     1     -43.306  56.597 -60.047  1.00  0.00     0.166 HD
HETATM   11  C   UNL     1     -43.751  59.510 -59.566  1.00  0.00     0.055 C 
HETATM   12  C   UNL     1     -44.669  58.312 -57.592  1.00  0.00     0.279 C 
HETATM   13  O   UNL     1     -45.288  59.190 -57.001  1.00  0.00    -0.268 OA
BRANCH   9  14
HETATM   14  C   UNL     1     -45.715  57.921 -59.936  1.00  0.00    -0.021 A 
HETATM   15  C   UNL     1     -46.491  58.979 -60.454  1.00  0.00     0.010 A 
HETATM   16  C   UNL     1     -47.629  58.735 -61.226  1.00  0.00     0.001 A 
HETATM   17  C   UNL     1     -48.013  57.429 -61.506  1.00  0.00     0.000 A 
HETATM   18  C   UNL     1     -47.257  56.368 -61.018  1.00  0.00     0.001 A 
HETATM   19  C   UNL     1     -46.117  56.610 -60.244  1.00  0.00     0.010 A 
ENDBRANCH   9  14
ENDBRANCH   1   5
BRANCH   2  20
HETATM   20  C   UNL     1     -43.293  57.067 -53.398  1.00  0.00     0.227 C 
BRANCH  20  21
HETATM   21  N   UNL     1     -42.383  56.039 -52.929  1.00  0.00    -0.348 N 
HETATM   22  C   UNL     1     -42.574  54.721 -53.284  1.00  0.00     0.252 C 
HETATM   23  O   UNL     1     -43.571  54.367 -53.909  1.00  0.00    -0.268 OA
HETATM   24  H   UNL     1     -41.530  56.347 -52.485  1.00  0.00     0.163 HD
BRANCH  22  25
HETATM   25  C   UNL     1     -41.512  53.739 -52.908  1.00  0.00     0.033 A 
HETATM   26  C   UNL     1     -41.169  52.644 -53.711  1.00  0.00     0.036 A 
HETATM   27  C   UNL     1     -40.191  51.747 -53.276  1.00  0.00     0.012 A 
HETATM   28 BR   UNL     1     -39.749  50.254 -54.352  1.00  0.00    -0.051 Br
HETATM   29  C   UNL     1     -39.538  51.934 -52.060  1.00  0.00     0.019 A 
HETATM   30  C   UNL     1     -39.858  53.036 -51.269  1.00  0.00     0.002 A 
HETATM   31  C   UNL     1     -40.841  53.935 -51.692  1.00  0.00     0.017 A 
ENDBRANCH  22  25
ENDBRANCH  20  21
ENDBRANCH   2  20
TORSDOF 5
ENDMDL
MODEL 7
REMARK VINA RESULT:      -8.1      6.248      8.831
REMARK  5 active torsions:
REMARK  status: ('A' for Active; 'I' for Inactive)
REMARK    1  A    between atoms: C_2  and  C_3 
REMARK    2  A    between atoms: N_12  and  N_13 
REMARK       I    between atoms: N_13  and  C_14 
REMARK    3  A    between atoms: C_14  and  C_15 
REMARK    4  A    between atoms: C_15  and  N_16 
REMARK       I    between atoms: N_16  and  C_17 
REMARK    5  A    between atoms: C_17  and  C_18 
ROOT
HETATM    1  N   UNL     1     -43.851  58.108 -50.726  1.00  0.00    -0.255 N 
HETATM    2  C   UNL     1     -44.429  59.365 -50.706  1.00  0.00     0.254 C 
HETATM    3  O   UNL     1     -44.122  60.287 -51.459  1.00  0.00    -0.270 OA
HETATM    4  H   UNL     1     -44.458  57.318 -50.486  1.00  0.00     0.191 HD
ENDROOT
BRANCH   1   5
HETATM    5  N   UNL     1     -42.890  57.863 -51.695  1.00  0.00    -0.167 N 
HETATM    6  C   UNL     1     -41.562  58.144 -51.543  1.00  0.00     0.345 C 
HETATM    7  N   UNL     1     -40.914  57.755 -52.699  1.00  0.00    -0.319 N 
HETATM    8  O   UNL     1     -41.003  58.655 -50.586  1.00  0.00    -0.245 OA
HETATM    9  C   UNL     1     -41.795  57.034 -53.606  1.00  0.00     0.141 C 
HETATM   10  H   UNL     1     -39.905  57.727 -52.727  1.00  0.00     0.166 HD
HETATM   11  C   UNL     1     -41.888  57.748 -54.959  1.00  0.00     0.055 C 
HETATM   12  C   UNL     1     -43.153  57.227 -52.885  1.00  0.00     0.279 C 
HETATM   13  O   UNL     1     -44.249  56.880 -53.312  1.00  0.00    -0.268 OA
BRANCH   9  14
HETATM   14  C   UNL     1     -41.321  55.588 -53.723  1.00  0.00    -0.021 A 
HETATM   15  C   UNL     1     -40.654  55.157 -54.888  1.00  0.00     0.010 A 
HETATM   16  C   UNL     1     -40.181  53.848 -55.012  1.00  0.00     0.001 A 
HETATM   17  C   UNL     1     -40.357  52.943 -53.971  1.00  0.00     0.000 A 
HETATM   18  C   UNL     1     -41.001  53.348 -52.806  1.00  0.00     0.001 A 
HETATM   19  C   UNL     1     -41.474  54.658 -52.680  1.00  0.00     0.010 A 
ENDBRANCH   9  14
ENDBRANCH   1   5
BRANCH   2  20
HETATM   20  C   UNL     1     -45.543  59.490 -49.668  1.00  0.00     0.227 C 
BRANCH  20  21
HETATM   21  N   UNL     1     -45.375  60.668 -48.839  1.00  0.00    -0.348 N 
HETATM   22  C   UNL     1     -45.780  60.659 -47.521  1.00  0.00     0.252 C 
HETATM   23  O   UNL     1     -46.388  59.703 -47.048  1.00  0.00    -0.268 OA
HETATM   24  H   UNL     1     -44.808  61.416 -49.211  1.00  0.00     0.163 HD
BRANCH  22  25
HETATM   25  C   UNL     1     -45.429  61.842 -46.678  1.00  0.00     0.033 A 
HETATM   26  C   UNL     1     -44.853  61.726 -45.407  1.00  0.00     0.036 A 
HETATM   27  C   UNL     1     -44.587  62.878 -44.661  1.00  0.00     0.012 A 
HETATM   28 BR   UNL     1     -43.832  62.716 -42.934  1.00  0.00    -0.051 Br
HETATM   29  C   UNL     1     -44.871  64.142 -45.171  1.00  0.00     0.019 A 
HETATM   30  C   UNL     1     -45.422  64.263 -46.445  1.00  0.00     0.002 A 
HETATM   31  C   UNL     1     -45.699  63.118 -47.196  1.00  0.00     0.017 A 
ENDBRANCH  22  25
ENDBRANCH  20  21
ENDBRANCH   2  20
TORSDOF 5
ENDMDL
MODEL 8
REMARK VINA RESULT:      -8.0      1.774      2.492
REMARK  5 active torsions:
REMARK  status: ('A' for Active; 'I' for Inactive)
REMARK    1  A    between atoms: C_2  and  C_3 
REMARK    2  A    between atoms: N_12  and  N_13 
REMARK       I    between atoms: N_13  and  C_14 
REMARK    3  A    between atoms: C_14  and  C_15 
REMARK    4  A    between atoms: C_15  and  N_16 
REMARK       I    between atoms: N_16  and  C_17 
REMARK    5  A    between atoms: C_17  and  C_18 
ROOT
HETATM    1  N   UNL     1     -42.057  57.827 -54.274  1.00  0.00    -0.255 N 
HETATM    2  C   UNL     1     -42.382  58.311 -53.019  1.00  0.00     0.254 C 
HETATM    3  O   UNL     1     -43.309  59.084 -52.788  1.00  0.00    -0.270 OA
HETATM    4  H   UNL     1     -41.681  56.873 -54.316  1.00  0.00     0.191 HD
ENDROOT
BRANCH   1   5
HETATM    5  N   UNL     1     -42.864  58.208 -55.334  1.00  0.00    -0.167 N 
HETATM    6  C   UNL     1     -42.551  59.207 -56.212  1.00  0.00     0.345 C 
HETATM    7  N   UNL     1     -43.575  59.293 -57.134  1.00  0.00    -0.319 N 
HETATM    8  O   UNL     1     -41.564  59.925 -56.218  1.00  0.00    -0.245 OA
HETATM    9  C   UNL     1     -44.541  58.216 -56.985  1.00  0.00     0.141 C 
HETATM   10  H   UNL     1     -43.461  59.859 -57.964  1.00  0.00     0.166 HD
HETATM   11  C   UNL     1     -45.942  58.773 -56.705  1.00  0.00     0.055 C 
HETATM   12  C   UNL     1     -44.031  57.566 -55.675  1.00  0.00     0.279 C 
HETATM   13  O   UNL     1     -44.579  56.656 -55.063  1.00  0.00    -0.268 OA
BRANCH   9  14
HETATM   14  C   UNL     1     -44.488  57.319 -58.219  1.00  0.00    -0.021 A 
HETATM   15  C   UNL     1     -45.561  57.316 -59.134  1.00  0.00     0.010 A 
HETATM   16  C   UNL     1     -45.529  56.529 -60.288  1.00  0.00     0.001 A 
HETATM   17  C   UNL     1     -44.420  55.734 -60.558  1.00  0.00     0.000 A 
HETATM   18  C   UNL     1     -43.343  55.730 -59.676  1.00  0.00     0.001 A 
HETATM   19  C   UNL     1     -43.374  56.517 -58.520  1.00  0.00     0.010 A 
ENDBRANCH   9  14
ENDBRANCH   1   5
BRANCH   2  20
HETATM   20  C   UNL     1     -41.492  57.745 -51.915  1.00  0.00     0.227 C 
BRANCH  20  21
HETATM   21  N   UNL     1     -40.895  56.480 -52.301  1.00  0.00    -0.348 N 
HETATM   22  C   UNL     1     -41.406  55.291 -51.827  1.00  0.00     0.252 C 
HETATM   23  O   UNL     1     -42.301  55.273 -50.986  1.00  0.00    -0.268 OA
HETATM   24  H   UNL     1     -40.215  56.501 -53.047  1.00  0.00     0.163 HD
BRANCH  22  25
HETATM   25  C   UNL     1     -40.854  54.023 -52.391  1.00  0.00     0.033 A 
HETATM   26  C   UNL     1     -40.519  52.919 -51.597  1.00  0.00     0.036 A 
HETATM   27  C   UNL     1     -39.972  51.779 -52.192  1.00  0.00     0.012 A 
HETATM   28 BR   UNL     1     -39.496  50.300 -51.112  1.00  0.00    -0.051 Br
HETATM   29  C   UNL     1     -39.770  51.717 -53.569  1.00  0.00     0.019 A 
HETATM   30  C   UNL     1     -40.124  52.804 -54.366  1.00  0.00     0.002 A 
HETATM   31  C   UNL     1     -40.665  53.952 -53.779  1.00  0.00     0.017 A 
ENDBRANCH  22  25
ENDBRANCH  20  21
ENDBRANCH   2  20
TORSDOF 5
ENDMDL
MODEL 9
REMARK VINA RESULT:      -7.9      4.597      8.159
REMARK  5 active torsions:
REMARK  status: ('A' for Active; 'I' for Inactive)
REMARK    1  A    between atoms: C_2  and  C_3 
REMARK    2  A    between atoms: N_12  and  N_13 
REMARK       I    between atoms: N_13  and  C_14 
REMARK    3  A    between atoms: C_14  and  C_15 
REMARK    4  A    between atoms: C_15  and  N_16 
REMARK       I    between atoms: N_16  and  C_17 
REMARK    5  A    between atoms: C_17  and  C_18 
ROOT
HETATM    1  N   UNL     1     -43.109  58.247 -52.732  1.00  0.00    -0.255 N 
HETATM    2  C   UNL     1     -42.030  58.712 -53.463  1.00  0.00     0.254 C 
HETATM    3  O   UNL     1     -41.214  57.994 -54.036  1.00  0.00    -0.270 OA
HETATM    4  H   UNL     1     -43.959  58.821 -52.749  1.00  0.00     0.191 HD
ENDROOT
BRANCH   1   5
HETATM    5  N   UNL     1     -43.303  56.876 -52.683  1.00  0.00    -0.167 N 
HETATM    6  C   UNL     1     -43.987  56.166 -53.629  1.00  0.00     0.345 C 
HETATM    7  N   UNL     1     -43.964  54.836 -53.257  1.00  0.00    -0.319 N 
HETATM    8  O   UNL     1     -44.542  56.586 -54.632  1.00  0.00    -0.245 OA
HETATM    9  C   UNL     1     -43.100  54.602 -52.111  1.00  0.00     0.141 C 
HETATM   10  H   UNL     1     -44.273  54.125 -53.905  1.00  0.00     0.166 HD
HETATM   11  C   UNL     1     -43.890  53.992 -50.947  1.00  0.00     0.055 C 
HETATM   12  C   UNL     1     -42.753  56.061 -51.722  1.00  0.00     0.279 C 
HETATM   13  O   UNL     1     -42.115  56.409 -50.734  1.00  0.00    -0.268 OA
BRANCH   9  14
HETATM   14  C   UNL     1     -41.913  53.745 -52.543  1.00  0.00    -0.021 A 
HETATM   15  C   UNL     1     -41.007  53.258 -51.578  1.00  0.00     0.010 A 
HETATM   16  C   UNL     1     -39.928  52.447 -51.938  1.00  0.00     0.001 A 
HETATM   17  C   UNL     1     -39.735  52.097 -53.270  1.00  0.00     0.000 A 
HETATM   18  C   UNL     1     -40.623  52.554 -54.239  1.00  0.00     0.001 A 
HETATM   19  C   UNL     1     -41.704  53.367 -53.880  1.00  0.00     0.010 A 
ENDBRANCH   9  14
ENDBRANCH   1   5
BRANCH   2  20
HETATM   20  C   UNL     1     -41.974  60.237 -53.534  1.00  0.00     0.227 C 
BRANCH  20  21
HETATM   21  N   UNL     1     -42.778  60.853 -52.496  1.00  0.00    -0.348 N 
HETATM   22  C   UNL     1     -42.349  60.855 -51.186  1.00  0.00     0.252 C 
HETATM   23  O   UNL     1     -41.338  60.244 -50.846  1.00  0.00    -0.268 OA
HETATM   24  H   UNL     1     -43.562  61.415 -52.794  1.00  0.00     0.163 HD
BRANCH  22  25
HETATM   25  C   UNL     1     -43.138  61.648 -50.196  1.00  0.00     0.033 A 
HETATM   26  C   UNL     1     -43.978  61.057 -49.244  1.00  0.00     0.036 A 
HETATM   27  C   UNL     1     -44.715  61.865 -48.374  1.00  0.00     0.012 A 
HETATM   28 BR   UNL     1     -45.868  61.064 -47.107  1.00  0.00    -0.051 Br
HETATM   29  C   UNL     1     -44.613  63.254 -48.429  1.00  0.00     0.019 A 
HETATM   30  C   UNL     1     -43.760  63.846 -49.359  1.00  0.00     0.002 A 
HETATM   31  C   UNL     1     -43.025  63.046 -50.238  1.00  0.00     0.017 A 
ENDBRANCH  22  25
ENDBRANCH  20  21
ENDBRANCH   2  20
TORSDOF 5
ENDMDL
MODEL 10
REMARK VINA RESULT:      -7.9     15.735     18.315
REMARK  5 active torsions:
REMARK  status: ('A' for Active; 'I' for Inactive)
REMARK    1  A    between atoms: C_2  and  C_3 
REMARK    2  A    between atoms: N_12  and  N_13 
REMARK       I    between atoms: N_13  and  C_14 
REMARK    3  A    between atoms: C_14  and  C_15 
REMARK    4  A    between atoms: C_15  and  N_16 
REMARK       I    between atoms: N_16  and  C_17 
REMARK    5  A    between atoms: C_17  and  C_18 
ROOT
HETATM    1  N   UNL     1     -36.174  40.811 -55.154  1.00  0.00    -0.255 N 
HETATM    2  C   UNL     1     -35.007  41.103 -55.837  1.00  0.00     0.254 C 
HETATM    3  O   UNL     1     -33.875  40.963 -55.377  1.00  0.00    -0.270 OA
HETATM    4  H   UNL     1     -36.959  40.460 -55.714  1.00  0.00     0.191 HD
ENDROOT
BRANCH   1   5
HETATM    5  N   UNL     1     -36.052  40.281 -53.879  1.00  0.00    -0.167 N 
HETATM    6  C   UNL     1     -36.060  38.943 -53.603  1.00  0.00     0.345 C 
HETATM    7  N   UNL     1     -35.904  38.794 -52.239  1.00  0.00    -0.319 N 
HETATM    8  O   UNL     1     -36.187  38.013 -54.383  1.00  0.00    -0.245 OA
HETATM    9  C   UNL     1     -35.616  40.056 -51.578  1.00  0.00     0.141 C 
HETATM   10  H   UNL     1     -35.720  37.880 -51.849  1.00  0.00     0.166 HD
HETATM   11  C   UNL     1     -36.681  40.376 -50.522  1.00  0.00     0.055 C 
HETATM   12  C   UNL     1     -35.821  41.040 -52.757  1.00  0.00     0.279 C 
HETATM   13  O   UNL     1     -35.789  42.264 -52.686  1.00  0.00    -0.268 OA
BRANCH   9  14
HETATM   14  C   UNL     1     -34.201  40.013 -51.007  1.00  0.00    -0.021 A 
HETATM   15  C   UNL     1     -33.982  39.527 -49.701  1.00  0.00     0.010 A 
HETATM   16  C   UNL     1     -32.696  39.447 -49.162  1.00  0.00     0.001 A 
HETATM   17  C   UNL     1     -31.598  39.842 -49.919  1.00  0.00     0.000 A 
HETATM   18  C   UNL     1     -31.787  40.313 -51.214  1.00  0.00     0.001 A 
HETATM   19  C   UNL     1     -33.074  40.395 -51.756  1.00  0.00     0.010 A 
ENDBRANCH   9  14
ENDBRANCH   1   5
BRANCH   2  20
HETATM   20  C   UNL     1     -35.258  41.582 -57.265  1.00  0.00     0.227 C 
BRANCH  20  21
HETATM   21  N   UNL     1     -36.029  40.618 -58.028  1.00  0.00    -0.348 N 
HETATM   22  C   UNL     1     -36.930  41.040 -58.981  1.00  0.00     0.252 C 
HETATM   23  O   UNL     1     -37.186  42.232 -59.133  1.00  0.00    -0.268 OA
HETATM   24  H   UNL     1     -35.758  39.648 -57.951  1.00  0.00     0.163 HD
BRANCH  22  25
HETATM   25  C   UNL     1     -37.568  40.000 -59.844  1.00  0.00     0.033 A 
HETATM   26  C   UNL     1     -37.086  39.667 -61.116  1.00  0.00     0.036 A 
HETATM   27  C   UNL     1     -37.757  38.709 -61.881  1.00  0.00     0.012 A 
HETATM   28 BR   UNL     1     -37.118  38.280 -63.609  1.00  0.00    -0.051 Br
HETATM   29  C   UNL     1     -38.891  38.066 -61.389  1.00  0.00     0.019 A 
HETATM   30  C   UNL     1     -39.360  38.377 -60.114  1.00  0.00     0.002 A 
HETATM   31  C   UNL     1     -38.701  39.340 -59.344  1.00  0.00     0.017 A 
ENDBRANCH  22  25
ENDBRANCH  20  21
ENDBRANCH   2  20
TORSDOF 5
ENDMDL
