MODEL 1
REMARK VINA RESULT:      -8.0      0.000      0.000
REMARK  4 active torsions:
REMARK  status: ('A' for Active; 'I' for Inactive)
REMARK    1  A    between atoms: C_4  and  C_5 
REMARK    2  A    between atoms: C_7  and  N_8 
REMARK       I    between atoms: N_8  and  C_9 
REMARK    3  A    between atoms: C_9  and  C_10 
REMARK    4  A    between atoms: C_10  and  C_11 
ROOT
HETATM    1  C   UNL     1     -40.797  54.206 -53.404  1.00  0.00     0.019 A 
HETATM    2  C   UNL     1     -41.083  54.592 -54.726  1.00  0.00     0.045 A 
HETATM    3  C   UNL     1     -41.517  55.889 -55.020  1.00  0.00     0.035 A 
HETATM    4  C   UNL     1     -41.665  56.809 -53.973  1.00  0.00     0.029 A 
HETATM    5  C   UNL     1     -41.380  56.443 -52.658  1.00  0.00     0.003 A 
HETATM    6  C   UNL     1     -40.951  55.148 -52.377  1.00  0.00     0.016 A 
ENDROOT
BRANCH   3   7
HETATM    7  N   UNL     1     -41.828  56.350 -56.318  1.00  0.00    -0.327 N 
HETATM    8  C   UNL     1     -43.052  56.806 -56.791  1.00  0.00     0.227 C 
HETATM    9  O   UNL     1     -44.098  56.853 -56.147  1.00  0.00    -0.273 OA
HETATM   10  H   UNL     1     -41.063  56.331 -56.981  1.00  0.00     0.169 HD
BRANCH   8  11
HETATM   11  C   UNL     1     -42.985  57.195 -58.272  1.00  0.00     0.159 C 
BRANCH  11  12
HETATM   12  C   UNL     1     -43.758  56.288 -59.181  1.00  0.00     0.017 A 
HETATM   13  N   UNL     1     -44.166  55.024 -58.812  1.00  0.00    -0.369 N 
HETATM   14  H   UNL     1     -44.015  54.620 -57.892  1.00  0.00     0.165 HD
HETATM   15  C   UNL     1     -44.821  54.426 -59.855  1.00  0.00     0.088 A 
HETATM   16  C   UNL     1     -44.837  55.308 -60.910  1.00  0.00     0.019 A 
HETATM   17  C   UNL     1     -44.167  56.481 -60.488  1.00  0.00     0.027 A 
ENDBRANCH  11  12
ENDBRANCH   8  11
ENDBRANCH   3   7
BRANCH   1  18
HETATM   18  C   UNL     1     -40.351  52.855 -53.068  1.00  0.00     0.180 A 
HETATM   19  N   UNL     1     -40.106  52.332 -51.880  1.00  0.00    -0.226 NA
HETATM   20  C   UNL     1     -39.723  51.038 -52.151  1.00  0.00     0.063 A 
HETATM   21  C   UNL     1     -39.368  50.102 -51.065  1.00  0.00     0.073 C 
HETATM   22  C   UNL     1     -39.743  50.828 -53.513  1.00  0.00     0.076 A 
HETATM   23  O   UNL     1     -40.149  51.988 -54.110  1.00  0.00    -0.294 OA
HETATM   24  C   UNL     1     -39.444  49.686 -54.392  1.00  0.00     0.079 C 
ENDBRANCH   1  18
TORSDOF 4
ENDMDL
MODEL 2
REMARK VINA RESULT:      -7.5      2.578      3.509
REMARK  4 active torsions:
REMARK  status: ('A' for Active; 'I' for Inactive)
REMARK    1  A    between atoms: C_4  and  C_5 
REMARK    2  A    between atoms: C_7  and  N_8 
REMARK       I    between atoms: N_8  and  C_9 
REMARK    3  A    between atoms: C_9  and  C_10 
REMARK    4  A    between atoms: C_10  and  C_11 
ROOT
HETATM    1  C   UNL     1     -40.770  54.464 -51.836  1.00  0.00     0.019 A 
HETATM    2  C   UNL     1     -41.223  55.417 -52.766  1.00  0.00     0.045 A 
HETATM    3  C   UNL     1     -41.595  56.702 -52.358  1.00  0.00     0.035 A 
HETATM    4  C   UNL     1     -41.510  57.034 -50.999  1.00  0.00     0.029 A 
HETATM    5  C   UNL     1     -41.058  56.102 -50.065  1.00  0.00     0.003 A 
HETATM    6  C   UNL     1     -40.693  54.825 -50.482  1.00  0.00     0.016 A 
ENDROOT
BRANCH   3   7
HETATM    7  N   UNL     1     -42.062  57.710 -53.229  1.00  0.00    -0.327 N 
HETATM    8  C   UNL     1     -41.374  58.825 -53.691  1.00  0.00     0.227 C 
HETATM    9  O   UNL     1     -40.226  59.139 -53.383  1.00  0.00    -0.273 OA
HETATM   10  H   UNL     1     -43.020  57.607 -53.539  1.00  0.00     0.169 HD
BRANCH   8  11
HETATM   11  C   UNL     1     -42.244  59.697 -54.604  1.00  0.00     0.159 C 
BRANCH  11  12
HETATM   12  C   UNL     1     -42.183  59.320 -56.054  1.00  0.00     0.017 A 
HETATM   13  N   UNL     1     -42.466  58.051 -56.513  1.00  0.00    -0.369 N 
HETATM   14  H   UNL     1     -42.776  57.285 -55.921  1.00  0.00     0.165 HD
HETATM   15  C   UNL     1     -42.296  58.002 -57.870  1.00  0.00     0.088 A 
HETATM   16  C   UNL     1     -41.897  59.247 -58.295  1.00  0.00     0.019 A 
HETATM   17  C   UNL     1     -41.824  60.078 -57.153  1.00  0.00     0.027 A 
ENDBRANCH  11  12
ENDBRANCH   8  11
ENDBRANCH   3   7
BRANCH   1  18
HETATM   18  C   UNL     1     -40.385  53.111 -52.234  1.00  0.00     0.180 A 
HETATM   19  N   UNL     1     -40.312  52.590 -53.445  1.00  0.00    -0.226 NA
HETATM   20  C   UNL     1     -39.897  51.295 -53.234  1.00  0.00     0.063 A 
HETATM   21  C   UNL     1     -39.681  50.367 -54.363  1.00  0.00     0.073 C 
HETATM   22  C   UNL     1     -39.744  51.076 -51.882  1.00  0.00     0.076 A 
HETATM   23  O   UNL     1     -40.051  52.237 -51.232  1.00  0.00    -0.294 OA
HETATM   24  C   UNL     1     -39.338  49.928 -51.056  1.00  0.00     0.079 C 
ENDBRANCH   1  18
TORSDOF 4
ENDMDL
MODEL 3
REMARK VINA RESULT:      -7.4      1.522      1.896
REMARK  4 active torsions:
REMARK  status: ('A' for Active; 'I' for Inactive)
REMARK    1  A    between atoms: C_4  and  C_5 
REMARK    2  A    between atoms: C_7  and  N_8 
REMARK       I    between atoms: N_8  and  C_9 
REMARK    3  A    between atoms: C_9  and  C_10 
REMARK    4  A    between atoms: C_10  and  C_11 
ROOT
HETATM    1  C   UNL     1     -42.073  54.116 -53.484  1.00  0.00     0.019 A 
HETATM    2  C   UNL     1     -42.569  54.639 -54.692  1.00  0.00     0.045 A 
HETATM    3  C   UNL     1     -43.378  55.780 -54.706  1.00  0.00     0.035 A 
HETATM    4  C   UNL     1     -43.694  56.402 -53.491  1.00  0.00     0.029 A 
HETATM    5  C   UNL     1     -43.208  55.899 -52.285  1.00  0.00     0.003 A 
HETATM    6  C   UNL     1     -42.404  54.762 -52.283  1.00  0.00     0.016 A 
ENDROOT
BRANCH   3   7
HETATM    7  N   UNL     1     -43.916  56.360 -55.875  1.00  0.00    -0.327 N 
HETATM    8  C   UNL     1     -43.288  57.220 -56.767  1.00  0.00     0.227 C 
HETATM    9  O   UNL     1     -42.141  57.650 -56.663  1.00  0.00    -0.273 OA
HETATM   10  H   UNL     1     -44.881  56.127 -56.072  1.00  0.00     0.169 HD
BRANCH   8  11
HETATM   11  C   UNL     1     -44.224  57.652 -57.902  1.00  0.00     0.159 C 
BRANCH  11  12
HETATM   12  C   UNL     1     -44.505  56.577 -58.909  1.00  0.00     0.017 A 
HETATM   13  N   UNL     1     -45.756  56.353 -59.440  1.00  0.00    -0.369 N 
HETATM   14  H   UNL     1     -46.576  56.916 -59.229  1.00  0.00     0.165 HD
HETATM   15  C   UNL     1     -45.710  55.292 -60.304  1.00  0.00     0.088 A 
HETATM   16  C   UNL     1     -44.418  54.822 -60.331  1.00  0.00     0.019 A 
HETATM   17  C   UNL     1     -43.657  55.629 -59.453  1.00  0.00     0.027 A 
ENDBRANCH  11  12
ENDBRANCH   8  11
ENDBRANCH   3   7
BRANCH   1  18
HETATM   18  C   UNL     1     -41.233  52.921 -53.440  1.00  0.00     0.180 A 
HETATM   19  N   UNL     1     -40.940  52.075 -54.412  1.00  0.00    -0.226 NA
HETATM   20  C   UNL     1     -40.115  51.148 -53.818  1.00  0.00     0.063 A 
HETATM   21  C   UNL     1     -39.551  50.020 -54.588  1.00  0.00     0.073 C 
HETATM   22  C   UNL     1     -39.947  51.467 -52.487  1.00  0.00     0.076 A 
HETATM   23  O   UNL     1     -40.658  52.606 -52.237  1.00  0.00    -0.294 OA
HETATM   24  C   UNL     1     -39.204  50.875 -51.364  1.00  0.00     0.079 C 
ENDBRANCH   1  18
TORSDOF 4
ENDMDL
MODEL 4
REMARK VINA RESULT:      -7.4      3.549      5.800
REMARK  4 active torsions:
REMARK  status: ('A' for Active; 'I' for Inactive)
REMARK    1  A    between atoms: C_4  and  C_5 
REMARK    2  A    between atoms: C_7  and  N_8 
REMARK       I    between atoms: N_8  and  C_9 
REMARK    3  A    between atoms: C_9  and  C_10 
REMARK    4  A    between atoms: C_10  and  C_11 
ROOT
HETATM    1  C   UNL     1     -40.817  54.350 -53.492  1.00  0.00     0.019 A 
HETATM    2  C   UNL     1     -40.889  55.358 -52.513  1.00  0.00     0.045 A 
HETATM    3  C   UNL     1     -41.292  56.656 -52.842  1.00  0.00     0.035 A 
HETATM    4  C   UNL     1     -41.627  56.945 -54.172  1.00  0.00     0.029 A 
HETATM    5  C   UNL     1     -41.566  55.956 -55.154  1.00  0.00     0.003 A 
HETATM    6  C   UNL     1     -41.161  54.668 -54.814  1.00  0.00     0.016 A 
ENDROOT
BRANCH   3   7
HETATM    7  N   UNL     1     -41.385  57.720 -51.919  1.00  0.00    -0.327 N 
HETATM    8  C   UNL     1     -40.591  58.858 -51.847  1.00  0.00     0.227 C 
HETATM    9  O   UNL     1     -39.635  59.113 -52.574  1.00  0.00    -0.273 OA
HETATM   10  H   UNL     1     -42.113  57.628 -51.222  1.00  0.00     0.169 HD
BRANCH   8  11
HETATM   11  C   UNL     1     -40.998  59.766 -50.680  1.00  0.00     0.159 C 
BRANCH  11  12
HETATM   12  C   UNL     1     -42.357  60.382 -50.827  1.00  0.00     0.017 A 
HETATM   13  N   UNL     1     -43.305  60.360 -49.827  1.00  0.00    -0.369 N 
HETATM   14  H   UNL     1     -43.151  59.965 -48.902  1.00  0.00     0.165 HD
HETATM   15  C   UNL     1     -44.450  60.970 -50.260  1.00  0.00     0.088 A 
HETATM   16  C   UNL     1     -44.246  61.389 -51.554  1.00  0.00     0.019 A 
HETATM   17  C   UNL     1     -42.928  61.020 -51.913  1.00  0.00     0.027 A 
ENDBRANCH  11  12
ENDBRANCH   8  11
ENDBRANCH   3   7
BRANCH   1  18
HETATM   18  C   UNL     1     -40.390  52.988 -53.176  1.00  0.00     0.180 A 
HETATM   19  N   UNL     1     -40.121  52.454 -51.999  1.00  0.00    -0.226 NA
HETATM   20  C   UNL     1     -39.774  51.153 -52.287  1.00  0.00     0.063 A 
HETATM   21  C   UNL     1     -39.406  50.204 -51.217  1.00  0.00     0.073 C 
HETATM   22  C   UNL     1     -39.838  50.952 -53.649  1.00  0.00     0.076 A 
HETATM   23  O   UNL     1     -40.236  52.123 -54.228  1.00  0.00    -0.294 OA
HETATM   24  C   UNL     1     -39.588  49.809 -54.542  1.00  0.00     0.079 C 
ENDBRANCH   1  18
TORSDOF 4
ENDMDL
MODEL 5
REMARK VINA RESULT:      -7.1      1.594      7.400
REMARK  4 active torsions:
REMARK  status: ('A' for Active; 'I' for Inactive)
REMARK    1  A    between atoms: C_4  and  C_5 
REMARK    2  A    between atoms: C_7  and  N_8 
REMARK       I    between atoms: N_8  and  C_9 
REMARK    3  A    between atoms: C_9  and  C_10 
REMARK    4  A    between atoms: C_10  and  C_11 
ROOT
HETATM    1  C   UNL     1     -42.291  57.030 -55.909  1.00  0.00     0.019 A 
HETATM    2  C   UNL     1     -41.713  55.920 -55.266  1.00  0.00     0.045 A 
HETATM    3  C   UNL     1     -41.125  56.043 -54.003  1.00  0.00     0.035 A 
HETATM    4  C   UNL     1     -41.117  57.298 -53.379  1.00  0.00     0.029 A 
HETATM    5  C   UNL     1     -41.690  58.407 -54.001  1.00  0.00     0.003 A 
HETATM    6  C   UNL     1     -42.271  58.272 -55.259  1.00  0.00     0.016 A 
ENDROOT
BRANCH   3   7
HETATM    7  N   UNL     1     -40.523  54.980 -53.298  1.00  0.00    -0.327 N 
HETATM    8  C   UNL     1     -41.149  53.920 -52.653  1.00  0.00     0.227 C 
HETATM    9  O   UNL     1     -42.363  53.751 -52.564  1.00  0.00    -0.273 OA
HETATM   10  H   UNL     1     -39.512  55.007 -53.249  1.00  0.00     0.169 HD
BRANCH   8  11
HETATM   11  C   UNL     1     -40.141  52.983 -51.978  1.00  0.00     0.159 C 
BRANCH  11  12
HETATM   12  C   UNL     1     -39.965  51.667 -52.672  1.00  0.00     0.017 A 
HETATM   13  N   UNL     1     -40.308  51.460 -53.991  1.00  0.00    -0.369 N 
HETATM   14  H   UNL     1     -40.667  52.184 -54.608  1.00  0.00     0.165 HD
HETATM   15  C   UNL     1     -40.064  50.158 -54.334  1.00  0.00     0.088 A 
HETATM   16  C   UNL     1     -39.561  49.513 -53.229  1.00  0.00     0.019 A 
HETATM   17  C   UNL     1     -39.498  50.461 -52.181  1.00  0.00     0.027 A 
ENDBRANCH  11  12
ENDBRANCH   8  11
ENDBRANCH   3   7
BRANCH   1  18
HETATM   18  C   UNL     1     -42.903  56.930 -57.233  1.00  0.00     0.180 A 
HETATM   19  N   UNL     1     -43.196  57.893 -58.088  1.00  0.00    -0.226 NA
HETATM   20  C   UNL     1     -43.748  57.236 -59.164  1.00  0.00     0.063 A 
HETATM   21  C   UNL     1     -44.205  57.974 -60.359  1.00  0.00     0.073 C 
HETATM   22  C   UNL     1     -43.779  55.882 -58.909  1.00  0.00     0.076 A 
HETATM   23  O   UNL     1     -43.235  55.676 -57.674  1.00  0.00    -0.294 OA
HETATM   24  C   UNL     1     -44.239  54.697 -59.650  1.00  0.00     0.079 C 
ENDBRANCH   1  18
TORSDOF 4
ENDMDL
MODEL 6
REMARK VINA RESULT:      -7.0      3.809      6.003
REMARK  4 active torsions:
REMARK  status: ('A' for Active; 'I' for Inactive)
REMARK    1  A    between atoms: C_4  and  C_5 
REMARK    2  A    between atoms: C_7  and  N_8 
REMARK       I    between atoms: N_8  and  C_9 
REMARK    3  A    between atoms: C_9  and  C_10 
REMARK    4  A    between atoms: C_10  and  C_11 
ROOT
HETATM    1  C   UNL     1     -41.929  54.142 -53.989  1.00  0.00     0.019 A 
HETATM    2  C   UNL     1     -42.763  54.847 -53.102  1.00  0.00     0.045 A 
HETATM    3  C   UNL     1     -43.529  55.932 -53.542  1.00  0.00     0.035 A 
HETATM    4  C   UNL     1     -43.456  56.312 -54.888  1.00  0.00     0.029 A 
HETATM    5  C   UNL     1     -42.638  55.621 -55.781  1.00  0.00     0.003 A 
HETATM    6  C   UNL     1     -41.879  54.543 -55.332  1.00  0.00     0.016 A 
ENDROOT
BRANCH   3   7
HETATM    7  N   UNL     1     -44.384  56.691 -52.713  1.00  0.00    -0.327 N 
HETATM    8  C   UNL     1     -44.097  57.879 -52.052  1.00  0.00     0.227 C 
HETATM    9  O   UNL     1     -43.014  58.459 -52.056  1.00  0.00    -0.273 OA
HETATM   10  H   UNL     1     -45.312  56.309 -52.581  1.00  0.00     0.169 HD
BRANCH   8  11
HETATM   11  C   UNL     1     -45.290  58.377 -51.228  1.00  0.00     0.159 C 
BRANCH  11  12
HETATM   12  C   UNL     1     -45.114  59.755 -50.665  1.00  0.00     0.017 A 
HETATM   13  N   UNL     1     -43.997  60.141 -49.956  1.00  0.00    -0.369 N 
HETATM   14  H   UNL     1     -43.191  59.544 -49.791  1.00  0.00     0.165 HD
HETATM   15  C   UNL     1     -44.135  61.439 -49.545  1.00  0.00     0.088 A 
HETATM   16  C   UNL     1     -45.352  61.900 -49.989  1.00  0.00     0.019 A 
HETATM   17  C   UNL     1     -45.971  60.840 -50.694  1.00  0.00     0.027 A 
ENDBRANCH  11  12
ENDBRANCH   8  11
ENDBRANCH   3   7
BRANCH   1  18
HETATM   18  C   UNL     1     -41.111  53.011 -53.554  1.00  0.00     0.180 A 
HETATM   19  N   UNL     1     -40.596  52.767 -52.363  1.00  0.00    -0.226 NA
HETATM   20  C   UNL     1     -39.928  51.574 -52.519  1.00  0.00     0.063 A 
HETATM   21  C   UNL     1     -39.212  50.944 -51.390  1.00  0.00     0.073 C 
HETATM   22  C   UNL     1     -40.058  51.141 -53.821  1.00  0.00     0.076 A 
HETATM   23  O   UNL     1     -40.820  52.055 -54.492  1.00  0.00    -0.294 OA
HETATM   24  C   UNL     1     -39.583  49.972 -54.579  1.00  0.00     0.079 C 
ENDBRANCH   1  18
TORSDOF 4
ENDMDL
MODEL 7
REMARK VINA RESULT:      -6.9      3.495      6.102
REMARK  4 active torsions:
REMARK  status: ('A' for Active; 'I' for Inactive)
REMARK    1  A    between atoms: C_4  and  C_5 
REMARK    2  A    between atoms: C_7  and  N_8 
REMARK       I    between atoms: N_8  and  C_9 
REMARK    3  A    between atoms: C_9  and  C_10 
REMARK    4  A    between atoms: C_10  and  C_11 
ROOT
HETATM    1  C   UNL     1     -41.051  54.449 -54.208  1.00  0.00     0.019 A 
HETATM    2  C   UNL     1     -40.892  55.552 -53.349  1.00  0.00     0.045 A 
HETATM    3  C   UNL     1     -41.370  56.817 -53.705  1.00  0.00     0.035 A 
HETATM    4  C   UNL     1     -42.014  56.976 -54.939  1.00  0.00     0.029 A 
HETATM    5  C   UNL     1     -42.183  55.892 -55.800  1.00  0.00     0.003 A 
HETATM    6  C   UNL     1     -41.702  54.637 -55.435  1.00  0.00     0.016 A 
ENDROOT
BRANCH   3   7
HETATM    7  N   UNL     1     -41.245  57.971 -52.901  1.00  0.00    -0.327 N 
HETATM    8  C   UNL     1     -41.816  58.210 -51.657  1.00  0.00     0.227 C 
HETATM    9  O   UNL     1     -42.567  57.447 -51.054  1.00  0.00    -0.273 OA
HETATM   10  H   UNL     1     -40.680  58.714 -53.292  1.00  0.00     0.169 HD
BRANCH   8  11
HETATM   11  C   UNL     1     -41.459  59.601 -51.121  1.00  0.00     0.159 C 
BRANCH  11  12
HETATM   12  C   UNL     1     -42.636  60.393 -50.638  1.00  0.00     0.017 A 
HETATM   13  N   UNL     1     -43.864  59.829 -50.370  1.00  0.00    -0.369 N 
HETATM   14  H   UNL     1     -44.063  58.834 -50.438  1.00  0.00     0.165 HD
HETATM   15  C   UNL     1     -44.745  60.800 -49.977  1.00  0.00     0.088 A 
HETATM   16  C   UNL     1     -44.084  62.005 -49.992  1.00  0.00     0.019 A 
HETATM   17  C   UNL     1     -42.755  61.752 -50.408  1.00  0.00     0.027 A 
ENDBRANCH  11  12
ENDBRANCH   8  11
ENDBRANCH   3   7
BRANCH   1  18
HETATM   18  C   UNL     1     -40.553  53.118 -53.864  1.00  0.00     0.180 A 
HETATM   19  N   UNL     1     -40.284  52.100 -54.661  1.00  0.00    -0.226 NA
HETATM   20  C   UNL     1     -39.847  51.109 -53.812  1.00  0.00     0.063 A 
HETATM   21  C   UNL     1     -39.431  49.788 -54.326  1.00  0.00     0.073 C 
HETATM   22  C   UNL     1     -39.881  51.570 -52.513  1.00  0.00     0.076 A 
HETATM   23  O   UNL     1     -40.329  52.859 -52.537  1.00  0.00    -0.294 OA
HETATM   24  C   UNL     1     -39.547  50.996 -51.199  1.00  0.00     0.079 C 
ENDBRANCH   1  18
TORSDOF 4
ENDMDL
MODEL 8
REMARK VINA RESULT:      -6.9     13.649     17.499
REMARK  4 active torsions:
REMARK  status: ('A' for Active; 'I' for Inactive)
REMARK    1  A    between atoms: C_4  and  C_5 
REMARK    2  A    between atoms: C_7  and  N_8 
REMARK       I    between atoms: N_8  and  C_9 
REMARK    3  A    between atoms: C_9  and  C_10 
REMARK    4  A    between atoms: C_10  and  C_11 
ROOT
HETATM    1  C   UNL     1     -36.129  41.298 -56.464  1.00  0.00     0.019 A 
HETATM    2  C   UNL     1     -35.163  40.442 -55.905  1.00  0.00     0.045 A 
HETATM    3  C   UNL     1     -34.778  40.565 -54.566  1.00  0.00     0.035 A 
HETATM    4  C   UNL     1     -35.372  41.560 -53.778  1.00  0.00     0.029 A 
HETATM    5  C   UNL     1     -36.335  42.414 -54.316  1.00  0.00     0.003 A 
HETATM    6  C   UNL     1     -36.708  42.284 -55.651  1.00  0.00     0.016 A 
ENDROOT
BRANCH   3   7
HETATM    7  N   UNL     1     -33.814  39.749 -53.936  1.00  0.00    -0.327 N 
HETATM    8  C   UNL     1     -32.433  39.795 -54.077  1.00  0.00     0.227 C 
HETATM    9  O   UNL     1     -31.813  40.554 -54.818  1.00  0.00    -0.273 OA
HETATM   10  H   UNL     1     -34.184  39.038 -53.317  1.00  0.00     0.169 HD
BRANCH   8  11
HETATM   11  C   UNL     1     -31.735  38.718 -53.238  1.00  0.00     0.159 C 
BRANCH  11  12
HETATM   12  C   UNL     1     -31.917  38.879 -51.759  1.00  0.00     0.017 A 
HETATM   13  N   UNL     1     -32.358  37.862 -50.941  1.00  0.00    -0.369 N 
HETATM   14  H   UNL     1     -32.556  36.917 -51.260  1.00  0.00     0.165 HD
HETATM   15  C   UNL     1     -32.454  38.312 -49.652  1.00  0.00     0.088 A 
HETATM   16  C   UNL     1     -32.075  39.634 -49.634  1.00  0.00     0.019 A 
HETATM   17  C   UNL     1     -31.736  39.993 -50.960  1.00  0.00     0.027 A 
ENDBRANCH  11  12
ENDBRANCH   8  11
ENDBRANCH   3   7
BRANCH   1  18
HETATM   18  C   UNL     1     -36.542  41.198 -57.863  1.00  0.00     0.180 A 
HETATM   19  N   UNL     1     -36.699  40.118 -58.607  1.00  0.00    -0.226 NA
HETATM   20  C   UNL     1     -37.099  40.604 -59.831  1.00  0.00     0.063 A 
HETATM   21  C   UNL     1     -37.393  39.694 -60.957  1.00  0.00     0.073 C 
HETATM   22  C   UNL     1     -37.159  41.980 -59.781  1.00  0.00     0.076 A 
HETATM   23  O   UNL     1     -36.807  42.370 -58.521  1.00  0.00    -0.294 OA
HETATM   24  C   UNL     1     -37.509  43.039 -60.742  1.00  0.00     0.079 C 
ENDBRANCH   1  18
TORSDOF 4
ENDMDL
MODEL 9
REMARK VINA RESULT:      -6.8      3.540      5.605
REMARK  4 active torsions:
REMARK  status: ('A' for Active; 'I' for Inactive)
REMARK    1  A    between atoms: C_4  and  C_5 
REMARK    2  A    between atoms: C_7  and  N_8 
REMARK       I    between atoms: N_8  and  C_9 
REMARK    3  A    between atoms: C_9  and  C_10 
REMARK    4  A    between atoms: C_10  and  C_11 
ROOT
HETATM    1  C   UNL     1     -40.990  54.612 -52.837  1.00  0.00     0.019 A 
HETATM    2  C   UNL     1     -41.440  55.941 -52.935  1.00  0.00     0.045 A 
HETATM    3  C   UNL     1     -41.632  56.548 -54.180  1.00  0.00     0.035 A 
HETATM    4  C   UNL     1     -41.366  55.811 -55.342  1.00  0.00     0.029 A 
HETATM    5  C   UNL     1     -40.923  54.491 -55.262  1.00  0.00     0.003 A 
HETATM    6  C   UNL     1     -40.735  53.897 -54.017  1.00  0.00     0.016 A 
ENDROOT
BRANCH   3   7
HETATM    7  N   UNL     1     -42.076  57.876 -54.359  1.00  0.00    -0.327 N 
HETATM    8  C   UNL     1     -41.407  59.050 -54.038  1.00  0.00     0.227 C 
HETATM    9  O   UNL     1     -40.303  59.124 -53.502  1.00  0.00    -0.273 OA
HETATM   10  H   UNL     1     -43.000  57.975 -54.759  1.00  0.00     0.169 HD
BRANCH   8  11
HETATM   11  C   UNL     1     -42.242  60.294 -54.366  1.00  0.00     0.159 C 
BRANCH  11  12
HETATM   12  C   UNL     1     -42.673  61.079 -53.164  1.00  0.00     0.017 A 
HETATM   13  N   UNL     1     -42.488  60.638 -51.872  1.00  0.00    -0.369 N 
HETATM   14  H   UNL     1     -42.013  59.773 -51.625  1.00  0.00     0.165 HD
HETATM   15  C   UNL     1     -43.008  61.548 -50.992  1.00  0.00     0.088 A 
HETATM   16  C   UNL     1     -43.538  62.588 -51.719  1.00  0.00     0.019 A 
HETATM   17  C   UNL     1     -43.328  62.294 -53.088  1.00  0.00     0.027 A 
ENDBRANCH  11  12
ENDBRANCH   8  11
ENDBRANCH   3   7
BRANCH   1  18
HETATM   18  C   UNL     1     -40.773  53.957 -51.549  1.00  0.00     0.180 A 
HETATM   19  N   UNL     1     -40.694  54.496 -50.345  1.00  0.00    -0.226 NA
HETATM   20  C   UNL     1     -40.487  53.425 -49.506  1.00  0.00     0.063 A 
HETATM   21  C   UNL     1     -40.353  53.610 -48.047  1.00  0.00     0.073 C 
HETATM   22  C   UNL     1     -40.437  52.263 -50.247  1.00  0.00     0.076 A 
HETATM   23  O   UNL     1     -40.624  52.595 -51.559  1.00  0.00    -0.294 OA
HETATM   24  C   UNL     1     -40.245  50.839 -49.932  1.00  0.00     0.079 C 
ENDBRANCH   1  18
TORSDOF 4
ENDMDL
MODEL 10
REMARK VINA RESULT:      -6.7      1.715      2.197
REMARK  4 active torsions:
REMARK  status: ('A' for Active; 'I' for Inactive)
REMARK    1  A    between atoms: C_4  and  C_5 
REMARK    2  A    between atoms: C_7  and  N_8 
REMARK       I    between atoms: N_8  and  C_9 
REMARK    3  A    between atoms: C_9  and  C_10 
REMARK    4  A    between atoms: C_10  and  C_11 
ROOT
HETATM    1  C   UNL     1     -40.889  54.367 -53.655  1.00  0.00     0.019 A 
HETATM    2  C   UNL     1     -41.033  54.964 -54.921  1.00  0.00     0.045 A 
HETATM    3  C   UNL     1     -41.476  56.284 -55.050  1.00  0.00     0.035 A 
HETATM    4  C   UNL     1     -41.777  57.015 -53.893  1.00  0.00     0.029 A 
HETATM    5  C   UNL     1     -41.635  56.439 -52.630  1.00  0.00     0.003 A 
HETATM    6  C   UNL     1     -41.196  55.123 -52.514  1.00  0.00     0.016 A 
ENDROOT
BRANCH   3   7
HETATM    7  N   UNL     1     -41.650  56.950 -56.283  1.00  0.00    -0.327 N 
HETATM    8  C   UNL     1     -42.838  57.193 -56.961  1.00  0.00     0.227 C 
HETATM    9  O   UNL     1     -43.956  56.830 -56.603  1.00  0.00    -0.273 OA
HETATM   10  H   UNL     1     -40.799  57.274 -56.726  1.00  0.00     0.169 HD
BRANCH   8  11
HETATM   11  C   UNL     1     -42.601  57.926 -58.287  1.00  0.00     0.159 C 
BRANCH  11  12
HETATM   12  C   UNL     1     -43.849  58.452 -58.929  1.00  0.00     0.017 A 
HETATM   13  N   UNL     1     -44.853  59.077 -58.222  1.00  0.00    -0.369 N 
HETATM   14  H   UNL     1     -44.815  59.269 -57.224  1.00  0.00     0.165 HD
HETATM   15  C   UNL     1     -45.873  59.418 -59.068  1.00  0.00     0.088 A 
HETATM   16  C   UNL     1     -45.530  59.009 -60.335  1.00  0.00     0.019 A 
HETATM   17  C   UNL     1     -44.255  58.399 -60.250  1.00  0.00     0.027 A 
ENDBRANCH  11  12
ENDBRANCH   8  11
ENDBRANCH   3   7
BRANCH   1  18
HETATM   18  C   UNL     1     -40.437  52.987 -53.493  1.00  0.00     0.180 A 
HETATM   19  N   UNL     1     -40.220  52.070 -54.418  1.00  0.00    -0.226 NA
HETATM   20  C   UNL     1     -39.808  50.963 -53.710  1.00  0.00     0.063 A 
HETATM   21  C   UNL     1     -39.450  49.705 -54.396  1.00  0.00     0.073 C 
HETATM   22  C   UNL     1     -39.803  51.256 -52.363  1.00  0.00     0.076 A 
HETATM   23  O   UNL     1     -40.202  52.554 -52.215  1.00  0.00    -0.294 OA
HETATM   24  C   UNL     1     -39.471  50.508 -51.140  1.00  0.00     0.079 C 
ENDBRANCH   1  18
TORSDOF 4
ENDMDL
