MODEL 1
REMARK VINA RESULT:      -8.4      0.000      0.000
REMARK  5 active torsions:
REMARK  status: ('A' for Active; 'I' for Inactive)
REMARK    1  A    between atoms: C_5  and  N_6 
REMARK    2  A    between atoms: C_9  and  C_10 
REMARK    3  A    between atoms: C_10  and  N_11 
REMARK       I    between atoms: N_11  and  C_12 
REMARK       I    between atoms: C_12  and  N_13 
REMARK    4  A    between atoms: N_13  and  C_14 
REMARK    5  A    between atoms: C_14  and  C_15 
ROOT
HETATM    1  N   UNL     1     -42.125  55.133 -52.340  1.00  0.00    -0.319 N 
HETATM    2  C   UNL     1     -41.787  56.448 -52.667  1.00  0.00     0.021 A 
HETATM    3  C   UNL     1     -40.754  56.814 -53.685  1.00  0.00     0.069 C 
HETATM    4  C   UNL     1     -42.620  57.309 -51.963  1.00  0.00    -0.016 A 
HETATM    5  C   UNL     1     -43.517  56.497 -51.228  1.00  0.00     0.035 A 
HETATM    6  C   UNL     1     -43.213  55.174 -51.472  1.00  0.00     0.014 A 
HETATM    7  C   UNL     1     -43.848  53.982 -50.839  1.00  0.00     0.068 C 
ENDROOT
BRANCH   4   8
HETATM    8  C   UNL     1     -42.645  58.803 -51.991  1.00  0.00     0.165 C 
BRANCH   8   9
HETATM    9  N   UNL     1     -43.131  59.255 -50.709  1.00  0.00    -0.339 N 
HETATM   10  C   UNL     1     -44.021  60.289 -50.638  1.00  0.00     0.316 C 
HETATM   11  N   UNL     1     -44.183  60.704 -49.345  1.00  0.00    -0.339 N 
HETATM   12  O   UNL     1     -44.567  60.803 -51.603  1.00  0.00    -0.247 OA
HETATM   13  H   UNL     1     -44.085  59.991 -48.639  1.00  0.00     0.164 HD
HETATM   14  H   UNL     1     -42.487  59.184 -49.935  1.00  0.00     0.164 HD
BRANCH  11  15
HETATM   15  C   UNL     1     -45.043  61.819 -49.028  1.00  0.00     0.162 C 
BRANCH  15  16
HETATM   16  C   UNL     1     -45.007  62.102 -47.548  1.00  0.00    -0.040 A 
HETATM   17  C   UNL     1     -45.167  63.416 -47.079  1.00  0.00     0.009 A 
HETATM   18  C   UNL     1     -45.119  63.694 -45.713  1.00  0.00     0.001 A 
HETATM   19  C   UNL     1     -44.917  62.661 -44.800  1.00  0.00     0.000 A 
HETATM   20  C   UNL     1     -44.763  61.351 -45.254  1.00  0.00     0.001 A 
HETATM   21  C   UNL     1     -44.807  61.072 -46.621  1.00  0.00     0.009 A 
ENDBRANCH  15  16
ENDBRANCH  11  15
ENDBRANCH   8   9
ENDBRANCH   4   8
BRANCH   1  22
HETATM   22  C   UNL     1     -41.464  53.956 -52.800  1.00  0.00     0.039 A 
HETATM   23  C   UNL     1     -40.475  53.357 -52.012  1.00  0.00     0.030 A 
HETATM   24  C   UNL     1     -39.842  52.190 -52.449  1.00  0.00     0.009 A 
HETATM   25  C   UNL     1     -40.176  51.620 -53.683  1.00  0.00    -0.062 A 
HETATM   26  C   UNL     1     -39.526  50.345 -54.132  1.00  0.00     0.048 C 
HETATM   27  C   UNL     1     -41.170  52.220 -54.464  1.00  0.00     0.009 A 
HETATM   28  C   UNL     1     -41.810  53.384 -54.029  1.00  0.00     0.030 A 
ENDBRANCH   1  22
TORSDOF 5
ENDMDL
MODEL 2
REMARK VINA RESULT:      -8.1      0.887      2.088
REMARK  5 active torsions:
REMARK  status: ('A' for Active; 'I' for Inactive)
REMARK    1  A    between atoms: C_5  and  N_6 
REMARK    2  A    between atoms: C_9  and  C_10 
REMARK    3  A    between atoms: C_10  and  N_11 
REMARK       I    between atoms: N_11  and  C_12 
REMARK       I    between atoms: C_12  and  N_13 
REMARK    4  A    between atoms: N_13  and  C_14 
REMARK    5  A    between atoms: C_14  and  C_15 
ROOT
HETATM    1  N   UNL     1     -42.055  54.951 -52.783  1.00  0.00    -0.319 N 
HETATM    2  C   UNL     1     -43.186  55.129 -51.982  1.00  0.00     0.021 A 
HETATM    3  C   UNL     1     -43.767  54.062 -51.111  1.00  0.00     0.069 C 
HETATM    4  C   UNL     1     -43.595  56.454 -52.079  1.00  0.00    -0.016 A 
HETATM    5  C   UNL     1     -42.662  57.107 -52.920  1.00  0.00     0.035 A 
HETATM    6  C   UNL     1     -41.724  56.186 -53.335  1.00  0.00     0.014 A 
HETATM    7  C   UNL     1     -40.609  56.420 -54.298  1.00  0.00     0.068 C 
ENDROOT
BRANCH   4   8
HETATM    8  C   UNL     1     -44.748  57.120 -51.400  1.00  0.00     0.165 C 
BRANCH   8   9
HETATM    9  N   UNL     1     -44.216  58.189 -50.587  1.00  0.00    -0.339 N 
HETATM   10  C   UNL     1     -44.847  59.400 -50.548  1.00  0.00     0.316 C 
HETATM   11  N   UNL     1     -44.076  60.331 -49.908  1.00  0.00    -0.339 N 
HETATM   12  O   UNL     1     -45.935  59.633 -51.053  1.00  0.00    -0.247 OA
HETATM   13  H   UNL     1     -43.478  59.978 -49.177  1.00  0.00     0.164 HD
HETATM   14  H   UNL     1     -43.212  58.220 -50.490  1.00  0.00     0.164 HD
BRANCH  11  15
HETATM   15  C   UNL     1     -44.517  61.700 -49.786  1.00  0.00     0.162 C 
BRANCH  15  16
HETATM   16  C   UNL     1     -44.770  62.038 -48.339  1.00  0.00    -0.040 A 
HETATM   17  C   UNL     1     -44.889  63.379 -47.941  1.00  0.00     0.009 A 
HETATM   18  C   UNL     1     -45.108  63.707 -46.603  1.00  0.00     0.001 A 
HETATM   19  C   UNL     1     -45.216  62.698 -45.649  1.00  0.00     0.000 A 
HETATM   20  C   UNL     1     -45.106  61.362 -46.033  1.00  0.00     0.001 A 
HETATM   21  C   UNL     1     -44.884  61.033 -47.371  1.00  0.00     0.009 A 
ENDBRANCH  15  16
ENDBRANCH  11  15
ENDBRANCH   8   9
ENDBRANCH   4   8
BRANCH   1  22
HETATM   22  C   UNL     1     -41.371  53.721 -53.007  1.00  0.00     0.039 A 
HETATM   23  C   UNL     1     -41.606  52.995 -54.180  1.00  0.00     0.030 A 
HETATM   24  C   UNL     1     -40.919  51.801 -54.415  1.00  0.00     0.009 A 
HETATM   25  C   UNL     1     -40.005  51.310 -53.475  1.00  0.00    -0.062 A 
HETATM   26  C   UNL     1     -39.237  50.050 -53.747  1.00  0.00     0.048 C 
HETATM   27  C   UNL     1     -39.769  52.044 -52.307  1.00  0.00     0.009 A 
HETATM   28  C   UNL     1     -40.450  53.242 -52.070  1.00  0.00     0.030 A 
ENDBRANCH   1  22
TORSDOF 5
ENDMDL
MODEL 3
REMARK VINA RESULT:      -8.0      4.958      7.876
REMARK  5 active torsions:
REMARK  status: ('A' for Active; 'I' for Inactive)
REMARK    1  A    between atoms: C_5  and  N_6 
REMARK    2  A    between atoms: C_9  and  C_10 
REMARK    3  A    between atoms: C_10  and  N_11 
REMARK       I    between atoms: N_11  and  C_12 
REMARK       I    between atoms: C_12  and  N_13 
REMARK    4  A    between atoms: N_13  and  C_14 
REMARK    5  A    between atoms: C_14  and  C_15 
ROOT
HETATM    1  N   UNL     1     -41.776  54.635 -53.043  1.00  0.00    -0.319 N 
HETATM    2  C   UNL     1     -41.399  55.809 -53.699  1.00  0.00     0.021 A 
HETATM    3  C   UNL     1     -40.309  55.878 -54.720  1.00  0.00     0.069 C 
HETATM    4  C   UNL     1     -42.252  56.832 -53.305  1.00  0.00    -0.016 A 
HETATM    5  C   UNL     1     -43.200  56.256 -52.426  1.00  0.00     0.035 A 
HETATM    6  C   UNL     1     -42.907  54.916 -52.280  1.00  0.00     0.014 A 
HETATM    7  C   UNL     1     -43.595  53.946 -51.381  1.00  0.00     0.068 C 
ENDROOT
BRANCH   4   8
HETATM    8  C   UNL     1     -42.249  58.261 -53.743  1.00  0.00     0.165 C 
BRANCH   8   9
HETATM    9  N   UNL     1     -42.444  58.279 -55.174  1.00  0.00    -0.339 N 
HETATM   10  C   UNL     1     -43.700  58.417 -55.694  1.00  0.00     0.316 C 
HETATM   11  N   UNL     1     -43.696  58.188 -57.042  1.00  0.00    -0.339 N 
HETATM   12  O   UNL     1     -44.699  58.670 -55.037  1.00  0.00    -0.247 OA
HETATM   13  H   UNL     1     -42.850  58.440 -57.528  1.00  0.00     0.164 HD
HETATM   14  H   UNL     1     -41.809  57.714 -55.719  1.00  0.00     0.164 HD
BRANCH  11  15
HETATM   15  C   UNL     1     -44.922  58.233 -57.803  1.00  0.00     0.162 C 
BRANCH  15  16
HETATM   16  C   UNL     1     -44.958  57.104 -58.801  1.00  0.00    -0.040 A 
HETATM   17  C   UNL     1     -46.091  56.912 -59.606  1.00  0.00     0.009 A 
HETATM   18  C   UNL     1     -46.144  55.862 -60.522  1.00  0.00     0.001 A 
HETATM   19  C   UNL     1     -45.061  54.994 -60.648  1.00  0.00     0.000 A 
HETATM   20  C   UNL     1     -43.926  55.179 -59.858  1.00  0.00     0.001 A 
HETATM   21  C   UNL     1     -43.874  56.228 -58.939  1.00  0.00     0.009 A 
ENDBRANCH  15  16
ENDBRANCH  11  15
ENDBRANCH   8   9
ENDBRANCH   4   8
BRANCH   1  22
HETATM   22  C   UNL     1     -41.113  53.376 -53.126  1.00  0.00     0.039 A 
HETATM   23  C   UNL     1     -40.282  52.954 -52.082  1.00  0.00     0.030 A 
HETATM   24  C   UNL     1     -39.650  51.710 -52.149  1.00  0.00     0.009 A 
HETATM   25  C   UNL     1     -39.824  50.882 -53.265  1.00  0.00    -0.062 A 
HETATM   26  C   UNL     1     -39.178  49.530 -53.317  1.00  0.00     0.048 C 
HETATM   27  C   UNL     1     -40.661  51.307 -54.303  1.00  0.00     0.009 A 
HETATM   28  C   UNL     1     -41.301  52.548 -54.238  1.00  0.00     0.030 A 
ENDBRANCH   1  22
TORSDOF 5
ENDMDL
MODEL 4
REMARK VINA RESULT:      -7.9      0.957      2.123
REMARK  5 active torsions:
REMARK  status: ('A' for Active; 'I' for Inactive)
REMARK    1  A    between atoms: C_5  and  N_6 
REMARK    2  A    between atoms: C_9  and  C_10 
REMARK    3  A    between atoms: C_10  and  N_11 
REMARK       I    between atoms: N_11  and  C_12 
REMARK       I    between atoms: C_12  and  N_13 
REMARK    4  A    between atoms: N_13  and  C_14 
REMARK    5  A    between atoms: C_14  and  C_15 
ROOT
HETATM    1  N   UNL     1     -42.269  55.684 -52.483  1.00  0.00    -0.319 N 
HETATM    2  C   UNL     1     -43.471  55.823 -51.785  1.00  0.00     0.021 A 
HETATM    3  C   UNL     1     -44.069  54.748 -50.935  1.00  0.00     0.069 C 
HETATM    4  C   UNL     1     -43.935  57.122 -51.954  1.00  0.00    -0.016 A 
HETATM    5  C   UNL     1     -42.968  57.802 -52.732  1.00  0.00     0.035 A 
HETATM    6  C   UNL     1     -41.954  56.920 -53.041  1.00  0.00     0.014 A 
HETATM    7  C   UNL     1     -40.774  57.189 -53.914  1.00  0.00     0.068 C 
ENDROOT
BRANCH   4   8
HETATM    8  C   UNL     1     -45.173  57.743 -51.392  1.00  0.00     0.165 C 
BRANCH   8   9
HETATM    9  N   UNL     1     -44.772  58.610 -50.309  1.00  0.00    -0.339 N 
HETATM   10  C   UNL     1     -45.410  59.803 -50.113  1.00  0.00     0.316 C 
HETATM   11  N   UNL     1     -44.745  60.564 -49.191  1.00  0.00    -0.339 N 
HETATM   12  O   UNL     1     -46.413  60.160 -50.711  1.00  0.00    -0.247 OA
HETATM   13  H   UNL     1     -44.259  60.055 -48.469  1.00  0.00     0.164 HD
HETATM   14  H   UNL     1     -43.794  58.596 -50.063  1.00  0.00     0.164 HD
BRANCH  11  15
HETATM   15  C   UNL     1     -45.208  61.889 -48.854  1.00  0.00     0.162 C 
BRANCH  15  16
HETATM   16  C   UNL     1     -45.056  62.134 -47.374  1.00  0.00    -0.040 A 
HETATM   17  C   UNL     1     -44.797  61.061 -46.507  1.00  0.00     0.009 A 
HETATM   18  C   UNL     1     -44.670  61.271 -45.134  1.00  0.00     0.001 A 
HETATM   19  C   UNL     1     -44.795  62.558 -44.613  1.00  0.00     0.000 A 
HETATM   20  C   UNL     1     -45.046  63.632 -45.466  1.00  0.00     0.001 A 
HETATM   21  C   UNL     1     -45.176  63.423 -46.840  1.00  0.00     0.009 A 
ENDBRANCH  15  16
ENDBRANCH  11  15
ENDBRANCH   8   9
ENDBRANCH   4   8
BRANCH   1  22
HETATM   22  C   UNL     1     -41.508  54.486 -52.615  1.00  0.00     0.039 A 
HETATM   23  C   UNL     1     -40.689  54.059 -51.563  1.00  0.00     0.030 A 
HETATM   24  C   UNL     1     -39.960  52.873 -51.680  1.00  0.00     0.009 A 
HETATM   25  C   UNL     1     -40.026  52.110 -52.851  1.00  0.00    -0.062 A 
HETATM   26  C   UNL     1     -39.275  50.816 -52.960  1.00  0.00     0.048 C 
HETATM   27  C   UNL     1     -40.851  52.538 -53.898  1.00  0.00     0.009 A 
HETATM   28  C   UNL     1     -41.587  53.722 -53.784  1.00  0.00     0.030 A 
ENDBRANCH   1  22
TORSDOF 5
ENDMDL
MODEL 5
REMARK VINA RESULT:      -7.9     18.224     20.215
REMARK  5 active torsions:
REMARK  status: ('A' for Active; 'I' for Inactive)
REMARK    1  A    between atoms: C_5  and  N_6 
REMARK    2  A    between atoms: C_9  and  C_10 
REMARK    3  A    between atoms: C_10  and  N_11 
REMARK       I    between atoms: N_11  and  C_12 
REMARK       I    between atoms: C_12  and  N_13 
REMARK    4  A    between atoms: N_13  and  C_14 
REMARK    5  A    between atoms: C_14  and  C_15 
ROOT
HETATM    1  N   UNL     1     -36.541  39.666 -58.793  1.00  0.00    -0.319 N 
HETATM    2  C   UNL     1     -36.418  41.004 -58.411  1.00  0.00     0.021 A 
HETATM    3  C   UNL     1     -37.262  42.108 -58.962  1.00  0.00     0.069 C 
HETATM    4  C   UNL     1     -35.467  41.093 -57.401  1.00  0.00    -0.016 A 
HETATM    5  C   UNL     1     -35.037  39.772 -57.131  1.00  0.00     0.035 A 
HETATM    6  C   UNL     1     -35.703  38.910 -57.976  1.00  0.00     0.014 A 
HETATM    7  C   UNL     1     -35.496  37.438 -58.094  1.00  0.00     0.068 C 
ENDROOT
BRANCH   4   8
HETATM    8  C   UNL     1     -35.001  42.311 -56.672  1.00  0.00     0.165 C 
BRANCH   8   9
HETATM    9  N   UNL     1     -34.511  41.885 -55.382  1.00  0.00    -0.339 N 
HETATM   10  C   UNL     1     -35.323  41.951 -54.284  1.00  0.00     0.316 C 
HETATM   11  N   UNL     1     -34.612  41.717 -53.139  1.00  0.00    -0.339 N 
HETATM   12  O   UNL     1     -36.513  42.225 -54.316  1.00  0.00    -0.247 OA
HETATM   13  H   UNL     1     -33.828  41.089 -53.229  1.00  0.00     0.164 HD
HETATM   14  H   UNL     1     -33.529  42.034 -55.204  1.00  0.00     0.164 HD
BRANCH  11  15
HETATM   15  C   UNL     1     -35.251  41.781 -51.846  1.00  0.00     0.162 C 
BRANCH  15  16
HETATM   16  C   UNL     1     -34.605  40.803 -50.897  1.00  0.00    -0.040 A 
HETATM   17  C   UNL     1     -33.231  40.891 -50.625  1.00  0.00     0.009 A 
HETATM   18  C   UNL     1     -32.618  39.983 -49.761  1.00  0.00     0.001 A 
HETATM   19  C   UNL     1     -33.374  38.981 -49.155  1.00  0.00     0.000 A 
HETATM   20  C   UNL     1     -34.741  38.889 -49.413  1.00  0.00     0.001 A 
HETATM   21  C   UNL     1     -35.355  39.795 -50.279  1.00  0.00     0.009 A 
ENDBRANCH  15  16
ENDBRANCH  11  15
ENDBRANCH   8   9
ENDBRANCH   4   8
BRANCH   1  22
HETATM   22  C   UNL     1     -37.365  39.164 -59.842  1.00  0.00     0.039 A 
HETATM   23  C   UNL     1     -38.642  38.670 -59.552  1.00  0.00     0.030 A 
HETATM   24  C   UNL     1     -39.461  38.200 -60.582  1.00  0.00     0.009 A 
HETATM   25  C   UNL     1     -39.010  38.201 -61.907  1.00  0.00    -0.062 A 
HETATM   26  C   UNL     1     -39.905  37.734 -63.016  1.00  0.00     0.048 C 
HETATM   27  C   UNL     1     -37.734  38.702 -62.192  1.00  0.00     0.009 A 
HETATM   28  C   UNL     1     -36.913  39.179 -61.165  1.00  0.00     0.030 A 
ENDBRANCH   1  22
TORSDOF 5
ENDMDL
MODEL 6
REMARK VINA RESULT:      -7.8      1.911      3.318
REMARK  5 active torsions:
REMARK  status: ('A' for Active; 'I' for Inactive)
REMARK    1  A    between atoms: C_5  and  N_6 
REMARK    2  A    between atoms: C_9  and  C_10 
REMARK    3  A    between atoms: C_10  and  N_11 
REMARK       I    between atoms: N_11  and  C_12 
REMARK       I    between atoms: C_12  and  N_13 
REMARK    4  A    between atoms: N_13  and  C_14 
REMARK    5  A    between atoms: C_14  and  C_15 
ROOT
HETATM    1  N   UNL     1     -42.027  57.820 -51.168  1.00  0.00    -0.319 N 
HETATM    2  C   UNL     1     -43.357  58.226 -51.308  1.00  0.00     0.021 A 
HETATM    3  C   UNL     1     -44.520  57.287 -51.296  1.00  0.00     0.069 C 
HETATM    4  C   UNL     1     -43.393  59.614 -51.366  1.00  0.00    -0.016 A 
HETATM    5  C   UNL     1     -42.060  60.063 -51.211  1.00  0.00     0.035 A 
HETATM    6  C   UNL     1     -41.238  58.964 -51.082  1.00  0.00     0.014 A 
HETATM    7  C   UNL     1     -39.750  58.970 -50.982  1.00  0.00     0.068 C 
ENDROOT
BRANCH   4   8
HETATM    8  C   UNL     1     -44.586  60.505 -51.503  1.00  0.00     0.165 C 
BRANCH   8   9
HETATM    9  N   UNL     1     -44.580  61.415 -50.383  1.00  0.00    -0.339 N 
HETATM   10  C   UNL     1     -45.438  61.221 -49.336  1.00  0.00     0.316 C 
HETATM   11  N   UNL     1     -45.432  62.299 -48.495  1.00  0.00    -0.339 N 
HETATM   12  O   UNL     1     -46.146  60.236 -49.193  1.00  0.00    -0.247 OA
HETATM   13  H   UNL     1     -44.559  62.799 -48.428  1.00  0.00     0.164 HD
HETATM   14  H   UNL     1     -44.360  62.378 -50.589  1.00  0.00     0.164 HD
BRANCH  11  15
HETATM   15  C   UNL     1     -46.297  62.341 -47.340  1.00  0.00     0.162 C 
BRANCH  15  16
HETATM   16  C   UNL     1     -45.481  62.277 -46.075  1.00  0.00    -0.040 A 
HETATM   17  C   UNL     1     -44.863  61.075 -45.697  1.00  0.00     0.009 A 
HETATM   18  C   UNL     1     -44.118  60.998 -44.520  1.00  0.00     0.001 A 
HETATM   19  C   UNL     1     -43.977  62.124 -43.711  1.00  0.00     0.000 A 
HETATM   20  C   UNL     1     -44.581  63.326 -44.080  1.00  0.00     0.001 A 
HETATM   21  C   UNL     1     -45.329  63.403 -45.256  1.00  0.00     0.009 A 
ENDBRANCH  15  16
ENDBRANCH  11  15
ENDBRANCH   8   9
ENDBRANCH   4   8
BRANCH   1  22
HETATM   22  C   UNL     1     -41.560  56.474 -51.137  1.00  0.00     0.039 A 
HETATM   23  C   UNL     1     -41.348  55.779 -52.333  1.00  0.00     0.030 A 
HETATM   24  C   UNL     1     -40.867  54.468 -52.306  1.00  0.00     0.009 A 
HETATM   25  C   UNL     1     -40.608  53.830 -51.087  1.00  0.00    -0.062 A 
HETATM   26  C   UNL     1     -40.053  52.437 -51.061  1.00  0.00     0.048 C 
HETATM   27  C   UNL     1     -40.816  54.531 -49.894  1.00  0.00     0.009 A 
HETATM   28  C   UNL     1     -41.292  55.846 -49.916  1.00  0.00     0.030 A 
ENDBRANCH   1  22
TORSDOF 5
ENDMDL
MODEL 7
REMARK VINA RESULT:      -7.8      5.634      9.532
REMARK  5 active torsions:
REMARK  status: ('A' for Active; 'I' for Inactive)
REMARK    1  A    between atoms: C_5  and  N_6 
REMARK    2  A    between atoms: C_9  and  C_10 
REMARK    3  A    between atoms: C_10  and  N_11 
REMARK       I    between atoms: N_11  and  C_12 
REMARK       I    between atoms: C_12  and  N_13 
REMARK    4  A    between atoms: N_13  and  C_14 
REMARK    5  A    between atoms: C_14  and  C_15 
ROOT
HETATM    1  N   UNL     1     -44.117  57.961 -58.478  1.00  0.00    -0.319 N 
HETATM    2  C   UNL     1     -44.230  58.250 -57.116  1.00  0.00     0.021 A 
HETATM    3  C   UNL     1     -45.510  58.161 -56.349  1.00  0.00     0.069 C 
HETATM    4  C   UNL     1     -42.965  58.534 -56.616  1.00  0.00    -0.016 A 
HETATM    5  C   UNL     1     -42.056  58.367 -57.689  1.00  0.00     0.035 A 
HETATM    6  C   UNL     1     -42.767  58.009 -58.815  1.00  0.00     0.014 A 
HETATM    7  C   UNL     1     -42.222  57.815 -60.189  1.00  0.00     0.068 C 
ENDROOT
BRANCH   4   8
HETATM    8  C   UNL     1     -42.580  58.890 -55.216  1.00  0.00     0.165 C 
BRANCH   8   9
HETATM    9  N   UNL     1     -41.753  57.822 -54.707  1.00  0.00    -0.339 N 
HETATM   10  C   UNL     1     -42.278  56.900 -53.845  1.00  0.00     0.316 C 
HETATM   11  N   UNL     1     -41.293  56.115 -53.313  1.00  0.00    -0.339 N 
HETATM   12  O   UNL     1     -43.463  56.815 -53.556  1.00  0.00    -0.247 OA
HETATM   13  H   UNL     1     -40.495  55.947 -53.907  1.00  0.00     0.164 HD
HETATM   14  H   UNL     1     -40.777  58.037 -54.568  1.00  0.00     0.164 HD
BRANCH  11  15
HETATM   15  C   UNL     1     -41.604  55.097 -52.338  1.00  0.00     0.162 C 
BRANCH  15  16
HETATM   16  C   UNL     1     -40.935  53.798 -52.708  1.00  0.00    -0.040 A 
HETATM   17  C   UNL     1     -40.218  53.076 -51.740  1.00  0.00     0.009 A 
HETATM   18  C   UNL     1     -39.580  51.881 -52.073  1.00  0.00     0.001 A 
HETATM   19  C   UNL     1     -39.657  51.391 -53.375  1.00  0.00     0.000 A 
HETATM   20  C   UNL     1     -40.372  52.096 -54.343  1.00  0.00     0.001 A 
HETATM   21  C   UNL     1     -41.008  53.294 -54.012  1.00  0.00     0.009 A 
ENDBRANCH  15  16
ENDBRANCH  11  15
ENDBRANCH   8   9
ENDBRANCH   4   8
BRANCH   1  22
HETATM   22  C   UNL     1     -45.194  57.682 -59.369  1.00  0.00     0.039 A 
HETATM   23  C   UNL     1     -45.558  56.356 -59.631  1.00  0.00     0.030 A 
HETATM   24  C   UNL     1     -46.629  56.080 -60.485  1.00  0.00     0.009 A 
HETATM   25  C   UNL     1     -47.336  57.120 -61.100  1.00  0.00    -0.062 A 
HETATM   26  C   UNL     1     -48.511  56.824 -61.983  1.00  0.00     0.048 C 
HETATM   27  C   UNL     1     -46.971  58.444 -60.829  1.00  0.00     0.009 A 
HETATM   28  C   UNL     1     -45.904  58.726 -59.970  1.00  0.00     0.030 A 
ENDBRANCH   1  22
TORSDOF 5
ENDMDL
MODEL 8
REMARK VINA RESULT:      -7.7      4.222      8.330
REMARK  5 active torsions:
REMARK  status: ('A' for Active; 'I' for Inactive)
REMARK    1  A    between atoms: C_5  and  N_6 
REMARK    2  A    between atoms: C_9  and  C_10 
REMARK    3  A    between atoms: C_10  and  N_11 
REMARK       I    between atoms: N_11  and  C_12 
REMARK       I    between atoms: C_12  and  N_13 
REMARK    4  A    between atoms: N_13  and  C_14 
REMARK    5  A    between atoms: C_14  and  C_15 
ROOT
HETATM    1  N   UNL     1     -43.216  58.071 -56.072  1.00  0.00    -0.319 N 
HETATM    2  C   UNL     1     -43.548  57.721 -54.761  1.00  0.00     0.021 A 
HETATM    3  C   UNL     1     -44.315  56.490 -54.397  1.00  0.00     0.069 C 
HETATM    4  C   UNL     1     -42.977  58.646 -53.895  1.00  0.00    -0.016 A 
HETATM    5  C   UNL     1     -42.241  59.552 -54.696  1.00  0.00     0.035 A 
HETATM    6  C   UNL     1     -42.386  59.188 -56.018  1.00  0.00     0.014 A 
HETATM    7  C   UNL     1     -41.852  59.914 -57.207  1.00  0.00     0.068 C 
ENDROOT
BRANCH   4   8
HETATM    8  C   UNL     1     -43.046  58.684 -52.403  1.00  0.00     0.165 C 
BRANCH   8   9
HETATM    9  N   UNL     1     -43.009  57.320 -51.931  1.00  0.00    -0.339 N 
HETATM   10  C   UNL     1     -41.831  56.774 -51.503  1.00  0.00     0.316 C 
HETATM   11  N   UNL     1     -41.962  55.426 -51.311  1.00  0.00    -0.339 N 
HETATM   12  O   UNL     1     -40.791  57.396 -51.354  1.00  0.00    -0.247 OA
HETATM   13  H   UNL     1     -42.874  55.110 -51.018  1.00  0.00     0.164 HD
HETATM   14  H   UNL     1     -43.651  56.677 -52.369  1.00  0.00     0.164 HD
BRANCH  11  15
HETATM   15  C   UNL     1     -40.833  54.624 -50.903  1.00  0.00     0.162 C 
BRANCH  15  16
HETATM   16  C   UNL     1     -40.542  53.568 -51.938  1.00  0.00    -0.040 A 
HETATM   17  C   UNL     1     -39.801  52.428 -51.590  1.00  0.00     0.009 A 
HETATM   18  C   UNL     1     -39.512  51.450 -52.542  1.00  0.00     0.001 A 
HETATM   19  C   UNL     1     -39.965  51.598 -53.851  1.00  0.00     0.000 A 
HETATM   20  C   UNL     1     -40.708  52.724 -54.207  1.00  0.00     0.001 A 
HETATM   21  C   UNL     1     -40.996  53.705 -53.256  1.00  0.00     0.009 A 
ENDBRANCH  15  16
ENDBRANCH  11  15
ENDBRANCH   8   9
ENDBRANCH   4   8
BRANCH   1  22
HETATM   22  C   UNL     1     -43.661  57.413 -57.255  1.00  0.00     0.039 A 
HETATM   23  C   UNL     1     -42.928  56.342 -57.777  1.00  0.00     0.030 A 
HETATM   24  C   UNL     1     -43.375  55.679 -58.923  1.00  0.00     0.009 A 
HETATM   25  C   UNL     1     -44.546  56.088 -59.571  1.00  0.00    -0.062 A 
HETATM   26  C   UNL     1     -45.046  55.350 -60.777  1.00  0.00     0.048 C 
HETATM   27  C   UNL     1     -45.279  57.157 -59.041  1.00  0.00     0.009 A 
HETATM   28  C   UNL     1     -44.839  57.820 -57.891  1.00  0.00     0.030 A 
ENDBRANCH   1  22
TORSDOF 5
ENDMDL
MODEL 9
REMARK VINA RESULT:      -7.6     18.174     21.012
REMARK  5 active torsions:
REMARK  status: ('A' for Active; 'I' for Inactive)
REMARK    1  A    between atoms: C_5  and  N_6 
REMARK    2  A    between atoms: C_9  and  C_10 
REMARK    3  A    between atoms: C_10  and  N_11 
REMARK       I    between atoms: N_11  and  C_12 
REMARK       I    between atoms: C_12  and  N_13 
REMARK    4  A    between atoms: N_13  and  C_14 
REMARK    5  A    between atoms: C_14  and  C_15 
ROOT
HETATM    1  N   UNL     1     -36.113  41.123 -54.078  1.00  0.00    -0.319 N 
HETATM    2  C   UNL     1     -35.705  41.433 -55.377  1.00  0.00     0.021 A 
HETATM    3  C   UNL     1     -34.279  41.418 -55.828  1.00  0.00     0.069 C 
HETATM    4  C   UNL     1     -36.833  41.658 -56.156  1.00  0.00    -0.016 A 
HETATM    5  C   UNL     1     -37.955  41.433 -55.322  1.00  0.00     0.035 A 
HETATM    6  C   UNL     1     -37.505  41.099 -54.062  1.00  0.00     0.014 A 
HETATM    7  C   UNL     1     -38.342  40.862 -52.850  1.00  0.00     0.068 C 
ENDROOT
BRANCH   4   8
HETATM    8  C   UNL     1     -36.903  42.010 -57.607  1.00  0.00     0.165 C 
BRANCH   8   9
HETATM    9  N   UNL     1     -36.723  40.791 -58.359  1.00  0.00    -0.339 N 
HETATM   10  C   UNL     1     -37.079  40.740 -59.678  1.00  0.00     0.316 C 
HETATM   11  N   UNL     1     -37.039  39.455 -60.143  1.00  0.00    -0.339 N 
HETATM   12  O   UNL     1     -37.428  41.705 -60.341  1.00  0.00    -0.247 OA
HETATM   13  H   UNL     1     -36.349  38.854 -59.718  1.00  0.00     0.164 HD
HETATM   14  H   UNL     1     -36.832  39.928 -57.848  1.00  0.00     0.164 HD
BRANCH  11  15
HETATM   15  C   UNL     1     -37.421  39.147 -61.501  1.00  0.00     0.162 C 
BRANCH  15  16
HETATM   16  C   UNL     1     -38.764  38.462 -61.522  1.00  0.00    -0.040 A 
HETATM   17  C   UNL     1     -39.327  38.057 -62.743  1.00  0.00     0.009 A 
HETATM   18  C   UNL     1     -40.576  37.437 -62.778  1.00  0.00     0.001 A 
HETATM   19  C   UNL     1     -41.273  37.208 -61.593  1.00  0.00     0.000 A 
HETATM   20  C   UNL     1     -40.720  37.600 -60.374  1.00  0.00     0.001 A 
HETATM   21  C   UNL     1     -39.472  38.224 -60.338  1.00  0.00     0.009 A 
ENDBRANCH  15  16
ENDBRANCH  11  15
ENDBRANCH   8   9
ENDBRANCH   4   8
BRANCH   1  22
HETATM   22  C   UNL     1     -35.258  40.889 -52.962  1.00  0.00     0.039 A 
HETATM   23  C   UNL     1     -34.981  41.926 -52.064  1.00  0.00     0.030 A 
HETATM   24  C   UNL     1     -34.162  41.693 -50.956  1.00  0.00     0.009 A 
HETATM   25  C   UNL     1     -33.597  40.431 -50.741  1.00  0.00    -0.062 A 
HETATM   26  C   UNL     1     -32.752  40.171 -49.530  1.00  0.00     0.048 C 
HETATM   27  C   UNL     1     -33.882  39.396 -51.640  1.00  0.00     0.009 A 
HETATM   28  C   UNL     1     -34.705  39.622 -52.747  1.00  0.00     0.030 A 
ENDBRANCH   1  22
TORSDOF 5
ENDMDL
MODEL 10
REMARK VINA RESULT:      -7.6     18.590     20.509
REMARK  5 active torsions:
REMARK  status: ('A' for Active; 'I' for Inactive)
REMARK    1  A    between atoms: C_5  and  N_6 
REMARK    2  A    between atoms: C_9  and  C_10 
REMARK    3  A    between atoms: C_10  and  N_11 
REMARK       I    between atoms: N_11  and  C_12 
REMARK       I    between atoms: C_12  and  N_13 
REMARK    4  A    between atoms: N_13  and  C_14 
REMARK    5  A    between atoms: C_14  and  C_15 
ROOT
HETATM    1  N   UNL     1     -36.116  40.135 -58.381  1.00  0.00    -0.319 N 
HETATM    2  C   UNL     1     -35.066  39.497 -57.716  1.00  0.00     0.021 A 
HETATM    3  C   UNL     1     -34.674  38.074 -57.953  1.00  0.00     0.069 C 
HETATM    4  C   UNL     1     -34.432  40.422 -56.896  1.00  0.00    -0.016 A 
HETATM    5  C   UNL     1     -35.080  41.663 -57.105  1.00  0.00     0.035 A 
HETATM    6  C   UNL     1     -36.098  41.479 -58.018  1.00  0.00     0.014 A 
HETATM    7  C   UNL     1     -37.090  42.499 -58.464  1.00  0.00     0.068 C 
ENDROOT
BRANCH   4   8
HETATM    8  C   UNL     1     -33.254  40.212 -56.000  1.00  0.00     0.165 C 
BRANCH   8   9
HETATM    9  N   UNL     1     -33.469  40.997 -54.808  1.00  0.00    -0.339 N 
HETATM   10  C   UNL     1     -34.173  40.474 -53.760  1.00  0.00     0.316 C 
HETATM   11  N   UNL     1     -34.453  41.438 -52.832  1.00  0.00    -0.339 N 
HETATM   12  O   UNL     1     -34.540  39.311 -53.682  1.00  0.00    -0.247 OA
HETATM   13  H   UNL     1     -33.771  42.176 -52.746  1.00  0.00     0.164 HD
HETATM   14  H   UNL     1     -33.562  41.993 -54.938  1.00  0.00     0.164 HD
BRANCH  11  15
HETATM   15  C   UNL     1     -35.230  41.130 -51.655  1.00  0.00     0.162 C 
BRANCH  15  16
HETATM   16  C   UNL     1     -34.388  40.380 -50.655  1.00  0.00    -0.040 A 
HETATM   17  C   UNL     1     -34.934  39.296 -49.950  1.00  0.00     0.009 A 
HETATM   18  C   UNL     1     -34.171  38.603 -49.010  1.00  0.00     0.001 A 
HETATM   19  C   UNL     1     -32.852  38.982 -48.769  1.00  0.00     0.000 A 
HETATM   20  C   UNL     1     -32.297  40.053 -49.469  1.00  0.00     0.001 A 
HETATM   21  C   UNL     1     -33.061  40.750 -50.408  1.00  0.00     0.009 A 
ENDBRANCH  15  16
ENDBRANCH  11  15
ENDBRANCH   8   9
ENDBRANCH   4   8
BRANCH   1  22
HETATM   22  C   UNL     1     -37.050  39.518 -59.264  1.00  0.00     0.039 A 
HETATM   23  C   UNL     1     -38.195  38.900 -58.749  1.00  0.00     0.030 A 
HETATM   24  C   UNL     1     -39.124  38.316 -59.613  1.00  0.00     0.009 A 
HETATM   25  C   UNL     1     -38.914  38.325 -60.996  1.00  0.00    -0.062 A 
HETATM   26  C   UNL     1     -39.932  37.734 -61.925  1.00  0.00     0.048 C 
HETATM   27  C   UNL     1     -37.770  38.950 -61.507  1.00  0.00     0.009 A 
HETATM   28  C   UNL     1     -36.839  39.541 -60.646  1.00  0.00     0.030 A 
ENDBRANCH   1  22
TORSDOF 5
ENDMDL
