MODEL 1
REMARK VINA RESULT:      -8.0      0.000      0.000
REMARK  4 active torsions:
REMARK  status: ('A' for Active; 'I' for Inactive)
REMARK    1  A    between atoms: C_9  and  N_10 
REMARK    2  A    between atoms: N_10  and  C_12 
REMARK    3  A    between atoms: C_12  and  C_13 
REMARK    4  A    between atoms: C_14  and  C_15 
ROOT
HETATM    1  C   UNL     1     -43.173  58.595 -54.559  1.00  0.00     0.016 A 
HETATM    2  C   UNL     1     -42.799  58.913 -55.901  1.00  0.00     0.096 A 
HETATM    3  N   UNL     1     -41.987  59.976 -55.932  1.00  0.00    -0.174 NA
HETATM    4  N   UNL     1     -41.923  60.404 -54.667  1.00  0.00    -0.288 N 
HETATM    5  H   UNL     1     -41.389  61.247 -54.469  1.00  0.00     0.188 HD
HETATM    6  C   UNL     1     -42.589  59.590 -53.798  1.00  0.00     0.120 A 
ENDROOT
BRANCH   1   7
HETATM    7  C   UNL     1     -43.977  57.443 -54.068  1.00  0.00     0.277 C 
BRANCH   7   8
HETATM    8  N   UNL     1     -43.265  56.573 -53.046  1.00  0.00    -0.065 N 
HETATM    9  H   UNL     1     -42.303  56.925 -52.947  1.00  0.00     0.280 HD
HETATM   10  C   UNL     1     -43.936  56.614 -51.698  1.00  0.00     0.270 C 
BRANCH   8  11
HETATM   11  C   UNL     1     -43.293  55.157 -53.538  1.00  0.00     0.205 C 
HETATM   12  C   UNL     1     -42.300  54.764 -54.692  1.00  0.00     0.008 C 
HETATM   13  C   UNL     1     -43.027  54.446 -56.004  1.00  0.00     0.020 C 
HETATM   14  C   UNL     1     -41.069  55.627 -54.977  1.00  0.00     0.020 C 
HETATM   15  C   UNL     1     -41.982  53.468 -53.881  1.00  0.00     0.137 C 
HETATM   16  C   UNL     1     -42.602  54.106 -52.622  1.00  0.00     0.049 C 
HETATM   17  O   UNL     1     -40.597  53.169 -53.616  1.00  0.00    -0.385 OA
HETATM   18  C   UNL     1     -41.357  54.356 -51.766  1.00  0.00     0.035 C 
HETATM   19  C   UNL     1     -40.371  53.279 -52.207  1.00  0.00     0.168 C 
ENDBRANCH   8  11
ENDBRANCH   7   8
ENDBRANCH   1   7
BRANCH   2  20
HETATM   20  C   UNL     1     -43.135  58.201 -57.127  1.00  0.00    -0.002 A 
HETATM   21  C   UNL     1     -44.472  58.000 -57.485  1.00  0.00     0.053 A 
HETATM   22  C   UNL     1     -44.784  57.291 -58.645  1.00  0.00     0.103 A 
HETATM   23  C   UNL     1     -43.767  56.767 -59.446  1.00  0.00     0.102 A 
HETATM   24  O   UNL     1     -46.116  57.133 -58.925  1.00  0.00    -0.346 OA
HETATM   25  O   UNL     1     -44.004  56.034 -60.579  1.00  0.00    -0.346 OA
HETATM   26  C   UNL     1     -42.434  56.996 -59.115  1.00  0.00     0.040 A 
HETATM   27  C   UNL     1     -45.374  55.626 -60.679  1.00  0.00     0.202 C 
HETATM   28  C   UNL     1     -46.312  56.760 -60.297  1.00  0.00     0.202 C 
HETATM   29  C   UNL     1     -42.118  57.715 -57.959  1.00  0.00     0.017 A 
ENDBRANCH   2  20
TORSDOF 4
ENDMDL
MODEL 2
REMARK VINA RESULT:      -8.0      2.403      6.967
REMARK  4 active torsions:
REMARK  status: ('A' for Active; 'I' for Inactive)
REMARK    1  A    between atoms: C_9  and  N_10 
REMARK    2  A    between atoms: N_10  and  C_12 
REMARK    3  A    between atoms: C_12  and  C_13 
REMARK    4  A    between atoms: C_14  and  C_15 
ROOT
HETATM    1  C   UNL     1     -41.218  56.692 -52.003  1.00  0.00     0.016 A 
HETATM    2  C   UNL     1     -41.246  55.344 -51.526  1.00  0.00     0.096 A 
HETATM    3  N   UNL     1     -41.570  55.302 -50.229  1.00  0.00    -0.174 NA
HETATM    4  N   UNL     1     -41.642  56.581 -49.846  1.00  0.00    -0.288 N 
HETATM    5  H   UNL     1     -41.831  56.781 -48.866  1.00  0.00     0.188 HD
HETATM    6  C   UNL     1     -41.472  57.455 -50.879  1.00  0.00     0.120 A 
ENDROOT
BRANCH   1   7
HETATM    7  C   UNL     1     -41.000  57.180 -53.391  1.00  0.00     0.277 C 
BRANCH   7   8
HETATM    8  N   UNL     1     -41.982  58.248 -53.840  1.00  0.00    -0.065 N 
HETATM    9  H   UNL     1     -42.823  58.172 -53.252  1.00  0.00     0.280 HD
HETATM   10  C   UNL     1     -41.417  59.637 -53.696  1.00  0.00     0.270 C 
BRANCH   8  11
HETATM   11  C   UNL     1     -42.292  58.019 -55.288  1.00  0.00     0.205 C 
HETATM   12  C   UNL     1     -43.326  56.891 -55.645  1.00  0.00     0.008 C 
HETATM   13  C   UNL     1     -42.672  55.707 -56.369  1.00  0.00     0.020 C 
HETATM   14  C   UNL     1     -44.302  56.376 -54.585  1.00  0.00     0.020 C 
HETATM   15  C   UNL     1     -43.969  57.896 -56.653  1.00  0.00     0.137 C 
HETATM   16  C   UNL     1     -43.237  59.060 -55.954  1.00  0.00     0.049 C 
HETATM   17  O   UNL     1     -45.390  58.118 -56.559  1.00  0.00    -0.385 OA
HETATM   18  C   UNL     1     -44.401  59.774 -55.259  1.00  0.00     0.035 C 
HETATM   19  C   UNL     1     -45.612  59.467 -56.136  1.00  0.00     0.168 C 
ENDBRANCH   8  11
ENDBRANCH   7   8
ENDBRANCH   1   7
BRANCH   2  20
HETATM   20  C   UNL     1     -41.041  54.113 -52.279  1.00  0.00    -0.002 A 
HETATM   21  C   UNL     1     -40.295  53.065 -51.732  1.00  0.00     0.053 A 
HETATM   22  C   UNL     1     -40.078  51.903 -52.473  1.00  0.00     0.103 A 
HETATM   23  C   UNL     1     -40.591  51.785 -53.767  1.00  0.00     0.102 A 
HETATM   24  O   UNL     1     -39.334  50.924 -51.870  1.00  0.00    -0.346 OA
HETATM   25  O   UNL     1     -40.389  50.687 -54.560  1.00  0.00    -0.346 OA
HETATM   26  C   UNL     1     -41.367  52.811 -54.302  1.00  0.00     0.040 A 
HETATM   27  C   UNL     1     -39.369  49.827 -54.036  1.00  0.00     0.202 C 
HETATM   28  C   UNL     1     -39.512  49.662 -52.531  1.00  0.00     0.202 C 
HETATM   29  C   UNL     1     -41.594  53.972 -53.559  1.00  0.00     0.017 A 
ENDBRANCH   2  20
TORSDOF 4
ENDMDL
MODEL 3
REMARK VINA RESULT:      -7.7      1.860      6.841
REMARK  4 active torsions:
REMARK  status: ('A' for Active; 'I' for Inactive)
REMARK    1  A    between atoms: C_9  and  N_10 
REMARK    2  A    between atoms: N_10  and  C_12 
REMARK    3  A    between atoms: C_12  and  C_13 
REMARK    4  A    between atoms: C_14  and  C_15 
ROOT
HETATM    1  C   UNL     1     -42.876  57.166 -51.839  1.00  0.00     0.016 A 
HETATM    2  C   UNL     1     -42.893  55.853 -51.275  1.00  0.00     0.096 A 
HETATM    3  N   UNL     1     -44.021  55.643 -50.587  1.00  0.00    -0.174 NA
HETATM    4  N   UNL     1     -44.666  56.814 -50.608  1.00  0.00    -0.288 N 
HETATM    5  H   UNL     1     -45.540  56.893 -50.093  1.00  0.00     0.188 HD
HETATM    6  C   UNL     1     -44.039  57.752 -51.375  1.00  0.00     0.120 A 
ENDROOT
BRANCH   1   7
HETATM    7  C   UNL     1     -41.865  57.772 -52.748  1.00  0.00     0.277 C 
BRANCH   7   8
HETATM    8  N   UNL     1     -42.456  58.527 -53.926  1.00  0.00    -0.065 N 
HETATM    9  H   UNL     1     -43.480  58.450 -53.870  1.00  0.00     0.280 HD
HETATM   10  C   UNL     1     -42.080  59.985 -53.913  1.00  0.00     0.270 C 
BRANCH   8  11
HETATM   11  C   UNL     1     -41.919  57.919 -55.187  1.00  0.00     0.205 C 
HETATM   12  C   UNL     1     -42.461  56.504 -55.605  1.00  0.00     0.008 C 
HETATM   13  C   UNL     1     -41.384  55.415 -55.507  1.00  0.00     0.020 C 
HETATM   14  C   UNL     1     -43.779  55.982 -55.029  1.00  0.00     0.020 C 
HETATM   15  C   UNL     1     -42.588  57.059 -57.059  1.00  0.00     0.137 C 
HETATM   16  C   UNL     1     -42.486  58.498 -56.515  1.00  0.00     0.049 C 
HETATM   17  O   UNL     1     -43.857  56.902 -57.724  1.00  0.00    -0.385 OA
HETATM   18  C   UNL     1     -43.918  59.001 -56.724  1.00  0.00     0.035 C 
HETATM   19  C   UNL     1     -44.432  58.198 -57.916  1.00  0.00     0.168 C 
ENDBRANCH   8  11
ENDBRANCH   7   8
ENDBRANCH   1   7
BRANCH   2  20
HETATM   20  C   UNL     1     -41.909  54.789 -51.427  1.00  0.00    -0.002 A 
HETATM   21  C   UNL     1     -41.918  53.975 -52.564  1.00  0.00     0.053 A 
HETATM   22  C   UNL     1     -40.992  52.939 -52.686  1.00  0.00     0.103 A 
HETATM   23  C   UNL     1     -40.062  52.700 -51.671  1.00  0.00     0.102 A 
HETATM   24  O   UNL     1     -41.067  52.183 -53.827  1.00  0.00    -0.346 OA
HETATM   25  O   UNL     1     -39.148  51.681 -51.713  1.00  0.00    -0.346 OA
HETATM   26  C   UNL     1     -40.025  53.531 -50.554  1.00  0.00     0.040 A 
HETATM   27  C   UNL     1     -39.444  50.735 -52.747  1.00  0.00     0.202 C 
HETATM   28  C   UNL     1     -39.857  51.438 -54.030  1.00  0.00     0.202 C 
HETATM   29  C   UNL     1     -40.945  54.575 -50.433  1.00  0.00     0.017 A 
ENDBRANCH   2  20
TORSDOF 4
ENDMDL
MODEL 4
REMARK VINA RESULT:      -7.6      3.417      5.655
REMARK  4 active torsions:
REMARK  status: ('A' for Active; 'I' for Inactive)
REMARK    1  A    between atoms: C_9  and  N_10 
REMARK    2  A    between atoms: N_10  and  C_12 
REMARK    3  A    between atoms: C_12  and  C_13 
REMARK    4  A    between atoms: C_14  and  C_15 
ROOT
HETATM    1  C   UNL     1     -42.909  55.727 -55.379  1.00  0.00     0.016 A 
HETATM    2  C   UNL     1     -42.456  57.082 -55.355  1.00  0.00     0.096 A 
HETATM    3  N   UNL     1     -42.216  57.528 -56.593  1.00  0.00    -0.174 NA
HETATM    4  N   UNL     1     -42.398  56.469 -57.387  1.00  0.00    -0.288 N 
HETATM    5  H   UNL     1     -42.216  56.574 -58.383  1.00  0.00     0.188 HD
HETATM    6  C   UNL     1     -42.847  55.371 -56.713  1.00  0.00     0.120 A 
ENDROOT
BRANCH   1   7
HETATM    7  C   UNL     1     -43.376  54.884 -54.245  1.00  0.00     0.277 C 
BRANCH   7   8
HETATM    8  N   UNL     1     -42.260  54.337 -53.371  1.00  0.00    -0.065 N 
HETATM    9  H   UNL     1     -42.529  53.391 -53.070  1.00  0.00     0.280 HD
HETATM   10  C   UNL     1     -40.949  54.256 -54.108  1.00  0.00     0.270 C 
BRANCH   8  11
HETATM   11  C   UNL     1     -42.083  55.264 -52.206  1.00  0.00     0.205 C 
HETATM   12  C   UNL     1     -43.100  55.143 -51.014  1.00  0.00     0.008 C 
HETATM   13  C   UNL     1     -44.008  56.373 -50.895  1.00  0.00     0.020 C 
HETATM   14  C   UNL     1     -43.926  53.868 -50.832  1.00  0.00     0.020 C 
HETATM   15  C   UNL     1     -41.874  55.237 -50.050  1.00  0.00     0.137 C 
HETATM   16  C   UNL     1     -40.930  54.907 -51.223  1.00  0.00     0.049 C 
HETATM   17  O   UNL     1     -41.738  54.216 -49.042  1.00  0.00    -0.385 OA
HETATM   18  C   UNL     1     -40.482  53.488 -50.859  1.00  0.00     0.035 C 
HETATM   19  C   UNL     1     -40.572  53.441 -49.336  1.00  0.00     0.168 C 
ENDBRANCH   8  11
ENDBRANCH   7   8
ENDBRANCH   1   7
BRANCH   2  20
HETATM   20  C   UNL     1     -42.314  57.969 -54.207  1.00  0.00    -0.002 A 
HETATM   21  C   UNL     1     -43.428  58.627 -53.678  1.00  0.00     0.053 A 
HETATM   22  C   UNL     1     -43.276  59.498 -52.599  1.00  0.00     0.103 A 
HETATM   23  C   UNL     1     -42.013  59.728 -52.050  1.00  0.00     0.102 A 
HETATM   24  O   UNL     1     -44.415  60.107 -52.141  1.00  0.00    -0.346 OA
HETATM   25  O   UNL     1     -41.789  60.594 -51.013  1.00  0.00    -0.346 OA
HETATM   26  C   UNL     1     -40.905  59.047 -52.549  1.00  0.00     0.040 A 
HETATM   27  C   UNL     1     -42.921  61.435 -50.761  1.00  0.00     0.202 C 
HETATM   28  C   UNL     1     -44.217  60.642 -50.824  1.00  0.00     0.202 C 
HETATM   29  C   UNL     1     -41.055  58.167 -53.623  1.00  0.00     0.017 A 
ENDBRANCH   2  20
TORSDOF 4
ENDMDL
MODEL 5
REMARK VINA RESULT:      -7.4      2.463      7.160
REMARK  4 active torsions:
REMARK  status: ('A' for Active; 'I' for Inactive)
REMARK    1  A    between atoms: C_9  and  N_10 
REMARK    2  A    between atoms: N_10  and  C_12 
REMARK    3  A    between atoms: C_12  and  C_13 
REMARK    4  A    between atoms: C_14  and  C_15 
ROOT
HETATM    1  C   UNL     1     -42.514  56.241 -51.883  1.00  0.00     0.016 A 
HETATM    2  C   UNL     1     -41.452  55.599 -51.173  1.00  0.00     0.096 A 
HETATM    3  N   UNL     1     -40.963  56.399 -50.220  1.00  0.00    -0.174 NA
HETATM    4  N   UNL     1     -41.606  57.561 -50.374  1.00  0.00    -0.288 N 
HETATM    5  H   UNL     1     -41.347  58.340 -49.773  1.00  0.00     0.188 HD
HETATM    6  C   UNL     1     -42.571  57.509 -51.337  1.00  0.00     0.120 A 
ENDROOT
BRANCH   1   7
HETATM    7  C   UNL     1     -43.391  55.680 -52.947  1.00  0.00     0.277 C 
BRANCH   7   8
HETATM    8  N   UNL     1     -42.920  55.968 -54.362  1.00  0.00    -0.065 N 
HETATM    9  H   UNL     1     -41.966  56.347 -54.307  1.00  0.00     0.280 HD
HETATM   10  C   UNL     1     -42.898  54.728 -55.217  1.00  0.00     0.270 C 
BRANCH   8  11
HETATM   11  C   UNL     1     -43.874  56.945 -54.981  1.00  0.00     0.205 C 
HETATM   12  C   UNL     1     -43.544  58.475 -54.845  1.00  0.00     0.008 C 
HETATM   13  C   UNL     1     -44.546  59.211 -53.946  1.00  0.00     0.020 C 
HETATM   14  C   UNL     1     -42.121  58.931 -54.517  1.00  0.00     0.020 C 
HETATM   15  C   UNL     1     -43.914  58.618 -56.356  1.00  0.00     0.137 C 
HETATM   16  C   UNL     1     -43.787  57.091 -56.528  1.00  0.00     0.049 C 
HETATM   17  O   UNL     1     -42.957  59.264 -57.219  1.00  0.00    -0.385 OA
HETATM   18  C   UNL     1     -42.505  56.987 -57.359  1.00  0.00     0.035 C 
HETATM   19  C   UNL     1     -42.454  58.295 -58.144  1.00  0.00     0.168 C 
ENDBRANCH   8  11
ENDBRANCH   7   8
ENDBRANCH   1   7
BRANCH   2  20
HETATM   20  C   UNL     1     -40.946  54.242 -51.334  1.00  0.00    -0.002 A 
HETATM   21  C   UNL     1     -40.705  53.722 -52.609  1.00  0.00     0.053 A 
HETATM   22  C   UNL     1     -40.251  52.411 -52.753  1.00  0.00     0.103 A 
HETATM   23  C   UNL     1     -40.047  51.608 -51.630  1.00  0.00     0.102 A 
HETATM   24  O   UNL     1     -40.042  51.974 -54.035  1.00  0.00    -0.346 OA
HETATM   25  O   UNL     1     -39.633  50.304 -51.701  1.00  0.00    -0.346 OA
HETATM   26  C   UNL     1     -40.249  52.132 -50.355  1.00  0.00     0.040 A 
HETATM   27  C   UNL     1     -39.720  49.785 -53.034  1.00  0.00     0.202 C 
HETATM   28  C   UNL     1     -39.218  50.800 -54.050  1.00  0.00     0.202 C 
HETATM   29  C   UNL     1     -40.695  53.448 -50.206  1.00  0.00     0.017 A 
ENDBRANCH   2  20
TORSDOF 4
ENDMDL
MODEL 6
REMARK VINA RESULT:      -7.3      3.813      7.117
REMARK  4 active torsions:
REMARK  status: ('A' for Active; 'I' for Inactive)
REMARK    1  A    between atoms: C_9  and  N_10 
REMARK    2  A    between atoms: N_10  and  C_12 
REMARK    3  A    between atoms: C_12  and  C_13 
REMARK    4  A    between atoms: C_14  and  C_15 
ROOT
HETATM    1  C   UNL     1     -43.210  56.319 -53.781  1.00  0.00     0.016 A 
HETATM    2  C   UNL     1     -42.580  55.200 -54.409  1.00  0.00     0.096 A 
HETATM    3  N   UNL     1     -42.814  55.198 -55.726  1.00  0.00    -0.174 NA
HETATM    4  N   UNL     1     -43.656  56.215 -55.934  1.00  0.00    -0.288 N 
HETATM    5  H   UNL     1     -44.009  56.365 -56.876  1.00  0.00     0.188 HD
HETATM    6  C   UNL     1     -43.899  56.941 -54.805  1.00  0.00     0.120 A 
ENDROOT
BRANCH   1   7
HETATM    7  C   UNL     1     -43.128  56.753 -52.360  1.00  0.00     0.277 C 
BRANCH   7   8
HETATM    8  N   UNL     1     -43.977  57.967 -52.026  1.00  0.00    -0.065 N 
HETATM    9  H   UNL     1     -44.275  58.398 -52.911  1.00  0.00     0.280 HD
HETATM   10  C   UNL     1     -45.204  57.601 -51.231  1.00  0.00     0.270 C 
BRANCH   8  11
HETATM   11  C   UNL     1     -43.149  58.904 -51.200  1.00  0.00     0.205 C 
HETATM   12  C   UNL     1     -42.073  59.777 -51.942  1.00  0.00     0.008 C 
HETATM   13  C   UNL     1     -40.640  59.375 -51.572  1.00  0.00     0.020 C 
HETATM   14  C   UNL     1     -42.174  60.006 -53.451  1.00  0.00     0.020 C 
HETATM   15  C   UNL     1     -42.569  60.988 -51.090  1.00  0.00     0.137 C 
HETATM   16  C   UNL     1     -43.856  60.213 -50.743  1.00  0.00     0.049 C 
HETATM   17  O   UNL     1     -42.929  62.194 -51.792  1.00  0.00    -0.385 OA
HETATM   18  C   UNL     1     -44.901  60.986 -51.553  1.00  0.00     0.035 C 
HETATM   19  C   UNL     1     -44.337  62.401 -51.648  1.00  0.00     0.168 C 
ENDBRANCH   8  11
ENDBRANCH   7   8
ENDBRANCH   1   7
BRANCH   2  20
HETATM   20  C   UNL     1     -41.721  54.189 -53.806  1.00  0.00    -0.002 A 
HETATM   21  C   UNL     1     -41.559  52.943 -54.418  1.00  0.00     0.053 A 
HETATM   22  C   UNL     1     -40.760  51.970 -53.818  1.00  0.00     0.103 A 
HETATM   23  C   UNL     1     -40.130  52.229 -52.598  1.00  0.00     0.102 A 
HETATM   24  O   UNL     1     -40.654  50.773 -54.477  1.00  0.00    -0.346 OA
HETATM   25  O   UNL     1     -39.358  51.309 -51.939  1.00  0.00    -0.346 OA
HETATM   26  C   UNL     1     -40.258  53.481 -52.003  1.00  0.00     0.040 A 
HETATM   27  C   UNL     1     -39.513  49.991 -52.481  1.00  0.00     0.202 C 
HETATM   28  C   UNL     1     -39.527  50.022 -54.001  1.00  0.00     0.202 C 
HETATM   29  C   UNL     1     -41.050  54.461 -52.607  1.00  0.00     0.017 A 
ENDBRANCH   2  20
TORSDOF 4
ENDMDL
MODEL 7
REMARK VINA RESULT:      -7.3      2.536      3.542
REMARK  4 active torsions:
REMARK  status: ('A' for Active; 'I' for Inactive)
REMARK    1  A    between atoms: C_9  and  N_10 
REMARK    2  A    between atoms: N_10  and  C_12 
REMARK    3  A    between atoms: C_12  and  C_13 
REMARK    4  A    between atoms: C_14  and  C_15 
ROOT
HETATM    1  C   UNL     1     -41.885  57.815 -51.494  1.00  0.00     0.016 A 
HETATM    2  C   UNL     1     -41.740  58.867 -52.451  1.00  0.00     0.096 A 
HETATM    3  N   UNL     1     -40.801  59.738 -52.064  1.00  0.00    -0.174 NA
HETATM    4  N   UNL     1     -40.425  59.331 -50.848  1.00  0.00    -0.288 N 
HETATM    5  H   UNL     1     -39.743  59.890 -50.341  1.00  0.00     0.188 HD
HETATM    6  C   UNL     1     -41.020  58.162 -50.473  1.00  0.00     0.120 A 
ENDROOT
BRANCH   1   7
HETATM    7  C   UNL     1     -42.739  56.599 -51.575  1.00  0.00     0.277 C 
BRANCH   7   8
HETATM    8  N   UNL     1     -41.967  55.291 -51.565  1.00  0.00    -0.065 N 
HETATM    9  H   UNL     1     -40.965  55.514 -51.622  1.00  0.00     0.280 HD
HETATM   10  C   UNL     1     -42.214  54.495 -50.310  1.00  0.00     0.270 C 
BRANCH   8  11
HETATM   11  C   UNL     1     -42.423  54.471 -52.734  1.00  0.00     0.205 C 
HETATM   12  C   UNL     1     -41.876  54.858 -54.156  1.00  0.00     0.008 C 
HETATM   13  C   UNL     1     -42.974  55.413 -55.073  1.00  0.00     0.020 C 
HETATM   14  C   UNL     1     -40.610  55.706 -54.291  1.00  0.00     0.020 C 
HETATM   15  C   UNL     1     -41.638  53.333 -54.402  1.00  0.00     0.137 C 
HETATM   16  C   UNL     1     -41.755  53.074 -52.886  1.00  0.00     0.049 C 
HETATM   17  O   UNL     1     -40.329  52.926 -54.843  1.00  0.00    -0.385 OA
HETATM   18  C   UNL     1     -40.305  52.740 -52.525  1.00  0.00     0.035 C 
HETATM   19  C   UNL     1     -39.721  52.150 -53.806  1.00  0.00     0.168 C 
ENDBRANCH   8  11
ENDBRANCH   7   8
ENDBRANCH   1   7
BRANCH   2  20
HETATM   20  C   UNL     1     -42.414  59.025 -53.733  1.00  0.00    -0.002 A 
HETATM   21  C   UNL     1     -41.691  59.385 -54.874  1.00  0.00     0.053 A 
HETATM   22  C   UNL     1     -42.350  59.563 -56.090  1.00  0.00     0.103 A 
HETATM   23  C   UNL     1     -43.734  59.397 -56.173  1.00  0.00     0.102 A 
HETATM   24  O   UNL     1     -41.573  59.920 -57.160  1.00  0.00    -0.346 OA
HETATM   25  O   UNL     1     -44.448  59.588 -57.326  1.00  0.00    -0.346 OA
HETATM   26  C   UNL     1     -44.455  59.002 -55.048  1.00  0.00     0.040 A 
HETATM   27  C   UNL     1     -43.673  60.249 -58.334  1.00  0.00     0.202 C 
HETATM   28  C   UNL     1     -42.262  59.686 -58.397  1.00  0.00     0.202 C 
HETATM   29  C   UNL     1     -43.796  58.813 -53.831  1.00  0.00     0.017 A 
ENDBRANCH   2  20
TORSDOF 4
ENDMDL
MODEL 8
REMARK VINA RESULT:      -7.2      2.105      7.030
REMARK  4 active torsions:
REMARK  status: ('A' for Active; 'I' for Inactive)
REMARK    1  A    between atoms: C_9  and  N_10 
REMARK    2  A    between atoms: N_10  and  C_12 
REMARK    3  A    between atoms: C_12  and  C_13 
REMARK    4  A    between atoms: C_14  and  C_15 
ROOT
HETATM    1  C   UNL     1     -43.929  58.795 -51.981  1.00  0.00     0.016 A 
HETATM    2  C   UNL     1     -44.213  57.599 -51.251  1.00  0.00     0.096 A 
HETATM    3  N   UNL     1     -45.425  57.659 -50.690  1.00  0.00    -0.174 NA
HETATM    4  N   UNL     1     -45.872  58.891 -50.951  1.00  0.00    -0.288 N 
HETATM    5  H   UNL     1     -46.772  59.171 -50.567  1.00  0.00     0.188 HD
HETATM    6  C   UNL     1     -45.027  59.603 -51.752  1.00  0.00     0.120 A 
ENDROOT
BRANCH   1   7
HETATM    7  C   UNL     1     -42.746  59.106 -52.828  1.00  0.00     0.277 C 
BRANCH   7   8
HETATM    8  N   UNL     1     -43.074  59.382 -54.285  1.00  0.00    -0.065 N 
HETATM    9  H   UNL     1     -44.081  59.222 -54.418  1.00  0.00     0.280 HD
HETATM   10  C   UNL     1     -42.755  60.800 -54.681  1.00  0.00     0.270 C 
BRANCH   8  11
HETATM   11  C   UNL     1     -42.246  58.464 -55.133  1.00  0.00     0.205 C 
HETATM   12  C   UNL     1     -42.676  56.955 -55.212  1.00  0.00     0.008 C 
HETATM   13  C   UNL     1     -41.665  56.023 -54.533  1.00  0.00     0.020 C 
HETATM   14  C   UNL     1     -44.100  56.538 -54.835  1.00  0.00     0.020 C 
HETATM   15  C   UNL     1     -42.436  57.040 -56.753  1.00  0.00     0.137 C 
HETATM   16  C   UNL     1     -42.462  58.579 -56.669  1.00  0.00     0.049 C 
HETATM   17  O   UNL     1     -43.501  56.603 -57.620  1.00  0.00    -0.385 OA
HETATM   18  C   UNL     1     -43.794  58.895 -57.357  1.00  0.00     0.035 C 
HETATM   19  C   UNL     1     -44.002  57.739 -58.331  1.00  0.00     0.168 C 
ENDBRANCH   8  11
ENDBRANCH   7   8
ENDBRANCH   1   7
BRANCH   2  20
HETATM   20  C   UNL     1     -43.399  56.396 -51.132  1.00  0.00    -0.002 A 
HETATM   21  C   UNL     1     -42.115  56.462 -50.583  1.00  0.00     0.053 A 
HETATM   22  C   UNL     1     -41.332  55.310 -50.502  1.00  0.00     0.103 A 
HETATM   23  C   UNL     1     -41.818  54.091 -50.980  1.00  0.00     0.102 A 
HETATM   24  O   UNL     1     -40.084  55.457 -49.956  1.00  0.00    -0.346 OA
HETATM   25  O   UNL     1     -41.091  52.931 -50.961  1.00  0.00    -0.346 OA
HETATM   26  C   UNL     1     -43.111  54.013 -51.493  1.00  0.00     0.040 A 
HETATM   27  C   UNL     1     -39.707  53.169 -50.678  1.00  0.00     0.202 C 
HETATM   28  C   UNL     1     -39.544  54.187 -49.560  1.00  0.00     0.202 C 
HETATM   29  C   UNL     1     -43.901  55.162 -51.567  1.00  0.00     0.017 A 
ENDBRANCH   2  20
TORSDOF 4
ENDMDL
MODEL 9
REMARK VINA RESULT:      -7.2      2.229      6.870
REMARK  4 active torsions:
REMARK  status: ('A' for Active; 'I' for Inactive)
REMARK    1  A    between atoms: C_9  and  N_10 
REMARK    2  A    between atoms: N_10  and  C_12 
REMARK    3  A    between atoms: C_12  and  C_13 
REMARK    4  A    between atoms: C_14  and  C_15 
ROOT
HETATM    1  C   UNL     1     -42.704  57.256 -52.223  1.00  0.00     0.016 A 
HETATM    2  C   UNL     1     -42.872  55.873 -51.904  1.00  0.00     0.096 A 
HETATM    3  N   UNL     1     -43.801  55.711 -50.956  1.00  0.00    -0.174 NA
HETATM    4  N   UNL     1     -44.147  56.949 -50.590  1.00  0.00    -0.288 N 
HETATM    5  H   UNL     1     -44.817  57.059 -49.832  1.00  0.00     0.188 HD
HETATM    6  C   UNL     1     -43.543  57.913 -51.343  1.00  0.00     0.120 A 
ENDROOT
BRANCH   1   7
HETATM    7  C   UNL     1     -41.852  57.868 -53.279  1.00  0.00     0.277 C 
BRANCH   7   8
HETATM    8  N   UNL     1     -42.526  58.985 -54.057  1.00  0.00    -0.065 N 
HETATM    9  H   UNL     1     -43.526  58.978 -53.818  1.00  0.00     0.280 HD
HETATM   10  C   UNL     1     -41.957  60.338 -53.717  1.00  0.00     0.270 C 
BRANCH   8  11
HETATM   11  C   UNL     1     -42.300  58.738 -55.518  1.00  0.00     0.205 C 
HETATM   12  C   UNL     1     -43.269  57.740 -56.250  1.00  0.00     0.008 C 
HETATM   13  C   UNL     1     -42.558  56.453 -56.688  1.00  0.00     0.020 C 
HETATM   14  C   UNL     1     -44.629  57.399 -55.639  1.00  0.00     0.020 C 
HETATM   15  C   UNL     1     -43.347  58.778 -57.414  1.00  0.00     0.137 C 
HETATM   16  C   UNL     1     -42.779  59.865 -56.479  1.00  0.00     0.049 C 
HETATM   17  O   UNL     1     -44.656  59.185 -57.858  1.00  0.00    -0.385 OA
HETATM   18  C   UNL     1     -44.010  60.750 -56.264  1.00  0.00     0.035 C 
HETATM   19  C   UNL     1     -44.836  60.567 -57.535  1.00  0.00     0.168 C 
ENDBRANCH   8  11
ENDBRANCH   7   8
ENDBRANCH   1   7
BRANCH   2  20
HETATM   20  C   UNL     1     -42.229  54.717 -52.517  1.00  0.00    -0.002 A 
HETATM   21  C   UNL     1     -41.285  53.972 -51.805  1.00  0.00     0.053 A 
HETATM   22  C   UNL     1     -40.652  52.887 -52.412  1.00  0.00     0.103 A 
HETATM   23  C   UNL     1     -40.946  52.547 -53.734  1.00  0.00     0.102 A 
HETATM   24  O   UNL     1     -39.737  52.209 -51.650  1.00  0.00    -0.346 OA
HETATM   25  O   UNL     1     -40.339  51.516 -54.399  1.00  0.00    -0.346 OA
HETATM   26  C   UNL     1     -41.913  53.263 -54.436  1.00  0.00     0.040 A 
HETATM   27  C   UNL     1     -39.187  51.029 -53.700  1.00  0.00     0.202 C 
HETATM   28  C   UNL     1     -39.460  50.916 -52.208  1.00  0.00     0.202 C 
HETATM   29  C   UNL     1     -42.556  54.345 -53.829  1.00  0.00     0.017 A 
ENDBRANCH   2  20
TORSDOF 4
ENDMDL
MODEL 10
REMARK VINA RESULT:      -7.1      1.910      6.953
REMARK  4 active torsions:
REMARK  status: ('A' for Active; 'I' for Inactive)
REMARK    1  A    between atoms: C_9  and  N_10 
REMARK    2  A    between atoms: N_10  and  C_12 
REMARK    3  A    between atoms: C_12  and  C_13 
REMARK    4  A    between atoms: C_14  and  C_15 
ROOT
HETATM    1  C   UNL     1     -43.821  56.799 -53.409  1.00  0.00     0.016 A 
HETATM    2  C   UNL     1     -43.347  56.051 -52.287  1.00  0.00     0.096 A 
HETATM    3  N   UNL     1     -44.038  56.357 -51.183  1.00  0.00    -0.174 NA
HETATM    4  N   UNL     1     -44.857  57.349 -51.547  1.00  0.00    -0.288 N 
HETATM    5  H   UNL     1     -45.448  57.773 -50.835  1.00  0.00     0.188 HD
HETATM    6  C   UNL     1     -44.791  57.629 -52.880  1.00  0.00     0.120 A 
ENDROOT
BRANCH   1   7
HETATM    7  C   UNL     1     -43.404  56.698 -54.834  1.00  0.00     0.277 C 
BRANCH   7   8
HETATM    8  N   UNL     1     -42.957  58.013 -55.449  1.00  0.00    -0.065 N 
HETATM    9  H   UNL     1     -43.770  58.644 -55.471  1.00  0.00     0.280 HD
HETATM   10  C   UNL     1     -41.859  58.669 -54.654  1.00  0.00     0.270 C 
BRANCH   8  11
HETATM   11  C   UNL     1     -42.433  57.731 -56.825  1.00  0.00     0.205 C 
HETATM   12  C   UNL     1     -43.478  57.416 -57.956  1.00  0.00     0.008 C 
HETATM   13  C   UNL     1     -43.395  55.962 -58.438  1.00  0.00     0.020 C 
HETATM   14  C   UNL     1     -44.943  57.823 -57.787  1.00  0.00     0.020 C 
HETATM   15  C   UNL     1     -42.663  58.376 -58.880  1.00  0.00     0.137 C 
HETATM   16  C   UNL     1     -41.964  58.970 -57.640  1.00  0.00     0.049 C 
HETATM   17  O   UNL     1     -43.385  59.424 -59.554  1.00  0.00    -0.385 OA
HETATM   18  C   UNL     1     -42.596  60.364 -57.578  1.00  0.00     0.035 C 
HETATM   19  C   UNL     1     -42.954  60.683 -59.027  1.00  0.00     0.168 C 
ENDBRANCH   8  11
ENDBRANCH   7   8
ENDBRANCH   1   7
BRANCH   2  20
HETATM   20  C   UNL     1     -42.316  55.022 -52.254  1.00  0.00    -0.002 A 
HETATM   21  C   UNL     1     -42.236  54.068 -53.274  1.00  0.00     0.053 A 
HETATM   22  C   UNL     1     -41.266  53.068 -53.217  1.00  0.00     0.103 A 
HETATM   23  C   UNL     1     -40.379  53.004 -52.140  1.00  0.00     0.102 A 
HETATM   24  O   UNL     1     -41.254  52.169 -54.251  1.00  0.00    -0.346 OA
HETATM   25  O   UNL     1     -39.425  52.031 -52.007  1.00  0.00    -0.346 OA
HETATM   26  C   UNL     1     -40.430  53.974 -51.141  1.00  0.00     0.040 A 
HETATM   27  C   UNL     1     -39.632  50.947 -52.920  1.00  0.00     0.202 C 
HETATM   28  C   UNL     1     -40.008  51.459 -54.302  1.00  0.00     0.202 C 
HETATM   29  C   UNL     1     -41.395  54.983 -51.199  1.00  0.00     0.017 A 
ENDBRANCH   2  20
TORSDOF 4
ENDMDL
