MODEL 1
REMARK VINA RESULT:      -7.4      0.000      0.000
REMARK  4 active torsions:
REMARK  status: ('A' for Active; 'I' for Inactive)
REMARK    1  A    between atoms: C_9  and  N_10 
REMARK    2  A    between atoms: N_10  and  C_12 
REMARK    3  A    between atoms: C_12  and  C_13 
REMARK    4  A    between atoms: C_14  and  C_15 
ROOT
HETATM    1  C   UNL     1     -43.045  57.120 -52.315  1.00  0.00     0.016 A 
HETATM    2  C   UNL     1     -42.969  55.850 -51.658  1.00  0.00     0.096 A 
HETATM    3  N   UNL     1     -44.008  55.676 -50.834  1.00  0.00    -0.174 NA
HETATM    4  N   UNL     1     -44.740  56.786 -50.949  1.00  0.00    -0.288 N 
HETATM    5  H   UNL     1     -45.596  56.855 -50.403  1.00  0.00     0.188 HD
HETATM    6  C   UNL     1     -44.216  57.682 -51.838  1.00  0.00     0.120 A 
ENDROOT
BRANCH   1   7
HETATM    7  C   UNL     1     -42.108  57.636 -53.352  1.00  0.00     0.277 C 
BRANCH   7   8
HETATM    8  N   UNL     1     -42.656  58.762 -54.209  1.00  0.00    -0.065 N 
HETATM    9  H   UNL     1     -43.679  58.684 -54.215  1.00  0.00     0.280 HD
HETATM   10  C   UNL     1     -42.255  60.110 -53.658  1.00  0.00     0.270 C 
BRANCH   8  11
HETATM   11  C   UNL     1     -42.066  58.649 -55.589  1.00  0.00     0.205 C 
HETATM   12  C   UNL     1     -42.975  59.149 -56.827  1.00  0.00     0.008 C 
HETATM   13  C   UNL     1     -42.174  59.573 -58.066  1.00  0.00     0.020 C 
HETATM   14  C   UNL     1     -44.110  60.147 -56.595  1.00  0.00     0.020 C 
HETATM   15  C   UNL     1     -43.501  57.708 -56.828  1.00  0.00     0.137 C 
HETATM   16  C   UNL     1     -42.134  57.232 -56.268  1.00  0.00     0.049 C 
HETATM   17  O   UNL     1     -43.772  56.874 -57.955  1.00  0.00    -0.385 OA
HETATM   18  C   UNL     1     -42.613  55.784 -56.197  1.00  0.00     0.035 C 
HETATM   19  C   UNL     1     -43.234  55.574 -57.608  1.00  0.00     0.168 C 
ENDBRANCH   8  11
ENDBRANCH   7   8
ENDBRANCH   1   7
BRANCH   2  20
HETATM   20  C   UNL     1     -41.980  54.791 -51.836  1.00  0.00    -0.002 A 
HETATM   21  C   UNL     1     -42.020  53.947 -52.954  1.00  0.00     0.053 A 
HETATM   22  C   UNL     1     -41.098  52.906 -53.075  1.00  0.00     0.103 A 
HETATM   23  C   UNL     1     -40.135  52.697 -52.084  1.00  0.00     0.102 A 
HETATM   24  O   UNL     1     -41.213  52.117 -54.190  1.00  0.00    -0.346 OA
HETATM   25  O   UNL     1     -39.225  51.675 -52.126  1.00  0.00    -0.346 OA
HETATM   26  C   UNL     1     -40.060  53.560 -50.994  1.00  0.00     0.040 A 
HETATM   27  C   UNL     1     -39.579  50.685 -53.097  1.00  0.00     0.202 C 
HETATM   28  C   UNL     1     -40.025  51.337 -54.396  1.00  0.00     0.202 C 
HETATM   29  C   UNL     1     -40.982  54.603 -50.869  1.00  0.00     0.017 A 
ENDBRANCH   2  20
TORSDOF 4
ENDMDL
MODEL 2
REMARK VINA RESULT:      -7.4      2.216      6.926
REMARK  4 active torsions:
REMARK  status: ('A' for Active; 'I' for Inactive)
REMARK    1  A    between atoms: C_9  and  N_10 
REMARK    2  A    between atoms: N_10  and  C_12 
REMARK    3  A    between atoms: C_12  and  C_13 
REMARK    4  A    between atoms: C_14  and  C_15 
ROOT
HETATM    1  C   UNL     1     -42.978  58.691 -55.273  1.00  0.00     0.016 A 
HETATM    2  C   UNL     1     -42.715  58.968 -56.654  1.00  0.00     0.096 A 
HETATM    3  N   UNL     1     -41.985  60.081 -56.787  1.00  0.00    -0.174 NA
HETATM    4  N   UNL     1     -41.774  60.515 -55.543  1.00  0.00    -0.288 N 
HETATM    5  H   UNL     1     -41.221  61.360 -55.416  1.00  0.00     0.188 HD
HETATM    6  C   UNL     1     -42.335  59.710 -54.592  1.00  0.00     0.120 A 
ENDROOT
BRANCH   1   7
HETATM    7  C   UNL     1     -43.697  57.503 -54.732  1.00  0.00     0.277 C 
BRANCH   7   8
HETATM    8  N   UNL     1     -43.445  57.216 -53.263  1.00  0.00    -0.065 N 
HETATM    9  H   UNL     1     -42.593  57.716 -52.986  1.00  0.00     0.280 HD
HETATM   10  C   UNL     1     -44.602  57.678 -52.411  1.00  0.00     0.270 C 
BRANCH   8  11
HETATM   11  C   UNL     1     -43.320  55.727 -53.079  1.00  0.00     0.205 C 
HETATM   12  C   UNL     1     -42.229  55.202 -52.009  1.00  0.00     0.008 C 
HETATM   13  C   UNL     1     -42.534  53.814 -51.427  1.00  0.00     0.020 C 
HETATM   14  C   UNL     1     -41.744  56.123 -50.889  1.00  0.00     0.020 C 
HETATM   15  C   UNL     1     -41.265  55.233 -53.203  1.00  0.00     0.137 C 
HETATM   16  C   UNL     1     -42.464  54.956 -54.149  1.00  0.00     0.049 C 
HETATM   17  O   UNL     1     -40.266  54.273 -53.548  1.00  0.00    -0.385 OA
HETATM   18  C   UNL     1     -41.567  55.024 -55.383  1.00  0.00     0.035 C 
HETATM   19  C   UNL     1     -40.385  54.095 -54.981  1.00  0.00     0.168 C 
ENDBRANCH   8  11
ENDBRANCH   7   8
ENDBRANCH   1   7
BRANCH   2  20
HETATM   20  C   UNL     1     -43.084  58.180 -57.826  1.00  0.00    -0.002 A 
HETATM   21  C   UNL     1     -44.417  57.824 -58.067  1.00  0.00     0.053 A 
HETATM   22  C   UNL     1     -44.738  57.023 -59.164  1.00  0.00     0.103 A 
HETATM   23  C   UNL     1     -43.735  56.571 -60.026  1.00  0.00     0.102 A 
HETATM   24  O   UNL     1     -46.063  56.707 -59.321  1.00  0.00    -0.346 OA
HETATM   25  O   UNL     1     -43.978  55.756 -61.098  1.00  0.00    -0.346 OA
HETATM   26  C   UNL     1     -42.414  56.959 -59.819  1.00  0.00     0.040 A 
HETATM   27  C   UNL     1     -45.285  55.172 -61.040  1.00  0.00     0.202 C 
HETATM   28  C   UNL     1     -46.322  56.210 -60.643  1.00  0.00     0.202 C 
HETATM   29  C   UNL     1     -42.089  57.760 -58.721  1.00  0.00     0.017 A 
ENDBRANCH   2  20
TORSDOF 4
ENDMDL
MODEL 3
REMARK VINA RESULT:      -7.3      2.889      4.664
REMARK  4 active torsions:
REMARK  status: ('A' for Active; 'I' for Inactive)
REMARK    1  A    between atoms: C_9  and  N_10 
REMARK    2  A    between atoms: N_10  and  C_12 
REMARK    3  A    between atoms: C_12  and  C_13 
REMARK    4  A    between atoms: C_14  and  C_15 
ROOT
HETATM    1  C   UNL     1     -42.579  56.262 -55.195  1.00  0.00     0.016 A 
HETATM    2  C   UNL     1     -42.772  55.094 -54.389  1.00  0.00     0.096 A 
HETATM    3  N   UNL     1     -43.231  54.076 -55.124  1.00  0.00    -0.174 NA
HETATM    4  N   UNL     1     -43.332  54.554 -56.366  1.00  0.00    -0.288 N 
HETATM    5  H   UNL     1     -43.660  53.927 -57.097  1.00  0.00     0.188 HD
HETATM    6  C   UNL     1     -42.939  55.858 -56.470  1.00  0.00     0.120 A 
ENDROOT
BRANCH   1   7
HETATM    7  C   UNL     1     -42.016  57.565 -54.744  1.00  0.00     0.277 C 
BRANCH   7   8
HETATM    8  N   UNL     1     -43.047  58.610 -54.358  1.00  0.00    -0.065 N 
HETATM    9  H   UNL     1     -42.655  59.533 -54.571  1.00  0.00     0.280 HD
HETATM   10  C   UNL     1     -44.332  58.417 -55.129  1.00  0.00     0.270 C 
BRANCH   8  11
HETATM   11  C   UNL     1     -43.373  58.448 -52.898  1.00  0.00     0.205 C 
HETATM   12  C   UNL     1     -43.842  59.768 -52.093  1.00  0.00     0.008 C 
HETATM   13  C   UNL     1     -44.704  59.480 -50.855  1.00  0.00     0.020 C 
HETATM   14  C   UNL     1     -44.428  60.962 -52.847  1.00  0.00     0.020 C 
HETATM   15  C   UNL     1     -42.342  59.962 -51.836  1.00  0.00     0.137 C 
HETATM   16  C   UNL     1     -42.154  58.423 -51.905  1.00  0.00     0.049 C 
HETATM   17  O   UNL     1     -41.706  60.379 -50.629  1.00  0.00    -0.385 OA
HETATM   18  C   UNL     1     -40.646  58.549 -51.702  1.00  0.00     0.035 C 
HETATM   19  C   UNL     1     -40.559  59.506 -50.478  1.00  0.00     0.168 C 
ENDBRANCH   8  11
ENDBRANCH   7   8
ENDBRANCH   1   7
BRANCH   2  20
HETATM   20  C   UNL     1     -42.478  54.909 -52.970  1.00  0.00    -0.002 A 
HETATM   21  C   UNL     1     -41.185  54.593 -52.536  1.00  0.00     0.053 A 
HETATM   22  C   UNL     1     -40.940  54.366 -51.181  1.00  0.00     0.103 A 
HETATM   23  C   UNL     1     -41.980  54.451 -50.252  1.00  0.00     0.102 A 
HETATM   24  O   UNL     1     -39.651  54.047 -50.840  1.00  0.00    -0.346 OA
HETATM   25  O   UNL     1     -41.814  54.207 -48.915  1.00  0.00    -0.346 OA
HETATM   26  C   UNL     1     -43.258  54.810 -50.670  1.00  0.00     0.040 A 
HETATM   27  C   UNL     1     -40.570  53.553 -48.642  1.00  0.00     0.202 C 
HETATM   28  C   UNL     1     -39.438  54.197 -49.428  1.00  0.00     0.202 C 
HETATM   29  C   UNL     1     -43.508  55.038 -52.026  1.00  0.00     0.017 A 
ENDBRANCH   2  20
TORSDOF 4
ENDMDL
MODEL 4
REMARK VINA RESULT:      -7.2     15.303     17.587
REMARK  4 active torsions:
REMARK  status: ('A' for Active; 'I' for Inactive)
REMARK    1  A    between atoms: C_9  and  N_10 
REMARK    2  A    between atoms: N_10  and  C_12 
REMARK    3  A    between atoms: C_12  and  C_13 
REMARK    4  A    between atoms: C_14  and  C_15 
ROOT
HETATM    1  C   UNL     1     -36.939  41.744 -53.633  1.00  0.00     0.016 A 
HETATM    2  C   UNL     1     -37.877  41.266 -54.604  1.00  0.00     0.096 A 
HETATM    3  N   UNL     1     -39.041  40.946 -54.027  1.00  0.00    -0.174 NA
HETATM    4  N   UNL     1     -38.875  41.206 -52.729  1.00  0.00    -0.288 N 
HETATM    5  H   UNL     1     -39.658  41.039 -52.101  1.00  0.00     0.188 HD
HETATM    6  C   UNL     1     -37.636  41.703 -52.437  1.00  0.00     0.120 A 
ENDROOT
BRANCH   1   7
HETATM    7  C   UNL     1     -35.568  42.258 -53.907  1.00  0.00     0.277 C 
BRANCH   7   8
HETATM    8  N   UNL     1     -34.492  41.749 -52.966  1.00  0.00    -0.065 N 
HETATM    9  H   UNL     1     -33.691  42.387 -53.027  1.00  0.00     0.280 HD
HETATM   10  C   UNL     1     -34.993  41.702 -51.541  1.00  0.00     0.270 C 
BRANCH   8  11
HETATM   11  C   UNL     1     -34.133  40.342 -53.360  1.00  0.00     0.205 C 
HETATM   12  C   UNL     1     -32.649  39.823 -52.989  1.00  0.00     0.008 C 
HETATM   13  C   UNL     1     -32.529  38.299 -52.852  1.00  0.00     0.020 C 
HETATM   14  C   UNL     1     -31.858  40.494 -51.864  1.00  0.00     0.020 C 
HETATM   15  C   UNL     1     -32.266  40.407 -54.355  1.00  0.00     0.137 C 
HETATM   16  C   UNL     1     -33.706  40.119 -54.857  1.00  0.00     0.049 C 
HETATM   17  O   UNL     1     -31.392  39.847 -55.334  1.00  0.00    -0.385 OA
HETATM   18  C   UNL     1     -33.404  40.732 -56.222  1.00  0.00     0.035 C 
HETATM   19  C   UNL     1     -32.064  40.041 -56.603  1.00  0.00     0.168 C 
ENDBRANCH   8  11
ENDBRANCH   7   8
ENDBRANCH   1   7
BRANCH   2  20
HETATM   20  C   UNL     1     -37.716  41.165 -56.052  1.00  0.00    -0.002 A 
HETATM   21  C   UNL     1     -38.031  39.982 -56.733  1.00  0.00     0.053 A 
HETATM   22  C   UNL     1     -37.816  39.891 -58.108  1.00  0.00     0.103 A 
HETATM   23  C   UNL     1     -37.285  40.975 -58.814  1.00  0.00     0.102 A 
HETATM   24  O   UNL     1     -38.135  38.695 -58.698  1.00  0.00    -0.346 OA
HETATM   25  O   UNL     1     -37.018  40.939 -60.156  1.00  0.00    -0.346 OA
HETATM   26  C   UNL     1     -37.013  42.169 -58.151  1.00  0.00     0.040 A 
HETATM   27  C   UNL     1     -37.034  39.601 -60.667  1.00  0.00     0.202 C 
HETATM   28  C   UNL     1     -38.225  38.829 -60.125  1.00  0.00     0.202 C 
HETATM   29  C   UNL     1     -37.227  42.263 -56.774  1.00  0.00     0.017 A 
ENDBRANCH   2  20
TORSDOF 4
ENDMDL
MODEL 5
REMARK VINA RESULT:      -7.1     16.261     18.599
REMARK  4 active torsions:
REMARK  status: ('A' for Active; 'I' for Inactive)
REMARK    1  A    between atoms: C_9  and  N_10 
REMARK    2  A    between atoms: N_10  and  C_12 
REMARK    3  A    between atoms: C_12  and  C_13 
REMARK    4  A    between atoms: C_14  and  C_15 
ROOT
HETATM    1  C   UNL     1     -32.457  38.767 -54.937  1.00  0.00     0.016 A 
HETATM    2  C   UNL     1     -32.552  39.768 -55.958  1.00  0.00     0.096 A 
HETATM    3  N   UNL     1     -31.341  40.093 -56.423  1.00  0.00    -0.174 NA
HETATM    4  N   UNL     1     -30.484  39.333 -55.738  1.00  0.00    -0.288 N 
HETATM    5  H   UNL     1     -29.492  39.419 -55.947  1.00  0.00     0.188 HD
HETATM    6  C   UNL     1     -31.101  38.505 -54.842  1.00  0.00     0.120 A 
ENDROOT
BRANCH   1   7
HETATM    7  C   UNL     1     -33.595  38.108 -54.237  1.00  0.00     0.277 C 
BRANCH   7   8
HETATM    8  N   UNL     1     -33.750  38.482 -52.774  1.00  0.00    -0.065 N 
HETATM    9  H   UNL     1     -34.487  37.891 -52.374  1.00  0.00     0.280 HD
HETATM   10  C   UNL     1     -32.462  38.264 -52.017  1.00  0.00     0.270 C 
BRANCH   8  11
HETATM   11  C   UNL     1     -34.080  39.948 -52.684  1.00  0.00     0.205 C 
HETATM   12  C   UNL     1     -34.724  40.479 -51.301  1.00  0.00     0.008 C 
HETATM   13  C   UNL     1     -34.488  41.972 -51.029  1.00  0.00     0.020 C 
HETATM   14  C   UNL     1     -34.521  39.693 -50.006  1.00  0.00     0.020 C 
HETATM   15  C   UNL     1     -36.062  40.119 -51.960  1.00  0.00     0.137 C 
HETATM   16  C   UNL     1     -35.430  40.406 -53.348  1.00  0.00     0.049 C 
HETATM   17  O   UNL     1     -37.282  40.858 -51.926  1.00  0.00    -0.385 OA
HETATM   18  C   UNL     1     -36.717  40.013 -54.068  1.00  0.00     0.035 C 
HETATM   19  C   UNL     1     -37.792  40.818 -53.282  1.00  0.00     0.168 C 
ENDBRANCH   8  11
ENDBRANCH   7   8
ENDBRANCH   1   7
BRANCH   2  20
HETATM   20  C   UNL     1     -33.751  40.368 -56.534  1.00  0.00    -0.002 A 
HETATM   21  C   UNL     1     -34.569  39.648 -57.413  1.00  0.00     0.053 A 
HETATM   22  C   UNL     1     -35.679  40.261 -57.995  1.00  0.00     0.103 A 
HETATM   23  C   UNL     1     -35.981  41.595 -57.707  1.00  0.00     0.102 A 
HETATM   24  O   UNL     1     -36.420  39.492 -58.856  1.00  0.00    -0.346 OA
HETATM   25  O   UNL     1     -37.034  42.265 -58.269  1.00  0.00    -0.346 OA
HETATM   26  C   UNL     1     -35.200  42.303 -56.798  1.00  0.00     0.040 A 
HETATM   27  C   UNL     1     -37.570  41.565 -59.398  1.00  0.00     0.202 C 
HETATM   28  C   UNL     1     -37.707  40.081 -59.099  1.00  0.00     0.202 C 
HETATM   29  C   UNL     1     -34.087  41.692 -56.214  1.00  0.00     0.017 A 
ENDBRANCH   2  20
TORSDOF 4
ENDMDL
MODEL 6
REMARK VINA RESULT:      -7.0      3.099      7.029
REMARK  4 active torsions:
REMARK  status: ('A' for Active; 'I' for Inactive)
REMARK    1  A    between atoms: C_9  and  N_10 
REMARK    2  A    between atoms: N_10  and  C_12 
REMARK    3  A    between atoms: C_12  and  C_13 
REMARK    4  A    between atoms: C_14  and  C_15 
ROOT
HETATM    1  C   UNL     1     -42.955  56.774 -56.187  1.00  0.00     0.016 A 
HETATM    2  C   UNL     1     -43.916  57.748 -55.762  1.00  0.00     0.096 A 
HETATM    3  N   UNL     1     -44.776  58.032 -56.746  1.00  0.00    -0.174 NA
HETATM    4  N   UNL     1     -44.398  57.272 -57.776  1.00  0.00    -0.288 N 
HETATM    5  H   UNL     1     -44.936  57.329 -58.638  1.00  0.00     0.188 HD
HETATM    6  C   UNL     1     -43.319  56.484 -57.491  1.00  0.00     0.120 A 
ENDROOT
BRANCH   1   7
HETATM    7  C   UNL     1     -41.888  56.161 -55.349  1.00  0.00     0.277 C 
BRANCH   7   8
HETATM    8  N   UNL     1     -42.370  55.115 -54.361  1.00  0.00    -0.065 N 
HETATM    9  H   UNL     1     -43.282  55.417 -54.002  1.00  0.00     0.280 HD
HETATM   10  C   UNL     1     -42.511  53.765 -55.025  1.00  0.00     0.270 C 
BRANCH   8  11
HETATM   11  C   UNL     1     -41.344  54.972 -53.270  1.00  0.00     0.205 C 
HETATM   12  C   UNL     1     -41.878  54.593 -51.794  1.00  0.00     0.008 C 
HETATM   13  C   UNL     1     -40.839  53.892 -50.907  1.00  0.00     0.020 C 
HETATM   14  C   UNL     1     -43.234  53.907 -51.619  1.00  0.00     0.020 C 
HETATM   15  C   UNL     1     -42.003  56.111 -51.612  1.00  0.00     0.137 C 
HETATM   16  C   UNL     1     -40.830  56.304 -52.611  1.00  0.00     0.049 C 
HETATM   17  O   UNL     1     -41.667  56.887 -50.462  1.00  0.00    -0.385 OA
HETATM   18  C   UNL     1     -40.933  57.824 -52.513  1.00  0.00     0.035 C 
HETATM   19  C   UNL     1     -40.974  58.052 -50.974  1.00  0.00     0.168 C 
ENDBRANCH   8  11
ENDBRANCH   7   8
ENDBRANCH   1   7
BRANCH   2  20
HETATM   20  C   UNL     1     -44.069  58.360 -54.446  1.00  0.00    -0.002 A 
HETATM   21  C   UNL     1     -43.551  59.633 -54.176  1.00  0.00     0.053 A 
HETATM   22  C   UNL     1     -43.660  60.174 -52.895  1.00  0.00     0.103 A 
HETATM   23  C   UNL     1     -44.284  59.451 -51.874  1.00  0.00     0.102 A 
HETATM   24  O   UNL     1     -43.115  61.418 -52.709  1.00  0.00    -0.346 OA
HETATM   25  O   UNL     1     -44.395  59.909 -50.589  1.00  0.00    -0.346 OA
HETATM   26  C   UNL     1     -44.843  58.205 -52.146  1.00  0.00     0.040 A 
HETATM   27  C   UNL     1     -43.534  61.027 -50.345  1.00  0.00     0.202 C 
HETATM   28  C   UNL     1     -43.596  62.018 -51.496  1.00  0.00     0.202 C 
HETATM   29  C   UNL     1     -44.734  57.660 -53.428  1.00  0.00     0.017 A 
ENDBRANCH   2  20
TORSDOF 4
ENDMDL
MODEL 7
REMARK VINA RESULT:      -7.0      2.292      4.059
REMARK  4 active torsions:
REMARK  status: ('A' for Active; 'I' for Inactive)
REMARK    1  A    between atoms: C_9  and  N_10 
REMARK    2  A    between atoms: N_10  and  C_12 
REMARK    3  A    between atoms: C_12  and  C_13 
REMARK    4  A    between atoms: C_14  and  C_15 
ROOT
HETATM    1  C   UNL     1     -42.469  56.339 -54.359  1.00  0.00     0.016 A 
HETATM    2  C   UNL     1     -42.275  54.964 -54.710  1.00  0.00     0.096 A 
HETATM    3  N   UNL     1     -42.890  54.673 -55.862  1.00  0.00    -0.174 NA
HETATM    4  N   UNL     1     -43.462  55.813 -56.254  1.00  0.00    -0.288 N 
HETATM    5  H   UNL     1     -43.982  55.814 -57.129  1.00  0.00     0.188 HD
HETATM    6  C   UNL     1     -43.228  56.852 -55.397  1.00  0.00     0.120 A 
ENDROOT
BRANCH   1   7
HETATM    7  C   UNL     1     -41.879  57.044 -53.187  1.00  0.00     0.277 C 
BRANCH   7   8
HETATM    8  N   UNL     1     -42.887  57.583 -52.189  1.00  0.00    -0.065 N 
HETATM    9  H   UNL     1     -43.809  57.577 -52.638  1.00  0.00     0.280 HD
HETATM   10  C   UNL     1     -42.927  56.732 -50.942  1.00  0.00     0.270 C 
BRANCH   8  11
HETATM   11  C   UNL     1     -42.461  58.965 -51.774  1.00  0.00     0.205 C 
HETATM   12  C   UNL     1     -43.615  59.973 -51.259  1.00  0.00     0.008 C 
HETATM   13  C   UNL     1     -43.113  61.081 -50.322  1.00  0.00     0.020 C 
HETATM   14  C   UNL     1     -44.936  59.420 -50.723  1.00  0.00     0.020 C 
HETATM   15  C   UNL     1     -43.737  60.350 -52.741  1.00  0.00     0.137 C 
HETATM   16  C   UNL     1     -42.235  60.008 -52.929  1.00  0.00     0.049 C 
HETATM   17  O   UNL     1     -43.914  61.650 -53.303  1.00  0.00    -0.385 OA
HETATM   18  C   UNL     1     -42.302  60.320 -54.422  1.00  0.00     0.035 C 
HETATM   19  C   UNL     1     -43.013  61.704 -54.436  1.00  0.00     0.168 C 
ENDBRANCH   8  11
ENDBRANCH   7   8
ENDBRANCH   1   7
BRANCH   2  20
HETATM   20  C   UNL     1     -41.481  53.952 -54.019  1.00  0.00    -0.002 A 
HETATM   21  C   UNL     1     -41.269  52.689 -54.586  1.00  0.00     0.053 A 
HETATM   22  C   UNL     1     -40.555  51.719 -53.882  1.00  0.00     0.103 A 
HETATM   23  C   UNL     1     -40.049  51.999 -52.610  1.00  0.00     0.102 A 
HETATM   24  O   UNL     1     -40.404  50.504 -54.500  1.00  0.00    -0.346 OA
HETATM   25  O   UNL     1     -39.370  51.083 -51.853  1.00  0.00    -0.346 OA
HETATM   26  C   UNL     1     -40.216  53.267 -52.059  1.00  0.00     0.040 A 
HETATM   27  C   UNL     1     -39.524  49.753 -52.361  1.00  0.00     0.202 C 
HETATM   28  C   UNL     1     -39.369  49.730 -53.873  1.00  0.00     0.202 C 
HETATM   29  C   UNL     1     -40.932  54.241 -52.761  1.00  0.00     0.017 A 
ENDBRANCH   2  20
TORSDOF 4
ENDMDL
MODEL 8
REMARK VINA RESULT:      -6.9      1.600      6.856
REMARK  4 active torsions:
REMARK  status: ('A' for Active; 'I' for Inactive)
REMARK    1  A    between atoms: C_9  and  N_10 
REMARK    2  A    between atoms: N_10  and  C_12 
REMARK    3  A    between atoms: C_12  and  C_13 
REMARK    4  A    between atoms: C_14  and  C_15 
ROOT
HETATM    1  C   UNL     1     -41.613  57.297 -53.329  1.00  0.00     0.016 A 
HETATM    2  C   UNL     1     -41.836  57.852 -54.631  1.00  0.00     0.096 A 
HETATM    3  N   UNL     1     -41.478  59.140 -54.669  1.00  0.00    -0.174 NA
HETATM    4  N   UNL     1     -41.035  59.420 -53.442  1.00  0.00    -0.288 N 
HETATM    5  H   UNL     1     -40.699  60.362 -53.256  1.00  0.00     0.188 HD
HETATM    6  C   UNL     1     -41.078  58.345 -52.599  1.00  0.00     0.120 A 
ENDROOT
BRANCH   1   7
HETATM    7  C   UNL     1     -41.824  55.879 -52.925  1.00  0.00     0.277 C 
BRANCH   7   8
HETATM    8  N   UNL     1     -41.587  55.589 -51.454  1.00  0.00    -0.065 N 
HETATM    9  H   UNL     1     -40.664  55.960 -51.204  1.00  0.00     0.280 HD
HETATM   10  C   UNL     1     -42.643  56.244 -50.594  1.00  0.00     0.270 C 
BRANCH   8  11
HETATM   11  C   UNL     1     -41.688  54.104 -51.233  1.00  0.00     0.205 C 
HETATM   12  C   UNL     1     -40.437  53.375 -50.516  1.00  0.00     0.008 C 
HETATM   13  C   UNL     1     -40.797  52.071 -49.792  1.00  0.00     0.020 C 
HETATM   14  C   UNL     1     -39.470  54.182 -49.649  1.00  0.00     0.020 C 
HETATM   15  C   UNL     1     -39.899  53.224 -51.945  1.00  0.00     0.137 C 
HETATM   16  C   UNL     1     -41.360  53.187 -52.467  1.00  0.00     0.049 C 
HETATM   17  O   UNL     1     -39.249  52.092 -52.522  1.00  0.00    -0.385 OA
HETATM   18  C   UNL     1     -40.890  53.085 -53.916  1.00  0.00     0.035 C 
HETATM   19  C   UNL     1     -39.835  51.945 -53.839  1.00  0.00     0.168 C 
ENDBRANCH   8  11
ENDBRANCH   7   8
ENDBRANCH   1   7
BRANCH   2  20
HETATM   20  C   UNL     1     -42.316  57.181 -55.836  1.00  0.00    -0.002 A 
HETATM   21  C   UNL     1     -42.709  57.913 -56.962  1.00  0.00     0.053 A 
HETATM   22  C   UNL     1     -43.218  57.254 -58.082  1.00  0.00     0.103 A 
HETATM   23  C   UNL     1     -43.339  55.861 -58.085  1.00  0.00     0.102 A 
HETATM   24  O   UNL     1     -43.594  58.043 -59.137  1.00  0.00    -0.346 OA
HETATM   25  O   UNL     1     -43.861  55.156 -59.136  1.00  0.00    -0.346 OA
HETATM   26  C   UNL     1     -42.907  55.123 -56.987  1.00  0.00     0.040 A 
HETATM   27  C   UNL     1     -44.549  56.006 -60.060  1.00  0.00     0.202 C 
HETATM   28  C   UNL     1     -43.746  57.267 -60.336  1.00  0.00     0.202 C 
HETATM   29  C   UNL     1     -42.398  55.781 -55.864  1.00  0.00     0.017 A 
ENDBRANCH   2  20
TORSDOF 4
ENDMDL
MODEL 9
REMARK VINA RESULT:      -6.5     16.375     19.539
REMARK  4 active torsions:
REMARK  status: ('A' for Active; 'I' for Inactive)
REMARK    1  A    between atoms: C_9  and  N_10 
REMARK    2  A    between atoms: N_10  and  C_12 
REMARK    3  A    between atoms: C_12  and  C_13 
REMARK    4  A    between atoms: C_14  and  C_15 
ROOT
HETATM    1  C   UNL     1     -31.443  38.356 -56.880  1.00  0.00     0.016 A 
HETATM    2  C   UNL     1     -31.538  39.700 -56.393  1.00  0.00     0.096 A 
HETATM    3  N   UNL     1     -30.392  40.362 -56.587  1.00  0.00    -0.174 NA
HETATM    4  N   UNL     1     -29.577  39.488 -57.182  1.00  0.00    -0.288 N 
HETATM    5  H   UNL     1     -28.640  39.797 -57.430  1.00  0.00     0.188 HD
HETATM    6  C   UNL     1     -30.161  38.272 -57.397  1.00  0.00     0.120 A 
ENDROOT
BRANCH   1   7
HETATM    7  C   UNL     1     -32.536  37.344 -56.901  1.00  0.00     0.277 C 
BRANCH   7   8
HETATM    8  N   UNL     1     -33.670  37.646 -57.863  1.00  0.00    -0.065 N 
HETATM    9  H   UNL     1     -33.768  38.665 -57.925  1.00  0.00     0.280 HD
HETATM   10  C   UNL     1     -33.385  37.081 -59.234  1.00  0.00     0.270 C 
BRANCH   8  11
HETATM   11  C   UNL     1     -34.921  36.981 -57.356  1.00  0.00     0.205 C 
HETATM   12  C   UNL     1     -36.258  37.884 -57.269  1.00  0.00     0.008 C 
HETATM   13  C   UNL     1     -37.566  37.083 -57.338  1.00  0.00     0.020 C 
HETATM   14  C   UNL     1     -36.393  39.143 -58.126  1.00  0.00     0.020 C 
HETATM   15  C   UNL     1     -35.754  38.228 -55.862  1.00  0.00     0.137 C 
HETATM   16  C   UNL     1     -35.060  36.841 -55.796  1.00  0.00     0.049 C 
HETATM   17  O   UNL     1     -36.517  38.340 -54.660  1.00  0.00    -0.385 OA
HETATM   18  C   UNL     1     -34.486  37.141 -54.413  1.00  0.00     0.035 C 
HETATM   19  C   UNL     1     -35.735  37.663 -53.646  1.00  0.00     0.168 C 
ENDBRANCH   8  11
ENDBRANCH   7   8
ENDBRANCH   1   7
BRANCH   2  20
HETATM   20  C   UNL     1     -32.694  40.377 -55.812  1.00  0.00    -0.002 A 
HETATM   21  C   UNL     1     -32.959  40.303 -54.439  1.00  0.00     0.053 A 
HETATM   22  C   UNL     1     -34.100  40.912 -53.914  1.00  0.00     0.103 A 
HETATM   23  C   UNL     1     -34.985  41.595 -54.754  1.00  0.00     0.102 A 
HETATM   24  O   UNL     1     -34.296  40.781 -52.564  1.00  0.00    -0.346 OA
HETATM   25  O   UNL     1     -36.138  42.184 -54.309  1.00  0.00    -0.346 OA
HETATM   26  C   UNL     1     -34.704  41.712 -56.112  1.00  0.00     0.040 A 
HETATM   27  C   UNL     1     -36.487  41.747 -52.991  1.00  0.00     0.202 C 
HETATM   28  C   UNL     1     -35.265  41.728 -52.087  1.00  0.00     0.202 C 
HETATM   29  C   UNL     1     -33.562  41.103 -56.641  1.00  0.00     0.017 A 
ENDBRANCH   2  20
TORSDOF 4
ENDMDL
MODEL 10
REMARK VINA RESULT:      -6.5      2.813      4.777
REMARK  4 active torsions:
REMARK  status: ('A' for Active; 'I' for Inactive)
REMARK    1  A    between atoms: C_9  and  N_10 
REMARK    2  A    between atoms: N_10  and  C_12 
REMARK    3  A    between atoms: C_12  and  C_13 
REMARK    4  A    between atoms: C_14  and  C_15 
ROOT
HETATM    1  C   UNL     1     -42.675  56.874 -55.412  1.00  0.00     0.016 A 
HETATM    2  C   UNL     1     -42.750  55.649 -54.674  1.00  0.00     0.096 A 
HETATM    3  N   UNL     1     -43.040  54.622 -55.480  1.00  0.00    -0.174 NA
HETATM    4  N   UNL     1     -43.148  55.151 -56.701  1.00  0.00    -0.288 N 
HETATM    5  H   UNL     1     -43.359  54.528 -57.478  1.00  0.00     0.188 HD
HETATM    6  C   UNL     1     -42.923  56.499 -56.721  1.00  0.00     0.120 A 
ENDROOT
BRANCH   1   7
HETATM    7  C   UNL     1     -42.307  58.212 -54.869  1.00  0.00     0.277 C 
BRANCH   7   8
HETATM    8  N   UNL     1     -41.778  58.203 -53.447  1.00  0.00    -0.065 N 
HETATM    9  H   UNL     1     -42.150  57.370 -52.977  1.00  0.00     0.280 HD
HETATM   10  C   UNL     1     -40.269  58.161 -53.428  1.00  0.00     0.270 C 
BRANCH   8  11
HETATM   11  C   UNL     1     -42.199  59.479 -52.769  1.00  0.00     0.205 C 
HETATM   12  C   UNL     1     -42.232  59.484 -51.154  1.00  0.00     0.008 C 
HETATM   13  C   UNL     1     -42.071  60.874 -50.524  1.00  0.00     0.020 C 
HETATM   14  C   UNL     1     -41.398  58.474 -50.364  1.00  0.00     0.020 C 
HETATM   15  C   UNL     1     -43.673  58.988 -51.330  1.00  0.00     0.137 C 
HETATM   16  C   UNL     1     -43.745  59.751 -52.681  1.00  0.00     0.049 C 
HETATM   17  O   UNL     1     -44.832  59.383 -50.597  1.00  0.00    -0.385 OA
HETATM   18  C   UNL     1     -45.164  59.252 -52.941  1.00  0.00     0.035 C 
HETATM   19  C   UNL     1     -45.873  59.557 -51.590  1.00  0.00     0.168 C 
ENDBRANCH   8  11
ENDBRANCH   7   8
ENDBRANCH   1   7
BRANCH   2  20
HETATM   20  C   UNL     1     -42.497  55.425 -53.253  1.00  0.00    -0.002 A 
HETATM   21  C   UNL     1     -41.289  54.871 -52.813  1.00  0.00     0.053 A 
HETATM   22  C   UNL     1     -41.092  54.615 -51.456  1.00  0.00     0.103 A 
HETATM   23  C   UNL     1     -42.096  54.907 -50.529  1.00  0.00     0.102 A 
HETATM   24  O   UNL     1     -39.888  54.057 -51.108  1.00  0.00    -0.346 OA
HETATM   25  O   UNL     1     -41.980  54.650 -49.190  1.00  0.00    -0.346 OA
HETATM   26  C   UNL     1     -43.282  55.502 -50.953  1.00  0.00     0.040 A 
HETATM   27  C   UNL     1     -40.884  53.772 -48.908  1.00  0.00     0.202 C 
HETATM   28  C   UNL     1     -39.650  54.178 -49.697  1.00  0.00     0.202 C 
HETATM   29  C   UNL     1     -43.483  55.759 -52.312  1.00  0.00     0.017 A 
ENDBRANCH   2  20
TORSDOF 4
ENDMDL
