MODEL 1
REMARK VINA RESULT:      -8.8      0.000      0.000
REMARK  5 active torsions:
REMARK  status: ('A' for Active; 'I' for Inactive)
REMARK    1  A    between atoms: O_2  and  C_3 
REMARK    2  A    between atoms: C_4  and  N_5 
REMARK    3  A    between atoms: N_5  and  C_6 
REMARK    4  A    between atoms: C_6  and  C_7 
REMARK    5  A    between atoms: C_15  and  C_16 
ROOT
HETATM    1  C   UNL     1     -42.414  55.599 -54.310  1.00  0.00     0.120 A 
HETATM    2  N   UNL     1     -42.131  54.390 -54.684  1.00  0.00    -0.233 NA
HETATM    3  C   UNL     1     -41.372  53.590 -53.818  1.00  0.00     0.075 A 
HETATM    4  C   UNL     1     -40.951  54.030 -52.562  1.00  0.00     0.061 A 
HETATM    5  C   UNL     1     -41.321  55.398 -52.165  1.00  0.00     0.259 A 
HETATM    6  O   UNL     1     -40.989  55.876 -51.087  1.00  0.00    -0.267 OA
HETATM    7  N   UNL     1     -42.046  56.105 -53.086  1.00  0.00    -0.310 N 
HETATM    8  C   UNL     1     -40.993  52.316 -54.246  1.00  0.00     0.048 A 
HETATM    9  C   UNL     1     -40.204  51.483 -53.433  1.00  0.00     0.050 A 
HETATM   10  C   UNL     1     -39.801  51.948 -52.169  1.00  0.00     0.017 A 
HETATM   11  C   UNL     1     -40.174  53.218 -51.730  1.00  0.00     0.020 A 
HETATM   12  H   UNL     1     -42.232  57.070 -52.852  1.00  0.00     0.170 HD
ENDROOT
BRANCH   1  13
HETATM   13  C   UNL     1     -43.172  56.557 -55.224  1.00  0.00     0.171 C 
BRANCH  13  14
HETATM   14  N   UNL     1     -43.608  55.914 -56.480  1.00  0.00    -0.284 NA
HETATM   15  H   UNL     1     -44.620  56.035 -56.559  1.00  0.00     0.128 HD
BRANCH  14  16
HETATM   16  C   UNL     1     -43.053  56.508 -57.643  1.00  0.00     0.042 A 
HETATM   17  C   UNL     1     -43.240  55.922 -58.912  1.00  0.00     0.089 A 
HETATM   18  C   UNL     1     -42.757  56.565 -60.055  1.00  0.00     0.038 A 
HETATM   19  C   UNL     1     -42.069  57.776 -59.940  1.00  0.00     0.003 A 
HETATM   20  C   UNL     1     -41.862  58.347 -58.687  1.00  0.00     0.002 A 
HETATM   21  C   UNL     1     -42.353  57.716 -57.545  1.00  0.00     0.026 A 
BRANCH  17  22
HETATM   22  O   UNL     1     -43.940  54.739 -58.931  1.00  0.00    -0.354 OA
HETATM   23  C   UNL     1     -44.799  54.575 -60.055  1.00  0.00     0.210 C 
ENDBRANCH  17  22
ENDBRANCH  14  16
ENDBRANCH  13  14
ENDBRANCH   1  13
BRANCH   9  24
HETATM   24  C   UNL     1     -39.761  50.123 -53.916  1.00  0.00     0.417 C 
HETATM   25  F   UNL     1     -38.585  50.142 -54.601  1.00  0.00    -0.166 F 
HETATM   26  F   UNL     1     -39.584  49.245 -52.891  1.00  0.00    -0.166 F 
HETATM   27  F   UNL     1     -40.669  49.547 -54.750  1.00  0.00    -0.166 F 
ENDBRANCH   9  24
TORSDOF 5
ENDMDL
MODEL 2
REMARK VINA RESULT:      -8.5      1.158      2.075
REMARK  5 active torsions:
REMARK  status: ('A' for Active; 'I' for Inactive)
REMARK    1  A    between atoms: O_2  and  C_3 
REMARK    2  A    between atoms: C_4  and  N_5 
REMARK    3  A    between atoms: N_5  and  C_6 
REMARK    4  A    between atoms: C_6  and  C_7 
REMARK    5  A    between atoms: C_15  and  C_16 
ROOT
HETATM    1  C   UNL     1     -42.261  55.569 -54.801  1.00  0.00     0.120 A 
HETATM    2  N   UNL     1     -41.965  54.339 -55.083  1.00  0.00    -0.233 NA
HETATM    3  C   UNL     1     -41.289  53.582 -54.114  1.00  0.00     0.075 A 
HETATM    4  C   UNL     1     -40.966  54.089 -52.855  1.00  0.00     0.061 A 
HETATM    5  C   UNL     1     -41.349  55.480 -52.566  1.00  0.00     0.259 A 
HETATM    6  O   UNL     1     -41.100  56.016 -51.493  1.00  0.00    -0.267 OA
HETATM    7  N   UNL     1     -41.987  56.140 -53.582  1.00  0.00    -0.310 N 
HETATM    8  C   UNL     1     -40.894  52.282 -54.438  1.00  0.00     0.048 A 
HETATM    9  C   UNL     1     -40.185  51.490 -53.518  1.00  0.00     0.050 A 
HETATM   10  C   UNL     1     -39.880  52.022 -52.253  1.00  0.00     0.017 A 
HETATM   11  C   UNL     1     -40.270  53.319 -51.918  1.00  0.00     0.020 A 
HETATM   12  H   UNL     1     -42.179  57.119 -53.418  1.00  0.00     0.170 HD
ENDROOT
BRANCH   1  13
HETATM   13  C   UNL     1     -42.929  56.480 -55.826  1.00  0.00     0.171 C 
BRANCH  13  14
HETATM   14  N   UNL     1     -42.169  56.562 -57.091  1.00  0.00    -0.284 NA
HETATM   15  H   UNL     1     -41.486  55.801 -57.095  1.00  0.00     0.128 HD
BRANCH  14  16
HETATM   16  C   UNL     1     -42.970  56.372 -58.246  1.00  0.00     0.042 A 
HETATM   17  C   UNL     1     -43.157  57.417 -59.174  1.00  0.00     0.089 A 
HETATM   18  C   UNL     1     -43.880  57.187 -60.347  1.00  0.00     0.038 A 
HETATM   19  C   UNL     1     -44.438  55.930 -60.591  1.00  0.00     0.003 A 
HETATM   20  C   UNL     1     -44.276  54.900 -59.667  1.00  0.00     0.002 A 
HETATM   21  C   UNL     1     -43.543  55.122 -58.501  1.00  0.00     0.026 A 
BRANCH  17  22
HETATM   22  O   UNL     1     -42.561  58.615 -58.858  1.00  0.00    -0.354 OA
HETATM   23  C   UNL     1     -43.451  59.727 -58.810  1.00  0.00     0.210 C 
ENDBRANCH  17  22
ENDBRANCH  14  16
ENDBRANCH  13  14
ENDBRANCH   1  13
BRANCH   9  24
HETATM   24  C   UNL     1     -39.722  50.102 -53.887  1.00  0.00     0.417 C 
HETATM   25  F   UNL     1     -39.593  49.266 -52.820  1.00  0.00    -0.166 F 
HETATM   26  F   UNL     1     -40.579  49.484 -54.746  1.00  0.00    -0.166 F 
HETATM   27  F   UNL     1     -38.509  50.105 -54.506  1.00  0.00    -0.166 F 
ENDBRANCH   9  24
TORSDOF 5
ENDMDL
MODEL 3
REMARK VINA RESULT:      -8.0      3.773      7.698
REMARK  5 active torsions:
REMARK  status: ('A' for Active; 'I' for Inactive)
REMARK    1  A    between atoms: O_2  and  C_3 
REMARK    2  A    between atoms: C_4  and  N_5 
REMARK    3  A    between atoms: N_5  and  C_6 
REMARK    4  A    between atoms: C_6  and  C_7 
REMARK    5  A    between atoms: C_15  and  C_16 
ROOT
HETATM    1  C   UNL     1     -42.669  54.976 -54.184  1.00  0.00     0.120 A 
HETATM    2  N   UNL     1     -42.393  54.974 -55.450  1.00  0.00    -0.233 NA
HETATM    3  C   UNL     1     -43.002  55.943 -56.261  1.00  0.00     0.075 A 
HETATM    4  C   UNL     1     -43.851  56.926 -55.750  1.00  0.00     0.061 A 
HETATM    5  C   UNL     1     -44.111  56.910 -54.301  1.00  0.00     0.259 A 
HETATM    6  O   UNL     1     -44.849  57.725 -53.763  1.00  0.00    -0.267 OA
HETATM    7  N   UNL     1     -43.486  55.914 -53.600  1.00  0.00    -0.310 N 
HETATM    8  C   UNL     1     -42.776  55.899 -57.638  1.00  0.00     0.048 A 
HETATM    9  C   UNL     1     -43.386  56.825 -58.503  1.00  0.00     0.050 A 
HETATM   10  C   UNL     1     -44.230  57.810 -57.961  1.00  0.00     0.017 A 
HETATM   11  C   UNL     1     -44.462  57.864 -56.586  1.00  0.00     0.020 A 
HETATM   12  H   UNL     1     -43.725  55.849 -52.620  1.00  0.00     0.170 HD
ENDROOT
BRANCH   1  13
HETATM   13  C   UNL     1     -42.107  53.910 -53.247  1.00  0.00     0.171 C 
BRANCH  13  14
HETATM   14  N   UNL     1     -40.658  53.697 -53.438  1.00  0.00    -0.284 NA
HETATM   15  H   UNL     1     -40.165  54.224 -52.713  1.00  0.00     0.128 HD
BRANCH  14  16
HETATM   16  C   UNL     1     -40.258  52.345 -53.275  1.00  0.00     0.042 A 
HETATM   17  C   UNL     1     -39.729  51.891 -52.050  1.00  0.00     0.089 A 
HETATM   18  C   UNL     1     -39.418  50.540 -51.882  1.00  0.00     0.038 A 
HETATM   19  C   UNL     1     -39.608  49.641 -52.936  1.00  0.00     0.003 A 
HETATM   20  C   UNL     1     -40.108  50.088 -54.156  1.00  0.00     0.002 A 
HETATM   21  C   UNL     1     -40.432  51.434 -54.323  1.00  0.00     0.026 A 
BRANCH  17  22
HETATM   22  O   UNL     1     -39.590  52.842 -51.067  1.00  0.00    -0.354 OA
HETATM   23  C   UNL     1     -40.449  52.666 -49.944  1.00  0.00     0.210 C 
ENDBRANCH  17  22
ENDBRANCH  14  16
ENDBRANCH  13  14
ENDBRANCH   1  13
BRANCH   9  24
HETATM   24  C   UNL     1     -43.173  56.748 -59.995  1.00  0.00     0.417 C 
HETATM   25  F   UNL     1     -43.320  57.943 -60.631  1.00  0.00    -0.166 F 
HETATM   26  F   UNL     1     -41.927  56.303 -60.315  1.00  0.00    -0.166 F 
HETATM   27  F   UNL     1     -44.043  55.894 -60.601  1.00  0.00    -0.166 F 
ENDBRANCH   9  24
TORSDOF 5
ENDMDL
MODEL 4
REMARK VINA RESULT:      -7.9      3.784      4.892
REMARK  5 active torsions:
REMARK  status: ('A' for Active; 'I' for Inactive)
REMARK    1  A    between atoms: O_2  and  C_3 
REMARK    2  A    between atoms: C_4  and  N_5 
REMARK    3  A    between atoms: N_5  and  C_6 
REMARK    4  A    between atoms: C_6  and  C_7 
REMARK    5  A    between atoms: C_15  and  C_16 
ROOT
HETATM    1  C   UNL     1     -41.759  56.638 -50.905  1.00  0.00     0.120 A 
HETATM    2  N   UNL     1     -41.543  55.843 -51.907  1.00  0.00    -0.233 NA
HETATM    3  C   UNL     1     -41.046  54.560 -51.637  1.00  0.00     0.075 A 
HETATM    4  C   UNL     1     -40.819  54.097 -50.340  1.00  0.00     0.061 A 
HETATM    5  C   UNL     1     -41.109  55.022 -49.232  1.00  0.00     0.259 A 
HETATM    6  O   UNL     1     -40.932  54.710 -48.061  1.00  0.00    -0.267 OA
HETATM    7  N   UNL     1     -41.572  56.257 -49.598  1.00  0.00    -0.310 N 
HETATM    8  C   UNL     1     -40.733  53.725 -52.713  1.00  0.00     0.048 A 
HETATM    9  C   UNL     1     -40.201  52.442 -52.503  1.00  0.00     0.050 A 
HETATM   10  C   UNL     1     -39.991  51.997 -51.186  1.00  0.00     0.017 A 
HETATM   11  C   UNL     1     -40.300  52.821 -50.103  1.00  0.00     0.020 A 
HETATM   12  H   UNL     1     -41.694  56.922 -48.847  1.00  0.00     0.170 HD
ENDROOT
BRANCH   1  13
HETATM   13  C   UNL     1     -42.228  58.074 -51.118  1.00  0.00     0.171 C 
BRANCH  13  14
HETATM   14  N   UNL     1     -43.700  58.199 -51.082  1.00  0.00    -0.284 NA
HETATM   15  H   UNL     1     -43.932  59.004 -50.497  1.00  0.00     0.128 HD
BRANCH  14  16
HETATM   16  C   UNL     1     -44.277  58.462 -52.352  1.00  0.00     0.042 A 
HETATM   17  C   UNL     1     -44.678  59.765 -52.706  1.00  0.00     0.089 A 
HETATM   18  C   UNL     1     -45.168  60.021 -53.989  1.00  0.00     0.038 A 
HETATM   19  C   UNL     1     -45.282  58.980 -54.915  1.00  0.00     0.003 A 
HETATM   20  C   UNL     1     -44.909  57.685 -54.563  1.00  0.00     0.002 A 
HETATM   21  C   UNL     1     -44.407  57.429 -53.287  1.00  0.00     0.026 A 
BRANCH  17  22
HETATM   22  O   UNL     1     -44.517  60.728 -51.737  1.00  0.00    -0.354 OA
HETATM   23  C   UNL     1     -45.718  61.391 -51.352  1.00  0.00     0.210 C 
ENDBRANCH  17  22
ENDBRANCH  14  16
ENDBRANCH  13  14
ENDBRANCH   1  13
BRANCH   9  24
HETATM   24  C   UNL     1     -39.823  51.559 -53.668  1.00  0.00     0.417 C 
HETATM   25  F   UNL     1     -40.367  50.312 -53.610  1.00  0.00    -0.166 F 
HETATM   26  F   UNL     1     -40.218  52.085 -54.861  1.00  0.00    -0.166 F 
HETATM   27  F   UNL     1     -38.478  51.375 -53.767  1.00  0.00    -0.166 F 
ENDBRANCH   9  24
TORSDOF 5
ENDMDL
MODEL 5
REMARK VINA RESULT:      -7.6     14.053     15.279
REMARK  5 active torsions:
REMARK  status: ('A' for Active; 'I' for Inactive)
REMARK    1  A    between atoms: O_2  and  C_3 
REMARK    2  A    between atoms: C_4  and  N_5 
REMARK    3  A    between atoms: N_5  and  C_6 
REMARK    4  A    between atoms: C_6  and  C_7 
REMARK    5  A    between atoms: C_15  and  C_16 
ROOT
HETATM    1  C   UNL     1     -35.909  41.773 -54.529  1.00  0.00     0.120 A 
HETATM    2  N   UNL     1     -34.791  41.424 -53.974  1.00  0.00    -0.233 NA
HETATM    3  C   UNL     1     -34.831  40.917 -52.667  1.00  0.00     0.075 A 
HETATM    4  C   UNL     1     -36.024  40.737 -51.966  1.00  0.00     0.061 A 
HETATM    5  C   UNL     1     -37.273  41.116 -52.647  1.00  0.00     0.259 A 
HETATM    6  O   UNL     1     -38.368  41.004 -52.110  1.00  0.00    -0.267 OA
HETATM    7  N   UNL     1     -37.127  41.619 -53.913  1.00  0.00    -0.310 N 
HETATM    8  C   UNL     1     -33.625  40.616 -52.030  1.00  0.00     0.048 A 
HETATM    9  C   UNL     1     -33.604  40.136 -50.709  1.00  0.00     0.050 A 
HETATM   10  C   UNL     1     -34.821  39.955 -50.030  1.00  0.00     0.017 A 
HETATM   11  C   UNL     1     -36.031  40.253 -50.655  1.00  0.00     0.020 A 
HETATM   12  H   UNL     1     -37.973  41.956 -54.352  1.00  0.00     0.170 HD
ENDROOT
BRANCH   1  13
HETATM   13  C   UNL     1     -35.945  42.401 -55.920  1.00  0.00     0.171 C 
BRANCH  13  14
HETATM   14  N   UNL     1     -37.287  42.341 -56.534  1.00  0.00    -0.284 NA
HETATM   15  H   UNL     1     -37.568  43.296 -56.766  1.00  0.00     0.128 HD
BRANCH  14  16
HETATM   16  C   UNL     1     -37.320  41.618 -57.754  1.00  0.00     0.042 A 
HETATM   17  C   UNL     1     -37.562  40.230 -57.764  1.00  0.00     0.089 A 
HETATM   18  C   UNL     1     -37.673  39.549 -58.979  1.00  0.00     0.038 A 
HETATM   19  C   UNL     1     -37.520  40.239 -60.184  1.00  0.00     0.003 A 
HETATM   20  C   UNL     1     -37.258  41.607 -60.180  1.00  0.00     0.002 A 
HETATM   21  C   UNL     1     -37.160  42.292 -58.970  1.00  0.00     0.026 A 
BRANCH  17  22
HETATM   22  O   UNL     1     -37.712  39.637 -56.532  1.00  0.00    -0.354 OA
HETATM   23  C   UNL     1     -36.733  38.648 -56.225  1.00  0.00     0.210 C 
ENDBRANCH  17  22
ENDBRANCH  14  16
ENDBRANCH  13  14
ENDBRANCH   1  13
BRANCH   9  24
HETATM   24  C   UNL     1     -32.296  39.852 -50.010  1.00  0.00     0.417 C 
HETATM   25  F   UNL     1     -32.083  38.529 -49.766  1.00  0.00    -0.166 F 
HETATM   26  F   UNL     1     -31.223  40.278 -50.731  1.00  0.00    -0.166 F 
HETATM   27  F   UNL     1     -32.207  40.473 -48.802  1.00  0.00    -0.166 F 
ENDBRANCH   9  24
TORSDOF 5
ENDMDL
MODEL 6
REMARK VINA RESULT:      -7.6      3.798      5.969
REMARK  5 active torsions:
REMARK  status: ('A' for Active; 'I' for Inactive)
REMARK    1  A    between atoms: O_2  and  C_3 
REMARK    2  A    between atoms: C_4  and  N_5 
REMARK    3  A    between atoms: N_5  and  C_6 
REMARK    4  A    between atoms: C_6  and  C_7 
REMARK    5  A    between atoms: C_15  and  C_16 
ROOT
HETATM    1  C   UNL     1     -43.265  56.387 -52.305  1.00  0.00     0.120 A 
HETATM    2  N   UNL     1     -42.693  55.255 -52.037  1.00  0.00    -0.233 NA
HETATM    3  C   UNL     1     -41.839  54.700 -53.001  1.00  0.00     0.075 A 
HETATM    4  C   UNL     1     -41.554  55.337 -54.210  1.00  0.00     0.061 A 
HETATM    5  C   UNL     1     -42.201  56.636 -54.460  1.00  0.00     0.259 A 
HETATM    6  O   UNL     1     -42.020  57.266 -55.495  1.00  0.00    -0.267 OA
HETATM    7  N   UNL     1     -43.030  57.084 -53.466  1.00  0.00    -0.310 N 
HETATM    8  C   UNL     1     -41.283  53.443 -52.757  1.00  0.00     0.048 A 
HETATM    9  C   UNL     1     -40.447  52.824 -53.702  1.00  0.00     0.050 A 
HETATM   10  C   UNL     1     -40.169  53.492 -54.907  1.00  0.00     0.017 A 
HETATM   11  C   UNL     1     -40.719  54.748 -55.163  1.00  0.00     0.020 A 
HETATM   12  H   UNL     1     -43.539  57.934 -53.668  1.00  0.00     0.170 HD
ENDROOT
BRANCH   1  13
HETATM   13  C   UNL     1     -44.264  57.021 -51.341  1.00  0.00     0.171 C 
BRANCH  13  14
HETATM   14  N   UNL     1     -44.790  58.309 -51.839  1.00  0.00    -0.284 NA
HETATM   15  H   UNL     1     -45.805  58.220 -51.924  1.00  0.00     0.128 HD
BRANCH  14  16
HETATM   16  C   UNL     1     -44.567  59.393 -50.951  1.00  0.00     0.042 A 
HETATM   17  C   UNL     1     -43.397  60.173 -51.043  1.00  0.00     0.089 A 
HETATM   18  C   UNL     1     -43.233  61.286 -50.215  1.00  0.00     0.038 A 
HETATM   19  C   UNL     1     -44.217  61.614 -49.279  1.00  0.00     0.003 A 
HETATM   20  C   UNL     1     -45.365  60.834 -49.167  1.00  0.00     0.002 A 
HETATM   21  C   UNL     1     -45.539  59.729 -50.001  1.00  0.00     0.026 A 
BRANCH  17  22
HETATM   22  O   UNL     1     -42.490  59.785 -52.001  1.00  0.00    -0.354 OA
HETATM   23  C   UNL     1     -41.190  59.483 -51.501  1.00  0.00     0.210 C 
ENDBRANCH  17  22
ENDBRANCH  14  16
ENDBRANCH  13  14
ENDBRANCH   1  13
BRANCH   9  24
HETATM   24  C   UNL     1     -39.881  51.447 -53.452  1.00  0.00     0.417 C 
HETATM   25  F   UNL     1     -38.588  51.306 -53.852  1.00  0.00    -0.166 F 
HETATM   26  F   UNL     1     -39.904  51.113 -52.132  1.00  0.00    -0.166 F 
HETATM   27  F   UNL     1     -40.580  50.473 -54.097  1.00  0.00    -0.166 F 
ENDBRANCH   9  24
TORSDOF 5
ENDMDL
MODEL 7
REMARK VINA RESULT:      -7.6      3.579      7.532
REMARK  5 active torsions:
REMARK  status: ('A' for Active; 'I' for Inactive)
REMARK    1  A    between atoms: O_2  and  C_3 
REMARK    2  A    between atoms: C_4  and  N_5 
REMARK    3  A    between atoms: N_5  and  C_6 
REMARK    4  A    between atoms: C_6  and  C_7 
REMARK    5  A    between atoms: C_15  and  C_16 
ROOT
HETATM    1  C   UNL     1     -41.652  56.645 -54.319  1.00  0.00     0.120 A 
HETATM    2  N   UNL     1     -42.127  55.948 -55.304  1.00  0.00    -0.233 NA
HETATM    3  C   UNL     1     -42.583  56.633 -56.440  1.00  0.00     0.075 A 
HETATM    4  C   UNL     1     -42.505  58.020 -56.564  1.00  0.00     0.061 A 
HETATM    5  C   UNL     1     -41.929  58.770 -55.434  1.00  0.00     0.259 A 
HETATM    6  O   UNL     1     -41.828  59.990 -55.446  1.00  0.00    -0.267 OA
HETATM    7  N   UNL     1     -41.531  58.013 -54.365  1.00  0.00    -0.310 N 
HETATM    8  C   UNL     1     -43.171  55.898 -57.472  1.00  0.00     0.048 A 
HETATM    9  C   UNL     1     -43.675  56.535 -58.619  1.00  0.00     0.050 A 
HETATM   10  C   UNL     1     -43.575  57.933 -58.721  1.00  0.00     0.017 A 
HETATM   11  C   UNL     1     -42.990  58.678 -57.698  1.00  0.00     0.020 A 
HETATM   12  H   UNL     1     -41.212  58.528 -53.556  1.00  0.00     0.170 HD
ENDROOT
BRANCH   1  13
HETATM   13  C   UNL     1     -41.205  55.982 -53.020  1.00  0.00     0.171 C 
BRANCH  13  14
HETATM   14  N   UNL     1     -41.885  54.693 -52.779  1.00  0.00    -0.284 NA
HETATM   15  H   UNL     1     -42.553  54.545 -53.538  1.00  0.00     0.128 HD
BRANCH  14  16
HETATM   16  C   UNL     1     -41.010  53.576 -52.808  1.00  0.00     0.042 A 
HETATM   17  C   UNL     1     -40.522  53.012 -51.612  1.00  0.00     0.089 A 
HETATM   18  C   UNL     1     -39.728  51.863 -51.656  1.00  0.00     0.038 A 
HETATM   19  C   UNL     1     -39.398  51.286 -52.886  1.00  0.00     0.003 A 
HETATM   20  C   UNL     1     -39.860  51.853 -54.072  1.00  0.00     0.002 A 
HETATM   21  C   UNL     1     -40.663  52.992 -54.031  1.00  0.00     0.026 A 
BRANCH  17  22
HETATM   22  O   UNL     1     -40.907  53.638 -50.450  1.00  0.00    -0.354 OA
HETATM   23  C   UNL     1     -39.846  54.255 -49.727  1.00  0.00     0.210 C 
ENDBRANCH  17  22
ENDBRANCH  14  16
ENDBRANCH  13  14
ENDBRANCH   1  13
BRANCH   9  24
HETATM   24  C   UNL     1     -44.348  55.742 -59.713  1.00  0.00     0.417 C 
HETATM   25  F   UNL     1     -45.708  55.788 -59.666  1.00  0.00    -0.166 F 
HETATM   26  F   UNL     1     -44.000  56.179 -60.954  1.00  0.00    -0.166 F 
HETATM   27  F   UNL     1     -44.019  54.421 -59.675  1.00  0.00    -0.166 F 
ENDBRANCH   9  24
TORSDOF 5
ENDMDL
MODEL 8
REMARK VINA RESULT:      -7.5     13.943     16.953
REMARK  5 active torsions:
REMARK  status: ('A' for Active; 'I' for Inactive)
REMARK    1  A    between atoms: O_2  and  C_3 
REMARK    2  A    between atoms: C_4  and  N_5 
REMARK    3  A    between atoms: N_5  and  C_6 
REMARK    4  A    between atoms: C_6  and  C_7 
REMARK    5  A    between atoms: C_15  and  C_16 
ROOT
HETATM    1  C   UNL     1     -33.541  40.658 -54.752  1.00  0.00     0.120 A 
HETATM    2  N   UNL     1     -33.888  40.452 -55.983  1.00  0.00    -0.233 NA
HETATM    3  C   UNL     1     -35.105  40.992 -56.426  1.00  0.00     0.075 A 
HETATM    4  C   UNL     1     -35.924  41.771 -55.608  1.00  0.00     0.061 A 
HETATM    5  C   UNL     1     -35.475  42.006 -54.226  1.00  0.00     0.259 A 
HETATM    6  O   UNL     1     -36.131  42.667 -53.431  1.00  0.00    -0.267 OA
HETATM    7  N   UNL     1     -34.285  41.421 -53.885  1.00  0.00    -0.310 N 
HETATM    8  C   UNL     1     -35.528  40.708 -57.726  1.00  0.00     0.048 A 
HETATM    9  C   UNL     1     -36.754  41.195 -58.212  1.00  0.00     0.050 A 
HETATM   10  C   UNL     1     -37.556  41.985 -57.370  1.00  0.00     0.017 A 
HETATM   11  C   UNL     1     -37.144  42.276 -56.069  1.00  0.00     0.020 A 
HETATM   12  H   UNL     1     -34.013  41.511 -52.915  1.00  0.00     0.170 HD
ENDROOT
BRANCH   1  13
HETATM   13  C   UNL     1     -32.270  40.043 -54.172  1.00  0.00     0.171 C 
BRANCH  13  14
HETATM   14  N   UNL     1     -32.546  38.853 -53.341  1.00  0.00    -0.284 NA
HETATM   15  H   UNL     1     -31.717  38.255 -53.367  1.00  0.00     0.128 HD
BRANCH  14  16
HETATM   16  C   UNL     1     -32.764  39.156 -51.972  1.00  0.00     0.042 A 
HETATM   17  C   UNL     1     -34.051  39.060 -51.408  1.00  0.00     0.089 A 
HETATM   18  C   UNL     1     -34.233  39.281 -50.041  1.00  0.00     0.038 A 
HETATM   19  C   UNL     1     -33.143  39.622 -49.236  1.00  0.00     0.003 A 
HETATM   20  C   UNL     1     -31.871  39.741 -49.792  1.00  0.00     0.002 A 
HETATM   21  C   UNL     1     -31.684  39.507 -51.154  1.00  0.00     0.026 A 
BRANCH  17  22
HETATM   22  O   UNL     1     -35.061  38.707 -52.272  1.00  0.00    -0.354 OA
HETATM   23  C   UNL     1     -36.356  39.163 -51.891  1.00  0.00     0.210 C 
ENDBRANCH  17  22
ENDBRANCH  14  16
ENDBRANCH  13  14
ENDBRANCH   1  13
BRANCH   9  24
HETATM   24  C   UNL     1     -37.227  40.851 -59.604  1.00  0.00     0.417 C 
HETATM   25  F   UNL     1     -36.390  40.014 -60.276  1.00  0.00    -0.166 F 
HETATM   26  F   UNL     1     -38.444  40.239 -59.597  1.00  0.00    -0.166 F 
HETATM   27  F   UNL     1     -37.367  41.952 -60.392  1.00  0.00    -0.166 F 
ENDBRANCH   9  24
TORSDOF 5
ENDMDL
MODEL 9
REMARK VINA RESULT:      -7.2      2.839      3.328
REMARK  5 active torsions:
REMARK  status: ('A' for Active; 'I' for Inactive)
REMARK    1  A    between atoms: O_2  and  C_3 
REMARK    2  A    between atoms: C_4  and  N_5 
REMARK    3  A    between atoms: N_5  and  C_6 
REMARK    4  A    between atoms: C_6  and  C_7 
REMARK    5  A    between atoms: C_15  and  C_16 
ROOT
HETATM    1  C   UNL     1     -44.599  57.232 -54.379  1.00  0.00     0.120 A 
HETATM    2  N   UNL     1     -43.863  56.280 -54.862  1.00  0.00    -0.233 NA
HETATM    3  C   UNL     1     -43.189  55.444 -53.960  1.00  0.00     0.075 A 
HETATM    4  C   UNL     1     -43.315  55.573 -52.576  1.00  0.00     0.061 A 
HETATM    5  C   UNL     1     -44.186  56.648 -52.072  1.00  0.00     0.259 A 
HETATM    6  O   UNL     1     -44.351  56.846 -50.875  1.00  0.00    -0.267 OA
HETATM    7  N   UNL     1     -44.784  57.421 -53.031  1.00  0.00    -0.310 N 
HETATM    8  C   UNL     1     -42.330  54.468 -54.468  1.00  0.00     0.048 A 
HETATM    9  C   UNL     1     -41.603  53.624 -53.611  1.00  0.00     0.050 A 
HETATM   10  C   UNL     1     -41.756  53.769 -52.221  1.00  0.00     0.017 A 
HETATM   11  C   UNL     1     -42.611  54.741 -51.701  1.00  0.00     0.020 A 
HETATM   12  H   UNL     1     -45.317  58.210 -52.690  1.00  0.00     0.170 HD
ENDROOT
BRANCH   1  13
HETATM   13  C   UNL     1     -45.306  58.230 -55.292  1.00  0.00     0.171 C 
BRANCH  13  14
HETATM   14  N   UNL     1     -46.273  57.579 -56.201  1.00  0.00    -0.284 NA
HETATM   15  H   UNL     1     -47.206  57.697 -55.801  1.00  0.00     0.128 HD
BRANCH  14  16
HETATM   16  C   UNL     1     -46.324  58.169 -57.490  1.00  0.00     0.042 A 
HETATM   17  C   UNL     1     -45.391  57.812 -58.484  1.00  0.00     0.089 A 
HETATM   18  C   UNL     1     -45.508  58.341 -59.772  1.00  0.00     0.038 A 
HETATM   19  C   UNL     1     -46.534  59.242 -60.069  1.00  0.00     0.003 A 
HETATM   20  C   UNL     1     -47.445  59.615 -59.085  1.00  0.00     0.002 A 
HETATM   21  C   UNL     1     -47.340  59.079 -57.802  1.00  0.00     0.026 A 
BRANCH  17  22
HETATM   22  O   UNL     1     -44.425  56.910 -58.106  1.00  0.00    -0.354 OA
HETATM   23  C   UNL     1     -43.832  56.188 -59.182  1.00  0.00     0.210 C 
ENDBRANCH  17  22
ENDBRANCH  14  16
ENDBRANCH  13  14
ENDBRANCH   1  13
BRANCH   9  24
HETATM   24  C   UNL     1     -40.644  52.598 -54.164  1.00  0.00     0.417 C 
HETATM   25  F   UNL     1     -41.236  51.420 -54.503  1.00  0.00    -0.166 F 
HETATM   26  F   UNL     1     -40.012  53.037 -55.287  1.00  0.00    -0.166 F 
HETATM   27  F   UNL     1     -39.658  52.279 -53.280  1.00  0.00    -0.166 F 
ENDBRANCH   9  24
TORSDOF 5
ENDMDL
MODEL 10
REMARK VINA RESULT:      -7.1      2.880      3.815
REMARK  5 active torsions:
REMARK  status: ('A' for Active; 'I' for Inactive)
REMARK    1  A    between atoms: O_2  and  C_3 
REMARK    2  A    between atoms: C_4  and  N_5 
REMARK    3  A    between atoms: N_5  and  C_6 
REMARK    4  A    between atoms: C_6  and  C_7 
REMARK    5  A    between atoms: C_15  and  C_16 
ROOT
HETATM    1  C   UNL     1     -43.987  56.748 -53.981  1.00  0.00     0.120 A 
HETATM    2  N   UNL     1     -43.302  56.720 -52.880  1.00  0.00    -0.233 NA
HETATM    3  C   UNL     1     -42.525  55.584 -52.614  1.00  0.00     0.075 A 
HETATM    4  C   UNL     1     -42.429  54.512 -53.502  1.00  0.00     0.061 A 
HETATM    5  C   UNL     1     -43.198  54.600 -54.754  1.00  0.00     0.259 A 
HETATM    6  O   UNL     1     -43.186  53.705 -55.591  1.00  0.00    -0.267 OA
HETATM    7  N   UNL     1     -43.941  55.739 -54.913  1.00  0.00    -0.310 N 
HETATM    8  C   UNL     1     -41.848  55.508 -51.394  1.00  0.00     0.048 A 
HETATM    9  C   UNL     1     -41.081  54.379 -51.060  1.00  0.00     0.050 A 
HETATM   10  C   UNL     1     -40.995  53.317 -51.977  1.00  0.00     0.017 A 
HETATM   11  C   UNL     1     -41.665  53.381 -53.198  1.00  0.00     0.020 A 
HETATM   12  H   UNL     1     -44.533  55.768 -55.731  1.00  0.00     0.170 HD
ENDROOT
BRANCH   1  13
HETATM   13  C   UNL     1     -44.914  57.914 -54.310  1.00  0.00     0.171 C 
BRANCH  13  14
HETATM   14  N   UNL     1     -45.070  58.119 -55.765  1.00  0.00    -0.284 NA
HETATM   15  H   UNL     1     -45.821  58.797 -55.907  1.00  0.00     0.128 HD
BRANCH  14  16
HETATM   16  C   UNL     1     -43.921  58.677 -56.384  1.00  0.00     0.042 A 
HETATM   17  C   UNL     1     -43.340  58.063 -57.512  1.00  0.00     0.089 A 
HETATM   18  C   UNL     1     -42.260  58.670 -58.158  1.00  0.00     0.038 A 
HETATM   19  C   UNL     1     -41.740  59.873 -57.673  1.00  0.00     0.003 A 
HETATM   20  C   UNL     1     -42.296  60.472 -56.546  1.00  0.00     0.002 A 
HETATM   21  C   UNL     1     -43.382  59.876 -55.906  1.00  0.00     0.026 A 
BRANCH  17  22
HETATM   22  O   UNL     1     -43.925  56.889 -57.926  1.00  0.00    -0.354 OA
HETATM   23  C   UNL     1     -43.015  55.921 -58.441  1.00  0.00     0.210 C 
ENDBRANCH  17  22
ENDBRANCH  14  16
ENDBRANCH  13  14
ENDBRANCH   1  13
BRANCH   9  24
HETATM   24  C   UNL     1     -40.386  54.283 -49.723  1.00  0.00     0.417 C 
HETATM   25  F   UNL     1     -39.085  54.682 -49.752  1.00  0.00    -0.166 F 
HETATM   26  F   UNL     1     -40.992  55.046 -48.772  1.00  0.00    -0.166 F 
HETATM   27  F   UNL     1     -40.375  53.013 -49.233  1.00  0.00    -0.166 F 
ENDBRANCH   9  24
TORSDOF 5
ENDMDL
