MODEL 1
REMARK VINA RESULT:      -8.7      0.000      0.000
REMARK  8 active torsions:
REMARK  status: ('A' for Active; 'I' for Inactive)
REMARK    1  A    between atoms: C_4  and  S_5 
REMARK    2  A    between atoms: S_5  and  C_6 
REMARK    3  A    between atoms: C_6  and  C_7 
REMARK       I    between atoms: C_7  and  N_8 
REMARK    4  A    between atoms: N_8  and  C_9 
REMARK    5  A    between atoms: C_20  and  C_21 
REMARK    6  A    between atoms: C_27  and  C_28 
REMARK       I    between atoms: C_28  and  N_29 
REMARK    7  A    between atoms: N_29  and  C_30 
REMARK    8  A    between atoms: C_31  and  O_32 
ROOT
HETATM    1  C   UNL     1     -45.494  60.884 -53.822  1.00  0.00     0.069 C 
HETATM    2  C   UNL     1     -44.829  59.729 -53.112  1.00  0.00     0.019 C 
HETATM    3  N   UNL     1     -44.736  58.555 -53.842  1.00  0.00    -0.353 N 
HETATM    4  C   UNL     1     -44.350  57.328 -53.336  1.00  0.00     0.087 C 
HETATM    5  C   UNL     1     -43.864  57.275 -52.074  1.00  0.00     0.055 C 
HETATM    6  C   UNL     1     -43.577  55.959 -51.371  1.00  0.00     0.019 C 
HETATM    7  N   UNL     1     -43.339  54.867 -50.788  1.00  0.00    -0.096 N 
HETATM    8  C   UNL     1     -43.560  58.564 -51.311  1.00  0.00     0.104 C 
HETATM    9  C   UNL     1     -44.295  59.786 -51.865  1.00  0.00     0.046 C 
HETATM   10  H   UNL     1     -45.134  58.537 -54.778  1.00  0.00     0.166 HD
ENDROOT
BRANCH   4  11
HETATM   11  S   UNL     1     -44.322  55.944 -54.401  1.00  0.00    -0.102 SA
BRANCH  11  12
HETATM   12  C   UNL     1     -42.791  56.163 -55.360  1.00  0.00     0.184 C 
BRANCH  12  13
HETATM   13  C   UNL     1     -41.617  55.394 -54.739  1.00  0.00     0.231 C 
HETATM   14  N   UNL     1     -41.936  54.122 -54.295  1.00  0.00    -0.326 N 
HETATM   15  H   UNL     1     -42.918  53.877 -54.377  1.00  0.00     0.169 HD
HETATM   16  O   UNL     1     -40.499  55.904 -54.706  1.00  0.00    -0.272 OA
BRANCH  14  17
HETATM   17  C   UNL     1     -41.112  53.173 -53.661  1.00  0.00     0.036 A 
HETATM   18  C   UNL     1     -40.602  52.035 -54.284  1.00  0.00     0.053 A 
HETATM   19  C   UNL     1     -39.781  51.159 -53.568  1.00  0.00     0.036 A 
HETATM   20 CL   UNL     1     -39.154  49.751 -54.338  1.00  0.00    -0.084 Cl
HETATM   21  C   UNL     1     -39.458  51.408 -52.235  1.00  0.00     0.024 A 
HETATM   22  C   UNL     1     -39.965  52.541 -51.607  1.00  0.00     0.004 A 
HETATM   23  C   UNL     1     -40.790  53.417 -52.318  1.00  0.00     0.029 A 
ENDBRANCH  14  17
ENDBRANCH  12  13
ENDBRANCH  11  12
ENDBRANCH   4  11
BRANCH   8  24
HETATM   24  C   UNL     1     -42.033  58.757 -51.304  1.00  0.00    -0.044 A 
HETATM   25  C   UNL     1     -41.362  59.241 -50.163  1.00  0.00     0.008 A 
HETATM   26  C   UNL     1     -39.988  59.478 -50.186  1.00  0.00     0.001 A 
HETATM   27  C   UNL     1     -39.261  59.249 -51.349  1.00  0.00     0.000 A 
HETATM   28  C   UNL     1     -39.909  58.783 -52.492  1.00  0.00     0.001 A 
HETATM   29  C   UNL     1     -41.286  58.538 -52.473  1.00  0.00     0.008 A 
ENDBRANCH   8  24
BRANCH   9  30
HETATM   30  C   UNL     1     -44.452  61.026 -51.025  1.00  0.00     0.255 C 
HETATM   31  N   UNL     1     -45.681  61.190 -50.418  1.00  0.00    -0.321 N 
HETATM   32  H   UNL     1     -46.483  60.693 -50.769  1.00  0.00     0.169 HD
HETATM   33  O   UNL     1     -43.561  61.873 -51.008  1.00  0.00    -0.268 OA
BRANCH  31  34
HETATM   34  C   UNL     1     -45.963  62.184 -49.451  1.00  0.00     0.068 A 
HETATM   35  C   UNL     1     -46.090  61.911 -48.073  1.00  0.00     0.095 A 
HETATM   36  C   UNL     1     -46.332  62.970 -47.191  1.00  0.00     0.039 A 
HETATM   37  C   UNL     1     -46.481  64.275 -47.670  1.00  0.00     0.003 A 
HETATM   38  C   UNL     1     -46.420  64.530 -49.036  1.00  0.00     0.002 A 
HETATM   39  C   UNL     1     -46.178  63.484 -49.927  1.00  0.00     0.032 A 
BRANCH  35  40
HETATM   40  O   UNL     1     -46.088  60.591 -47.701  1.00  0.00    -0.354 OA
HETATM   41  C   UNL     1     -45.858  60.288 -46.333  1.00  0.00     0.210 C 
ENDBRANCH  35  40
ENDBRANCH  31  34
ENDBRANCH   9  30
TORSDOF 8
ENDMDL
MODEL 2
REMARK VINA RESULT:      -8.7      4.611      7.794
REMARK  8 active torsions:
REMARK  status: ('A' for Active; 'I' for Inactive)
REMARK    1  A    between atoms: C_4  and  S_5 
REMARK    2  A    between atoms: S_5  and  C_6 
REMARK    3  A    between atoms: C_6  and  C_7 
REMARK       I    between atoms: C_7  and  N_8 
REMARK    4  A    between atoms: N_8  and  C_9 
REMARK    5  A    between atoms: C_20  and  C_21 
REMARK    6  A    between atoms: C_27  and  C_28 
REMARK       I    between atoms: C_28  and  N_29 
REMARK    7  A    between atoms: N_29  and  C_30 
REMARK    8  A    between atoms: C_31  and  O_32 
ROOT
HETATM    1  C   UNL     1     -43.300  61.613 -54.615  1.00  0.00     0.069 C 
HETATM    2  C   UNL     1     -43.302  60.180 -55.091  1.00  0.00     0.019 C 
HETATM    3  N   UNL     1     -43.542  59.228 -54.114  1.00  0.00    -0.353 N 
HETATM    4  C   UNL     1     -43.399  57.864 -54.276  1.00  0.00     0.087 C 
HETATM    5  C   UNL     1     -43.166  57.383 -55.520  1.00  0.00     0.055 C 
HETATM    6  C   UNL     1     -42.824  55.924 -55.774  1.00  0.00     0.019 C 
HETATM    7  N   UNL     1     -42.540  54.714 -55.985  1.00  0.00    -0.096 N 
HETATM    8  C   UNL     1     -43.265  58.306 -56.733  1.00  0.00     0.104 C 
HETATM    9  C   UNL     1     -43.137  59.789 -56.381  1.00  0.00     0.046 C 
HETATM   10  H   UNL     1     -43.672  59.545 -53.156  1.00  0.00     0.166 HD
ENDROOT
BRANCH   4  11
HETATM   11  S   UNL     1     -43.715  56.811 -52.918  1.00  0.00    -0.102 SA
BRANCH  11  12
HETATM   12  C   UNL     1     -42.067  56.196 -52.453  1.00  0.00     0.184 C 
BRANCH  12  13
HETATM   13  C   UNL     1     -42.009  54.662 -52.462  1.00  0.00     0.231 C 
HETATM   14  N   UNL     1     -40.767  54.137 -52.775  1.00  0.00    -0.326 N 
HETATM   15  H   UNL     1     -40.064  54.826 -53.022  1.00  0.00     0.169 HD
HETATM   16  O   UNL     1     -43.008  54.010 -52.164  1.00  0.00    -0.272 OA
BRANCH  14  17
HETATM   17  C   UNL     1     -40.382  52.789 -52.896  1.00  0.00     0.036 A 
HETATM   18  C   UNL     1     -39.963  51.994 -51.830  1.00  0.00     0.053 A 
HETATM   19  C   UNL     1     -39.611  50.660 -52.053  1.00  0.00     0.036 A 
HETATM   20 CL   UNL     1     -39.091  49.680 -50.735  1.00  0.00    -0.084 Cl
HETATM   21  C   UNL     1     -39.677  50.105 -53.330  1.00  0.00     0.024 A 
HETATM   22  C   UNL     1     -40.092  50.893 -54.399  1.00  0.00     0.004 A 
HETATM   23  C   UNL     1     -40.440  52.229 -54.181  1.00  0.00     0.029 A 
ENDBRANCH  14  17
ENDBRANCH  12  13
ENDBRANCH  11  12
ENDBRANCH   4  11
BRANCH   8  24
HETATM   24  C   UNL     1     -44.588  57.993 -57.455  1.00  0.00    -0.044 A 
HETATM   25  C   UNL     1     -44.602  57.369 -58.719  1.00  0.00     0.008 A 
HETATM   26  C   UNL     1     -45.800  57.150 -59.398  1.00  0.00     0.001 A 
HETATM   27  C   UNL     1     -47.004  57.558 -58.835  1.00  0.00     0.000 A 
HETATM   28  C   UNL     1     -47.010  58.188 -57.591  1.00  0.00     0.001 A 
HETATM   29  C   UNL     1     -45.812  58.406 -56.904  1.00  0.00     0.008 A 
ENDBRANCH   8  24
BRANCH   9  30
HETATM   30  C   UNL     1     -42.799  60.799 -57.446  1.00  0.00     0.255 C 
HETATM   31  N   UNL     1     -41.529  60.711 -57.978  1.00  0.00    -0.321 N 
HETATM   32  H   UNL     1     -40.806  60.226 -57.472  1.00  0.00     0.169 HD
HETATM   33  O   UNL     1     -43.589  61.704 -57.707  1.00  0.00    -0.268 OA
BRANCH  31  34
HETATM   34  C   UNL     1     -41.087  61.442 -59.107  1.00  0.00     0.068 A 
HETATM   35  C   UNL     1     -41.544  61.195 -60.418  1.00  0.00     0.095 A 
HETATM   36  C   UNL     1     -41.075  62.000 -61.462  1.00  0.00     0.039 A 
HETATM   37  C   UNL     1     -40.142  63.011 -61.217  1.00  0.00     0.003 A 
HETATM   38  C   UNL     1     -39.645  63.209 -59.933  1.00  0.00     0.002 A 
HETATM   39  C   UNL     1     -40.104  62.415 -58.882  1.00  0.00     0.032 A 
BRANCH  35  40
HETATM   40  O   UNL     1     -42.335  60.089 -60.600  1.00  0.00    -0.354 OA
HETATM   41  C   UNL     1     -43.522  60.241 -61.364  1.00  0.00     0.210 C 
ENDBRANCH  35  40
ENDBRANCH  31  34
ENDBRANCH   9  30
TORSDOF 8
ENDMDL
MODEL 3
REMARK VINA RESULT:      -8.4      3.946      7.809
REMARK  8 active torsions:
REMARK  status: ('A' for Active; 'I' for Inactive)
REMARK    1  A    between atoms: C_4  and  S_5 
REMARK    2  A    between atoms: S_5  and  C_6 
REMARK    3  A    between atoms: C_6  and  C_7 
REMARK       I    between atoms: C_7  and  N_8 
REMARK    4  A    between atoms: N_8  and  C_9 
REMARK    5  A    between atoms: C_20  and  C_21 
REMARK    6  A    between atoms: C_27  and  C_28 
REMARK       I    between atoms: C_28  and  N_29 
REMARK    7  A    between atoms: N_29  and  C_30 
REMARK    8  A    between atoms: C_31  and  O_32 
ROOT
HETATM    1  C   UNL     1     -46.221  60.056 -55.949  1.00  0.00     0.069 C 
HETATM    2  C   UNL     1     -44.899  59.530 -55.443  1.00  0.00     0.019 C 
HETATM    3  N   UNL     1     -44.584  59.869 -54.137  1.00  0.00    -0.353 N 
HETATM    4  C   UNL     1     -43.357  59.670 -53.534  1.00  0.00     0.087 C 
HETATM    5  C   UNL     1     -42.425  58.941 -54.192  1.00  0.00     0.055 C 
HETATM    6  C   UNL     1     -40.996  58.812 -53.692  1.00  0.00     0.019 C 
HETATM    7  N   UNL     1     -39.810  58.705 -53.279  1.00  0.00    -0.096 N 
HETATM    8  C   UNL     1     -42.796  58.192 -55.471  1.00  0.00     0.104 C 
HETATM    9  C   UNL     1     -44.056  58.734 -56.150  1.00  0.00     0.046 C 
HETATM   10  H   UNL     1     -45.234  60.458 -53.623  1.00  0.00     0.166 HD
ENDROOT
BRANCH   4  11
HETATM   11  S   UNL     1     -43.130  60.193 -51.882  1.00  0.00    -0.102 SA
BRANCH  11  12
HETATM   12  C   UNL     1     -44.335  59.204 -50.944  1.00  0.00     0.184 C 
BRANCH  12  13
HETATM   13  C   UNL     1     -43.905  57.734 -50.840  1.00  0.00     0.231 C 
HETATM   14  N   UNL     1     -42.541  57.544 -50.701  1.00  0.00    -0.326 N 
HETATM   15  H   UNL     1     -41.986  58.393 -50.746  1.00  0.00     0.169 HD
HETATM   16  O   UNL     1     -44.755  56.846 -50.844  1.00  0.00    -0.272 OA
BRANCH  14  17
HETATM   17  C   UNL     1     -41.821  56.339 -50.607  1.00  0.00     0.036 A 
HETATM   18  C   UNL     1     -41.428  55.751 -49.405  1.00  0.00     0.053 A 
HETATM   19  C   UNL     1     -40.723  54.543 -49.420  1.00  0.00     0.036 A 
HETATM   20 CL   UNL     1     -40.237  53.818 -47.935  1.00  0.00    -0.084 Cl
HETATM   21  C   UNL     1     -40.409  53.911 -50.622  1.00  0.00     0.024 A 
HETATM   22  C   UNL     1     -40.797  54.493 -51.824  1.00  0.00     0.004 A 
HETATM   23  C   UNL     1     -41.496  55.703 -51.815  1.00  0.00     0.029 A 
ENDBRANCH  14  17
ENDBRANCH  12  13
ENDBRANCH  11  12
ENDBRANCH   4  11
BRANCH   8  24
HETATM   24  C   UNL     1     -42.922  56.699 -55.121  1.00  0.00    -0.044 A 
HETATM   25  C   UNL     1     -42.011  55.750 -55.628  1.00  0.00     0.008 A 
HETATM   26  C   UNL     1     -42.170  54.390 -55.363  1.00  0.00     0.001 A 
HETATM   27  C   UNL     1     -43.246  53.951 -54.598  1.00  0.00     0.000 A 
HETATM   28  C   UNL     1     -44.164  54.873 -54.099  1.00  0.00     0.001 A 
HETATM   29  C   UNL     1     -44.007  56.238 -54.357  1.00  0.00     0.008 A 
ENDBRANCH   8  24
BRANCH   9  30
HETATM   30  C   UNL     1     -44.340  58.417 -57.594  1.00  0.00     0.255 C 
HETATM   31  N   UNL     1     -45.300  57.451 -57.821  1.00  0.00    -0.321 N 
HETATM   32  H   UNL     1     -45.543  56.806 -57.087  1.00  0.00     0.169 HD
HETATM   33  O   UNL     1     -43.652  58.919 -58.481  1.00  0.00    -0.268 OA
BRANCH  31  34
HETATM   34  C   UNL     1     -45.836  57.146 -59.094  1.00  0.00     0.068 A 
HETATM   35  C   UNL     1     -45.417  56.043 -59.867  1.00  0.00     0.095 A 
HETATM   36  C   UNL     1     -46.038  55.803 -61.099  1.00  0.00     0.039 A 
HETATM   37  C   UNL     1     -47.032  56.663 -61.573  1.00  0.00     0.003 A 
HETATM   38  C   UNL     1     -47.395  57.786 -60.838  1.00  0.00     0.002 A 
HETATM   39  C   UNL     1     -46.787  58.038 -59.608  1.00  0.00     0.032 A 
BRANCH  35  40
HETATM   40  O   UNL     1     -44.333  55.340 -59.408  1.00  0.00    -0.354 OA
HETATM   41  C   UNL     1     -44.422  53.923 -59.385  1.00  0.00     0.210 C 
ENDBRANCH  35  40
ENDBRANCH  31  34
ENDBRANCH   9  30
TORSDOF 8
ENDMDL
MODEL 4
REMARK VINA RESULT:      -8.3      4.986      8.354
REMARK  8 active torsions:
REMARK  status: ('A' for Active; 'I' for Inactive)
REMARK    1  A    between atoms: C_4  and  S_5 
REMARK    2  A    between atoms: S_5  and  C_6 
REMARK    3  A    between atoms: C_6  and  C_7 
REMARK       I    between atoms: C_7  and  N_8 
REMARK    4  A    between atoms: N_8  and  C_9 
REMARK    5  A    between atoms: C_20  and  C_21 
REMARK    6  A    between atoms: C_27  and  C_28 
REMARK       I    between atoms: C_28  and  N_29 
REMARK    7  A    between atoms: N_29  and  C_30 
REMARK    8  A    between atoms: C_31  and  O_32 
ROOT
HETATM    1  C   UNL     1     -42.828  56.161 -57.774  1.00  0.00     0.069 C 
HETATM    2  C   UNL     1     -43.004  57.567 -57.251  1.00  0.00     0.019 C 
HETATM    3  N   UNL     1     -42.372  57.838 -56.048  1.00  0.00    -0.353 N 
HETATM    4  C   UNL     1     -42.553  58.980 -55.291  1.00  0.00     0.087 C 
HETATM    5  C   UNL     1     -43.269  59.998 -55.821  1.00  0.00     0.055 C 
HETATM    6  C   UNL     1     -43.667  61.219 -55.007  1.00  0.00     0.019 C 
HETATM    7  N   UNL     1     -43.998  62.231 -54.332  1.00  0.00    -0.096 N 
HETATM    8  C   UNL     1     -43.688  59.963 -57.290  1.00  0.00     0.104 C 
HETATM    9  C   UNL     1     -43.679  58.556 -57.891  1.00  0.00     0.046 C 
HETATM   10  H   UNL     1     -41.865  57.085 -55.591  1.00  0.00     0.166 HD
ENDROOT
BRANCH   4  11
HETATM   11  S   UNL     1     -41.695  59.137 -53.777  1.00  0.00    -0.102 SA
BRANCH  11  12
HETATM   12  C   UNL     1     -42.605  58.039 -52.647  1.00  0.00     0.184 C 
BRANCH  12  13
HETATM   13  C   UNL     1     -42.483  56.567 -53.064  1.00  0.00     0.231 C 
HETATM   14  N   UNL     1     -41.274  55.976 -52.735  1.00  0.00    -0.326 N 
HETATM   15  H   UNL     1     -40.594  56.604 -52.316  1.00  0.00     0.169 HD
HETATM   16  O   UNL     1     -43.431  56.002 -53.603  1.00  0.00    -0.272 OA
BRANCH  14  17
HETATM   17  C   UNL     1     -40.830  54.666 -52.993  1.00  0.00     0.036 A 
HETATM   18  C   UNL     1     -40.554  53.722 -52.005  1.00  0.00     0.053 A 
HETATM   19  C   UNL     1     -40.128  52.440 -52.367  1.00  0.00     0.036 A 
HETATM   20 CL   UNL     1     -39.784  51.276 -51.145  1.00  0.00    -0.084 Cl
HETATM   21  C   UNL     1     -39.979  52.086 -53.706  1.00  0.00     0.024 A 
HETATM   22  C   UNL     1     -40.252  53.024 -54.698  1.00  0.00     0.004 A 
HETATM   23  C   UNL     1     -40.672  54.308 -54.340  1.00  0.00     0.029 A 
ENDBRANCH  14  17
ENDBRANCH  12  13
ENDBRANCH  11  12
ENDBRANCH   4  11
BRANCH   8  24
HETATM   24  C   UNL     1     -42.774  60.931 -58.062  1.00  0.00    -0.044 A 
HETATM   25  C   UNL     1     -43.295  61.820 -59.024  1.00  0.00     0.008 A 
HETATM   26  C   UNL     1     -42.454  62.646 -59.769  1.00  0.00     0.001 A 
HETATM   27  C   UNL     1     -41.078  62.593 -59.577  1.00  0.00     0.000 A 
HETATM   28  C   UNL     1     -40.542  61.710 -58.639  1.00  0.00     0.001 A 
HETATM   29  C   UNL     1     -41.381  60.884 -57.886  1.00  0.00     0.008 A 
ENDBRANCH   8  24
BRANCH   9  30
HETATM   30  C   UNL     1     -44.436  58.264 -59.160  1.00  0.00     0.255 C 
HETATM   31  N   UNL     1     -45.761  57.912 -59.003  1.00  0.00    -0.321 N 
HETATM   32  H   UNL     1     -46.087  57.576 -58.112  1.00  0.00     0.169 HD
HETATM   33  O   UNL     1     -43.842  58.233 -60.236  1.00  0.00    -0.268 OA
BRANCH  31  34
HETATM   34  C   UNL     1     -46.681  57.781 -60.070  1.00  0.00     0.068 A 
HETATM   35  C   UNL     1     -46.971  56.550 -60.695  1.00  0.00     0.095 A 
HETATM   36  C   UNL     1     -47.927  56.518 -61.718  1.00  0.00     0.039 A 
HETATM   37  C   UNL     1     -48.558  57.691 -62.139  1.00  0.00     0.003 A 
HETATM   38  C   UNL     1     -48.220  58.912 -61.564  1.00  0.00     0.002 A 
HETATM   39  C   UNL     1     -47.271  58.960 -60.543  1.00  0.00     0.032 A 
BRANCH  35  40
HETATM   40  O   UNL     1     -46.200  55.474 -60.335  1.00  0.00    -0.354 OA
HETATM   41  C   UNL     1     -45.107  55.131 -61.174  1.00  0.00     0.210 C 
ENDBRANCH  35  40
ENDBRANCH  31  34
ENDBRANCH   9  30
TORSDOF 8
ENDMDL
MODEL 5
REMARK VINA RESULT:      -8.2      5.093      9.501
REMARK  8 active torsions:
REMARK  status: ('A' for Active; 'I' for Inactive)
REMARK    1  A    between atoms: C_4  and  S_5 
REMARK    2  A    between atoms: S_5  and  C_6 
REMARK    3  A    between atoms: C_6  and  C_7 
REMARK       I    between atoms: C_7  and  N_8 
REMARK    4  A    between atoms: N_8  and  C_9 
REMARK    5  A    between atoms: C_20  and  C_21 
REMARK    6  A    between atoms: C_27  and  C_28 
REMARK       I    between atoms: C_28  and  N_29 
REMARK    7  A    between atoms: N_29  and  C_30 
REMARK    8  A    between atoms: C_31  and  O_32 
ROOT
HETATM    1  C   UNL     1     -41.926  57.953 -53.006  1.00  0.00     0.069 C 
HETATM    2  C   UNL     1     -42.869  58.029 -54.183  1.00  0.00     0.019 C 
HETATM    3  N   UNL     1     -43.334  59.298 -54.492  1.00  0.00    -0.353 N 
HETATM    4  C   UNL     1     -44.345  59.580 -55.390  1.00  0.00     0.087 C 
HETATM    5  C   UNL     1     -44.822  58.576 -56.161  1.00  0.00     0.055 C 
HETATM    6  C   UNL     1     -46.043  58.747 -57.051  1.00  0.00     0.019 C 
HETATM    7  N   UNL     1     -47.056  58.888 -57.788  1.00  0.00    -0.096 N 
HETATM    8  C   UNL     1     -44.120  57.219 -56.180  1.00  0.00     0.104 C 
HETATM    9  C   UNL     1     -43.236  56.975 -54.956  1.00  0.00     0.046 C 
HETATM   10  H   UNL     1     -43.039  60.074 -53.905  1.00  0.00     0.166 HD
ENDROOT
BRANCH   4  11
HETATM   11  S   UNL     1     -44.825  61.243 -55.629  1.00  0.00    -0.102 SA
BRANCH  11  12
HETATM   12  C   UNL     1     -43.257  62.163 -55.549  1.00  0.00     0.184 C 
BRANCH  12  13
HETATM   13  C   UNL     1     -42.852  62.717 -56.922  1.00  0.00     0.231 C 
HETATM   14  N   UNL     1     -41.758  62.089 -57.493  1.00  0.00    -0.326 N 
HETATM   15  H   UNL     1     -41.319  61.384 -56.909  1.00  0.00     0.169 HD
HETATM   16  O   UNL     1     -43.512  63.616 -57.439  1.00  0.00    -0.272 OA
BRANCH  14  17
HETATM   17  C   UNL     1     -41.119  62.364 -58.716  1.00  0.00     0.036 A 
HETATM   18  C   UNL     1     -39.998  63.182 -58.850  1.00  0.00     0.053 A 
HETATM   19  C   UNL     1     -39.430  63.383 -60.112  1.00  0.00     0.036 A 
HETATM   20 CL   UNL     1     -38.047  64.396 -60.276  1.00  0.00    -0.084 Cl
HETATM   21  C   UNL     1     -39.966  62.772 -61.244  1.00  0.00     0.024 A 
HETATM   22  C   UNL     1     -41.086  61.956 -61.118  1.00  0.00     0.004 A 
HETATM   23  C   UNL     1     -41.660  61.757 -59.860  1.00  0.00     0.029 A 
ENDBRANCH  14  17
ENDBRANCH  12  13
ENDBRANCH  11  12
ENDBRANCH   4  11
BRANCH   8  24
HETATM   24  C   UNL     1     -43.330  57.118 -57.497  1.00  0.00    -0.044 A 
HETATM   25  C   UNL     1     -42.499  58.169 -57.935  1.00  0.00     0.008 A 
HETATM   26  C   UNL     1     -41.839  58.099 -59.161  1.00  0.00     0.001 A 
HETATM   27  C   UNL     1     -42.004  56.986 -59.978  1.00  0.00     0.000 A 
HETATM   28  C   UNL     1     -42.832  55.942 -59.569  1.00  0.00     0.001 A 
HETATM   29  C   UNL     1     -43.492  56.004 -58.338  1.00  0.00     0.008 A 
ENDBRANCH   8  24
BRANCH   9  30
HETATM   30  C   UNL     1     -42.805  55.578 -54.593  1.00  0.00     0.255 C 
HETATM   31  N   UNL     1     -41.451  55.399 -54.392  1.00  0.00    -0.321 N 
HETATM   32  H   UNL     1     -40.797  56.066 -54.767  1.00  0.00     0.169 HD
HETATM   33  O   UNL     1     -43.622  54.660 -54.607  1.00  0.00    -0.268 OA
BRANCH  31  34
HETATM   34  C   UNL     1     -40.875  54.217 -53.870  1.00  0.00     0.068 A 
HETATM   35  C   UNL     1     -40.740  53.965 -52.488  1.00  0.00     0.095 A 
HETATM   36  C   UNL     1     -40.192  52.746 -52.072  1.00  0.00     0.039 A 
HETATM   37  C   UNL     1     -39.750  51.808 -53.008  1.00  0.00     0.003 A 
HETATM   38  C   UNL     1     -39.825  52.088 -54.368  1.00  0.00     0.002 A 
HETATM   39  C   UNL     1     -40.370  53.298 -54.799  1.00  0.00     0.032 A 
BRANCH  35  40
HETATM   40  O   UNL     1     -41.051  54.995 -51.638  1.00  0.00    -0.354 OA
HETATM   41  C   UNL     1     -42.218  54.869 -50.840  1.00  0.00     0.210 C 
ENDBRANCH  35  40
ENDBRANCH  31  34
ENDBRANCH   9  30
TORSDOF 8
ENDMDL
MODEL 6
REMARK VINA RESULT:      -8.2      5.056      8.204
REMARK  8 active torsions:
REMARK  status: ('A' for Active; 'I' for Inactive)
REMARK    1  A    between atoms: C_4  and  S_5 
REMARK    2  A    between atoms: S_5  and  C_6 
REMARK    3  A    between atoms: C_6  and  C_7 
REMARK       I    between atoms: C_7  and  N_8 
REMARK    4  A    between atoms: N_8  and  C_9 
REMARK    5  A    between atoms: C_20  and  C_21 
REMARK    6  A    between atoms: C_27  and  C_28 
REMARK       I    between atoms: C_28  and  N_29 
REMARK    7  A    between atoms: N_29  and  C_30 
REMARK    8  A    between atoms: C_31  and  O_32 
ROOT
HETATM    1  C   UNL     1     -43.322  55.609 -59.152  1.00  0.00     0.069 C 
HETATM    2  C   UNL     1     -43.527  56.727 -58.157  1.00  0.00     0.019 C 
HETATM    3  N   UNL     1     -42.886  56.566 -56.939  1.00  0.00    -0.353 N 
HETATM    4  C   UNL     1     -43.086  57.353 -55.822  1.00  0.00     0.087 C 
HETATM    5  C   UNL     1     -43.837  58.473 -55.947  1.00  0.00     0.055 C 
HETATM    6  C   UNL     1     -44.256  59.306 -54.747  1.00  0.00     0.019 C 
HETATM    7  N   UNL     1     -44.604  59.997 -53.752  1.00  0.00    -0.096 N 
HETATM    8  C   UNL     1     -44.275  58.955 -57.329  1.00  0.00     0.104 C 
HETATM    9  C   UNL     1     -44.237  57.860 -58.396  1.00  0.00     0.046 C 
HETATM   10  H   UNL     1     -42.353  55.714 -56.786  1.00  0.00     0.166 HD
ENDROOT
BRANCH   4  11
HETATM   11  S   UNL     1     -42.212  56.981 -54.356  1.00  0.00    -0.102 SA
BRANCH  11  12
HETATM   12  C   UNL     1     -43.437  56.112 -53.329  1.00  0.00     0.184 C 
BRANCH  12  13
HETATM   13  C   UNL     1     -42.903  54.762 -52.829  1.00  0.00     0.231 C 
HETATM   14  N   UNL     1     -41.661  54.415 -53.332  1.00  0.00    -0.326 N 
HETATM   15  H   UNL     1     -41.283  55.063 -54.016  1.00  0.00     0.169 HD
HETATM   16  O   UNL     1     -43.553  54.109 -52.015  1.00  0.00    -0.272 OA
BRANCH  14  17
HETATM   17  C   UNL     1     -40.907  53.249 -53.101  1.00  0.00     0.036 A 
HETATM   18  C   UNL     1     -40.744  52.223 -54.031  1.00  0.00     0.053 A 
HETATM   19  C   UNL     1     -39.964  51.108 -53.707  1.00  0.00     0.036 A 
HETATM   20 CL   UNL     1     -39.766  49.840 -54.855  1.00  0.00    -0.084 Cl
HETATM   21  C   UNL     1     -39.339  51.008 -52.466  1.00  0.00     0.024 A 
HETATM   22  C   UNL     1     -39.499  52.028 -51.532  1.00  0.00     0.004 A 
HETATM   23  C   UNL     1     -40.282  53.141 -51.850  1.00  0.00     0.029 A 
ENDBRANCH  14  17
ENDBRANCH  12  13
ENDBRANCH  11  12
ENDBRANCH   4  11
BRANCH   8  24
HETATM   24  C   UNL     1     -43.398  60.163 -57.705  1.00  0.00    -0.044 A 
HETATM   25  C   UNL     1     -43.971  61.390 -58.095  1.00  0.00     0.008 A 
HETATM   26  C   UNL     1     -43.172  62.459 -58.500  1.00  0.00     0.001 A 
HETATM   27  C   UNL     1     -41.789  62.320 -58.533  1.00  0.00     0.000 A 
HETATM   28  C   UNL     1     -41.204  61.110 -58.162  1.00  0.00     0.001 A 
HETATM   29  C   UNL     1     -42.000  60.037 -57.751  1.00  0.00     0.008 A 
ENDBRANCH   8  24
BRANCH   9  30
HETATM   30  C   UNL     1     -45.004  58.021 -59.682  1.00  0.00     0.255 C 
HETATM   31  N   UNL     1     -46.293  57.528 -59.681  1.00  0.00    -0.321 N 
HETATM   32  H   UNL     1     -46.568  56.847 -58.992  1.00  0.00     0.169 HD
HETATM   33  O   UNL     1     -44.440  58.458 -60.683  1.00  0.00    -0.268 OA
BRANCH  31  34
HETATM   34  C   UNL     1     -47.229  57.746 -60.720  1.00  0.00     0.068 A 
HETATM   35  C   UNL     1     -47.782  59.010 -61.013  1.00  0.00     0.095 A 
HETATM   36  C   UNL     1     -48.670  59.128 -62.088  1.00  0.00     0.039 A 
HETATM   37  C   UNL     1     -49.034  58.006 -62.837  1.00  0.00     0.003 A 
HETATM   38  C   UNL     1     -48.536  56.751 -62.503  1.00  0.00     0.002 A 
HETATM   39  C   UNL     1     -47.649  56.617 -61.436  1.00  0.00     0.032 A 
BRANCH  35  40
HETATM   40  O   UNL     1     -47.499  60.028 -60.138  1.00  0.00    -0.354 OA
HETATM   41  C   UNL     1     -48.500  60.395 -59.202  1.00  0.00     0.210 C 
ENDBRANCH  35  40
ENDBRANCH  31  34
ENDBRANCH   9  30
TORSDOF 8
ENDMDL
MODEL 7
REMARK VINA RESULT:      -8.0      5.035      9.134
REMARK  8 active torsions:
REMARK  status: ('A' for Active; 'I' for Inactive)
REMARK    1  A    between atoms: C_4  and  S_5 
REMARK    2  A    between atoms: S_5  and  C_6 
REMARK    3  A    between atoms: C_6  and  C_7 
REMARK       I    between atoms: C_7  and  N_8 
REMARK    4  A    between atoms: N_8  and  C_9 
REMARK    5  A    between atoms: C_20  and  C_21 
REMARK    6  A    between atoms: C_27  and  C_28 
REMARK       I    between atoms: C_28  and  N_29 
REMARK    7  A    between atoms: N_29  and  C_30 
REMARK    8  A    between atoms: C_31  and  O_32 
ROOT
HETATM    1  C   UNL     1     -43.246  54.313 -56.493  1.00  0.00     0.069 C 
HETATM    2  C   UNL     1     -43.160  55.784 -56.166  1.00  0.00     0.019 C 
HETATM    3  N   UNL     1     -44.053  56.599 -56.843  1.00  0.00    -0.353 N 
HETATM    4  C   UNL     1     -44.026  57.980 -56.852  1.00  0.00     0.087 C 
HETATM    5  C   UNL     1     -43.174  58.613 -56.012  1.00  0.00     0.055 C 
HETATM    6  C   UNL     1     -42.947  60.115 -56.070  1.00  0.00     0.019 C 
HETATM    7  N   UNL     1     -42.758  61.360 -56.117  1.00  0.00    -0.096 N 
HETATM    8  C   UNL     1     -42.416  57.825 -54.945  1.00  0.00     0.104 C 
HETATM    9  C   UNL     1     -42.322  56.328 -55.246  1.00  0.00     0.046 C 
HETATM   10  H   UNL     1     -44.677  56.168 -57.521  1.00  0.00     0.166 HD
ENDROOT
BRANCH   4  11
HETATM   11  S   UNL     1     -45.216  58.845 -57.793  1.00  0.00    -0.102 SA
BRANCH  11  12
HETATM   12  C   UNL     1     -44.457  58.971 -59.442  1.00  0.00     0.184 C 
BRANCH  12  13
HETATM   13  C   UNL     1     -43.749  60.318 -59.640  1.00  0.00     0.231 C 
HETATM   14  N   UNL     1     -42.406  60.217 -59.963  1.00  0.00    -0.326 N 
HETATM   15  H   UNL     1     -42.040  59.271 -59.968  1.00  0.00     0.169 HD
HETATM   16  O   UNL     1     -44.386  61.365 -59.547  1.00  0.00    -0.272 OA
BRANCH  14  17
HETATM   17  C   UNL     1     -41.470  61.245 -60.183  1.00  0.00     0.036 A 
HETATM   18  C   UNL     1     -41.143  61.754 -61.439  1.00  0.00     0.053 A 
HETATM   19  C   UNL     1     -40.206  62.785 -61.549  1.00  0.00     0.036 A 
HETATM   20 CL   UNL     1     -39.801  63.411 -63.102  1.00  0.00    -0.084 Cl
HETATM   21  C   UNL     1     -39.592  63.320 -60.418  1.00  0.00     0.024 A 
HETATM   22  C   UNL     1     -39.912  62.815 -59.161  1.00  0.00     0.004 A 
HETATM   23  C   UNL     1     -40.845  61.781 -59.047  1.00  0.00     0.029 A 
ENDBRANCH  14  17
ENDBRANCH  12  13
ENDBRANCH  11  12
ENDBRANCH   4  11
BRANCH   8  24
HETATM   24  C   UNL     1     -43.090  58.104 -53.589  1.00  0.00    -0.044 A 
HETATM   25  C   UNL     1     -42.465  58.906 -52.613  1.00  0.00     0.008 A 
HETATM   26  C   UNL     1     -43.049  59.100 -51.361  1.00  0.00     0.001 A 
HETATM   27  C   UNL     1     -44.260  58.488 -51.056  1.00  0.00     0.000 A 
HETATM   28  C   UNL     1     -44.887  57.680 -52.004  1.00  0.00     0.001 A 
HETATM   29  C   UNL     1     -44.309  57.487 -53.262  1.00  0.00     0.008 A 
ENDBRANCH   8  24
BRANCH   9  30
HETATM   30  C   UNL     1     -41.292  55.475 -54.554  1.00  0.00     0.255 C 
HETATM   31  N   UNL     1     -41.784  54.516 -53.693  1.00  0.00    -0.321 N 
HETATM   32  H   UNL     1     -42.719  54.603 -53.328  1.00  0.00     0.169 HD
HETATM   33  O   UNL     1     -40.096  55.731 -54.683  1.00  0.00    -0.268 OA
BRANCH  31  34
HETATM   34  C   UNL     1     -40.996  53.503 -53.095  1.00  0.00     0.068 A 
HETATM   35  C   UNL     1     -40.600  53.528 -51.742  1.00  0.00     0.095 A 
HETATM   36  C   UNL     1     -39.853  52.458 -51.235  1.00  0.00     0.039 A 
HETATM   37  C   UNL     1     -39.474  51.399 -52.064  1.00  0.00     0.003 A 
HETATM   38  C   UNL     1     -39.812  51.411 -53.413  1.00  0.00     0.002 A 
HETATM   39  C   UNL     1     -40.557  52.470 -53.933  1.00  0.00     0.032 A 
BRANCH  35  40
HETATM   40  O   UNL     1     -40.874  54.671 -51.036  1.00  0.00    -0.354 OA
HETATM   41  C   UNL     1     -41.190  54.541 -49.658  1.00  0.00     0.210 C 
ENDBRANCH  35  40
ENDBRANCH  31  34
ENDBRANCH   9  30
TORSDOF 8
ENDMDL
MODEL 8
REMARK VINA RESULT:      -8.0      4.795     10.179
REMARK  8 active torsions:
REMARK  status: ('A' for Active; 'I' for Inactive)
REMARK    1  A    between atoms: C_4  and  S_5 
REMARK    2  A    between atoms: S_5  and  C_6 
REMARK    3  A    between atoms: C_6  and  C_7 
REMARK       I    between atoms: C_7  and  N_8 
REMARK    4  A    between atoms: N_8  and  C_9 
REMARK    5  A    between atoms: C_20  and  C_21 
REMARK    6  A    between atoms: C_27  and  C_28 
REMARK       I    between atoms: C_28  and  N_29 
REMARK    7  A    between atoms: N_29  and  C_30 
REMARK    8  A    between atoms: C_31  and  O_32 
ROOT
HETATM    1  C   UNL     1     -42.859  58.219 -52.738  1.00  0.00     0.069 C 
HETATM    2  C   UNL     1     -43.635  58.241 -54.032  1.00  0.00     0.019 C 
HETATM    3  N   UNL     1     -44.161  59.472 -54.391  1.00  0.00    -0.353 N 
HETATM    4  C   UNL     1     -45.060  59.687 -55.417  1.00  0.00     0.087 C 
HETATM    5  C   UNL     1     -45.339  58.663 -56.256  1.00  0.00     0.055 C 
HETATM    6  C   UNL     1     -46.437  58.749 -57.304  1.00  0.00     0.019 C 
HETATM    7  N   UNL     1     -47.348  58.820 -58.172  1.00  0.00    -0.096 N 
HETATM    8  C   UNL     1     -44.527  57.370 -56.191  1.00  0.00     0.104 C 
HETATM    9  C   UNL     1     -43.801  57.175 -54.858  1.00  0.00     0.046 C 
HETATM   10  H   UNL     1     -44.017  60.257 -53.762  1.00  0.00     0.166 HD
ENDROOT
BRANCH   4  11
HETATM   11  S   UNL     1     -45.644  61.309 -55.705  1.00  0.00    -0.102 SA
BRANCH  11  12
HETATM   12  C   UNL     1     -46.341  61.810 -54.100  1.00  0.00     0.184 C 
BRANCH  12  13
HETATM   13  C   UNL     1     -47.745  62.412 -54.254  1.00  0.00     0.231 C 
HETATM   14  N   UNL     1     -48.701  61.856 -53.421  1.00  0.00    -0.326 N 
HETATM   15  H   UNL     1     -48.374  61.078 -52.857  1.00  0.00     0.169 HD
HETATM   16  O   UNL     1     -47.932  63.339 -55.039  1.00  0.00    -0.272 OA
BRANCH  14  17
HETATM   17  C   UNL     1     -50.074  62.154 -53.327  1.00  0.00     0.036 A 
HETATM   18  C   UNL     1     -51.031  61.745 -54.255  1.00  0.00     0.053 A 
HETATM   19  C   UNL     1     -52.374  62.084 -54.064  1.00  0.00     0.036 A 
HETATM   20 CL   UNL     1     -53.555  61.581 -55.211  1.00  0.00    -0.084 Cl
HETATM   21  C   UNL     1     -52.775  62.824 -52.953  1.00  0.00     0.024 A 
HETATM   22  C   UNL     1     -51.824  63.237 -52.024  1.00  0.00     0.004 A 
HETATM   23  C   UNL     1     -50.480  62.905 -52.214  1.00  0.00     0.029 A 
ENDBRANCH  14  17
ENDBRANCH  12  13
ENDBRANCH  11  12
ENDBRANCH   4  11
BRANCH   8  24
HETATM   24  C   UNL     1     -43.558  57.363 -57.387  1.00  0.00    -0.044 A 
HETATM   25  C   UNL     1     -42.649  58.419 -57.598  1.00  0.00     0.008 A 
HETATM   26  C   UNL     1     -41.822  58.440 -58.721  1.00  0.00     0.001 A 
HETATM   27  C   UNL     1     -41.894  57.415 -59.658  1.00  0.00     0.000 A 
HETATM   28  C   UNL     1     -42.796  56.368 -59.473  1.00  0.00     0.001 A 
HETATM   29  C   UNL     1     -43.624  56.340 -58.347  1.00  0.00     0.008 A 
ENDBRANCH   8  24
BRANCH   9  30
HETATM   30  C   UNL     1     -43.305  55.813 -54.453  1.00  0.00     0.255 C 
HETATM   31  N   UNL     1     -41.934  55.661 -54.405  1.00  0.00    -0.321 N 
HETATM   32  H   UNL     1     -41.341  56.304 -54.903  1.00  0.00     0.169 HD
HETATM   33  O   UNL     1     -44.102  54.889 -54.302  1.00  0.00    -0.268 OA
BRANCH  31  34
HETATM   34  C   UNL     1     -41.278  54.524 -53.874  1.00  0.00     0.068 A 
HETATM   35  C   UNL     1     -41.060  54.330 -52.494  1.00  0.00     0.095 A 
HETATM   36  C   UNL     1     -40.436  53.152 -52.066  1.00  0.00     0.039 A 
HETATM   37  C   UNL     1     -40.002  52.200 -52.992  1.00  0.00     0.003 A 
HETATM   38  C   UNL     1     -40.161  52.426 -54.355  1.00  0.00     0.002 A 
HETATM   39  C   UNL     1     -40.783  53.594 -54.797  1.00  0.00     0.032 A 
BRANCH  35  40
HETATM   40  O   UNL     1     -41.371  55.377 -51.664  1.00  0.00    -0.354 OA
HETATM   41  C   UNL     1     -42.411  55.186 -50.717  1.00  0.00     0.210 C 
ENDBRANCH  35  40
ENDBRANCH  31  34
ENDBRANCH   9  30
TORSDOF 8
ENDMDL
MODEL 9
REMARK VINA RESULT:      -8.0      3.956      8.798
REMARK  8 active torsions:
REMARK  status: ('A' for Active; 'I' for Inactive)
REMARK    1  A    between atoms: C_4  and  S_5 
REMARK    2  A    between atoms: S_5  and  C_6 
REMARK    3  A    between atoms: C_6  and  C_7 
REMARK       I    between atoms: C_7  and  N_8 
REMARK    4  A    between atoms: N_8  and  C_9 
REMARK    5  A    between atoms: C_20  and  C_21 
REMARK    6  A    between atoms: C_27  and  C_28 
REMARK       I    between atoms: C_28  and  N_29 
REMARK    7  A    between atoms: N_29  and  C_30 
REMARK    8  A    between atoms: C_31  and  O_32 
ROOT
HETATM    1  C   UNL     1     -43.273  54.062 -56.230  1.00  0.00     0.069 C 
HETATM    2  C   UNL     1     -43.011  55.547 -56.156  1.00  0.00     0.019 C 
HETATM    3  N   UNL     1     -43.843  56.338 -56.931  1.00  0.00    -0.353 N 
HETATM    4  C   UNL     1     -43.666  57.688 -57.171  1.00  0.00     0.087 C 
HETATM    5  C   UNL     1     -42.710  58.346 -56.475  1.00  0.00     0.055 C 
HETATM    6  C   UNL     1     -42.325  59.783 -56.789  1.00  0.00     0.019 C 
HETATM    7  N   UNL     1     -42.004  60.974 -57.049  1.00  0.00    -0.096 N 
HETATM    8  C   UNL     1     -41.991  57.660 -55.315  1.00  0.00     0.104 C 
HETATM    9  C   UNL     1     -42.075  56.133 -55.365  1.00  0.00     0.046 C 
HETATM   10  H   UNL     1     -44.543  55.879 -57.508  1.00  0.00     0.166 HD
ENDROOT
BRANCH   4  11
HETATM   11  S   UNL     1     -44.801  58.520 -58.206  1.00  0.00    -0.102 SA
BRANCH  11  12
HETATM   12  C   UNL     1     -46.217  58.858 -57.115  1.00  0.00     0.184 C 
BRANCH  12  13
HETATM   13  C   UNL     1     -46.103  60.236 -56.447  1.00  0.00     0.231 C 
HETATM   14  N   UNL     1     -45.552  60.212 -55.176  1.00  0.00    -0.326 N 
HETATM   15  H   UNL     1     -45.350  59.285 -54.817  1.00  0.00     0.169 HD
HETATM   16  O   UNL     1     -46.448  61.244 -57.058  1.00  0.00    -0.272 OA
BRANCH  14  17
HETATM   17  C   UNL     1     -45.332  61.282 -54.288  1.00  0.00     0.036 A 
HETATM   18  C   UNL     1     -44.238  62.142 -54.351  1.00  0.00     0.053 A 
HETATM   19  C   UNL     1     -44.117  63.184 -53.426  1.00  0.00     0.036 A 
HETATM   20 CL   UNL     1     -42.762  64.245 -53.503  1.00  0.00    -0.084 Cl
HETATM   21  C   UNL     1     -45.080  63.380 -52.438  1.00  0.00     0.024 A 
HETATM   22  C   UNL     1     -46.175  62.523 -52.368  1.00  0.00     0.004 A 
HETATM   23  C   UNL     1     -46.296  61.478 -53.288  1.00  0.00     0.029 A 
ENDBRANCH  14  17
ENDBRANCH  12  13
ENDBRANCH  11  12
ENDBRANCH   4  11
BRANCH   8  24
HETATM   24  C   UNL     1     -42.563  58.231 -54.005  1.00  0.00    -0.044 A 
HETATM   25  C   UNL     1     -43.768  57.745 -53.460  1.00  0.00     0.008 A 
HETATM   26  C   UNL     1     -44.316  58.312 -52.310  1.00  0.00     0.001 A 
HETATM   27  C   UNL     1     -43.678  59.381 -51.689  1.00  0.00     0.000 A 
HETATM   28  C   UNL     1     -42.491  59.884 -52.221  1.00  0.00     0.001 A 
HETATM   29  C   UNL     1     -41.935  59.315 -53.370  1.00  0.00     0.008 A 
ENDBRANCH   8  24
BRANCH   9  30
HETATM   30  C   UNL     1     -41.111  55.290 -54.573  1.00  0.00     0.255 C 
HETATM   31  N   UNL     1     -41.670  54.493 -53.596  1.00  0.00    -0.321 N 
HETATM   32  H   UNL     1     -42.589  54.704 -53.243  1.00  0.00     0.169 HD
HETATM   33  O   UNL     1     -39.900  55.425 -54.736  1.00  0.00    -0.268 OA
BRANCH  31  34
HETATM   34  C   UNL     1     -40.962  53.501 -52.876  1.00  0.00     0.068 A 
HETATM   35  C   UNL     1     -40.710  53.581 -51.490  1.00  0.00     0.095 A 
HETATM   36  C   UNL     1     -40.033  52.529 -50.863  1.00  0.00     0.039 A 
HETATM   37  C   UNL     1     -39.582  51.432 -51.602  1.00  0.00     0.003 A 
HETATM   38  C   UNL     1     -39.777  51.388 -52.978  1.00  0.00     0.002 A 
HETATM   39  C   UNL     1     -40.450  52.429 -53.618  1.00  0.00     0.032 A 
BRANCH  35  40
HETATM   40  O   UNL     1     -41.043  54.756 -50.867  1.00  0.00    -0.354 OA
HETATM   41  C   UNL     1     -41.465  54.692 -49.513  1.00  0.00     0.210 C 
ENDBRANCH  35  40
ENDBRANCH  31  34
ENDBRANCH   9  30
TORSDOF 8
ENDMDL
MODEL 10
REMARK VINA RESULT:      -7.9      4.926      8.861
REMARK  8 active torsions:
REMARK  status: ('A' for Active; 'I' for Inactive)
REMARK    1  A    between atoms: C_4  and  S_5 
REMARK    2  A    between atoms: S_5  and  C_6 
REMARK    3  A    between atoms: C_6  and  C_7 
REMARK       I    between atoms: C_7  and  N_8 
REMARK    4  A    between atoms: N_8  and  C_9 
REMARK    5  A    between atoms: C_20  and  C_21 
REMARK    6  A    between atoms: C_27  and  C_28 
REMARK       I    between atoms: C_28  and  N_29 
REMARK    7  A    between atoms: N_29  and  C_30 
REMARK    8  A    between atoms: C_31  and  O_32 
ROOT
HETATM    1  C   UNL     1     -43.197  53.815 -55.715  1.00  0.00     0.069 C 
HETATM    2  C   UNL     1     -42.937  55.238 -56.151  1.00  0.00     0.019 C 
HETATM    3  N   UNL     1     -43.697  55.680 -57.223  1.00  0.00    -0.353 N 
HETATM    4  C   UNL     1     -43.495  56.861 -57.910  1.00  0.00     0.087 C 
HETATM    5  C   UNL     1     -42.600  57.749 -57.418  1.00  0.00     0.055 C 
HETATM    6  C   UNL     1     -42.183  58.991 -58.189  1.00  0.00     0.019 C 
HETATM    7  N   UNL     1     -41.837  60.021 -58.828  1.00  0.00    -0.096 N 
HETATM    8  C   UNL     1     -41.985  57.538 -56.036  1.00  0.00     0.104 C 
HETATM    9  C   UNL     1     -42.070  56.091 -55.547  1.00  0.00     0.046 C 
HETATM   10  H   UNL     1     -44.346  55.027 -57.654  1.00  0.00     0.166 HD
ENDROOT
BRANCH   4  11
HETATM   11  S   UNL     1     -44.534  57.242 -59.262  1.00  0.00    -0.102 SA
BRANCH  11  12
HETATM   12  C   UNL     1     -46.032  57.918 -58.482  1.00  0.00     0.184 C 
BRANCH  12  13
HETATM   13  C   UNL     1     -45.923  59.433 -58.261  1.00  0.00     0.231 C 
HETATM   14  N   UNL     1     -45.569  59.801 -56.974  1.00  0.00    -0.326 N 
HETATM   15  H   UNL     1     -45.486  59.030 -56.319  1.00  0.00     0.169 HD
HETATM   16  O   UNL     1     -46.105  60.204 -59.201  1.00  0.00    -0.272 OA
BRANCH  14  17
HETATM   17  C   UNL     1     -45.409  61.091 -56.434  1.00  0.00     0.036 A 
HETATM   18  C   UNL     1     -46.319  61.698 -55.570  1.00  0.00     0.053 A 
HETATM   19  C   UNL     1     -46.062  62.982 -55.079  1.00  0.00     0.036 A 
HETATM   20 CL   UNL     1     -47.188  63.732 -54.013  1.00  0.00    -0.084 Cl
HETATM   21  C   UNL     1     -44.903  63.667 -55.438  1.00  0.00     0.024 A 
HETATM   22  C   UNL     1     -43.992  63.068 -56.302  1.00  0.00     0.004 A 
HETATM   23  C   UNL     1     -44.247  61.787 -56.799  1.00  0.00     0.029 A 
ENDBRANCH  14  17
ENDBRANCH  12  13
ENDBRANCH  11  12
ENDBRANCH   4  11
BRANCH   8  24
HETATM   24  C   UNL     1     -42.665  58.520 -55.064  1.00  0.00    -0.044 A 
HETATM   25  C   UNL     1     -42.037  59.722 -54.682  1.00  0.00     0.008 A 
HETATM   26  C   UNL     1     -42.628  60.575 -53.749  1.00  0.00     0.001 A 
HETATM   27  C   UNL     1     -43.849  60.238 -53.174  1.00  0.00     0.000 A 
HETATM   28  C   UNL     1     -44.478  59.047 -53.530  1.00  0.00     0.001 A 
HETATM   29  C   UNL     1     -43.894  58.191 -54.468  1.00  0.00     0.008 A 
ENDBRANCH   8  24
BRANCH   9  30
HETATM   30  C   UNL     1     -41.180  55.609 -54.431  1.00  0.00     0.255 C 
HETATM   31  N   UNL     1     -41.792  55.429 -53.208  1.00  0.00    -0.321 N 
HETATM   32  H   UNL     1     -42.670  55.884 -53.015  1.00  0.00     0.169 HD
HETATM   33  O   UNL     1     -39.968  55.513 -54.611  1.00  0.00    -0.268 OA
BRANCH  31  34
HETATM   34  C   UNL     1     -41.175  54.813 -52.093  1.00  0.00     0.068 A 
HETATM   35  C   UNL     1     -40.748  53.468 -52.089  1.00  0.00     0.095 A 
HETATM   36  C   UNL     1     -40.112  52.963 -50.950  1.00  0.00     0.039 A 
HETATM   37  C   UNL     1     -39.935  53.765 -49.819  1.00  0.00     0.003 A 
HETATM   38  C   UNL     1     -40.416  55.070 -49.805  1.00  0.00     0.002 A 
HETATM   39  C   UNL     1     -41.051  55.588 -50.934  1.00  0.00     0.032 A 
BRANCH  35  40
HETATM   40  O   UNL     1     -41.097  52.704 -53.173  1.00  0.00    -0.354 OA
HETATM   41  C   UNL     1     -40.061  52.027 -53.869  1.00  0.00     0.210 C 
ENDBRANCH  35  40
ENDBRANCH  31  34
ENDBRANCH   9  30
TORSDOF 8
ENDMDL
