MODEL 1
REMARK VINA RESULT:      -9.0      0.000      0.000
REMARK  6 active torsions:
REMARK  status: ('A' for Active; 'I' for Inactive)
REMARK    1  A    between atoms: C_4  and  C_5 
REMARK    2  A    between atoms: C_5  and  N_6 
REMARK    3  A    between atoms: C_10  and  C_11 
REMARK    4  A    between atoms: C_11  and  C_12 
REMARK    5  A    between atoms: N_21  and  C_22 
REMARK    6  A    between atoms: C_22  and  C_23 
ROOT
HETATM    1  C   UNL     1     -43.972  57.887 -54.846  1.00  0.00     0.149 C 
HETATM    2  N   UNL     1     -42.716  57.701 -55.556  1.00  0.00    -0.220 NA
HETATM    3  C   UNL     1     -42.881  57.893 -56.913  1.00  0.00     0.304 C 
HETATM    4  O   UNL     1     -41.936  57.930 -57.681  1.00  0.00    -0.253 OA
HETATM    5  N   UNL     1     -44.204  57.974 -57.198  1.00  0.00    -0.270 N 
HETATM    6  C   UNL     1     -44.937  57.878 -56.050  1.00  0.00     0.257 C 
HETATM    7  O   UNL     1     -46.153  57.774 -55.969  1.00  0.00    -0.270 OA
HETATM    8  H   UNL     1     -41.901  58.202 -55.204  1.00  0.00     0.134 HD
ENDROOT
BRANCH   1   9
HETATM    9  C   UNL     1     -44.298  56.727 -53.847  1.00  0.00     0.028 C 
HETATM   10  C   UNL     1     -43.525  56.773 -52.515  1.00  0.00     0.035 C 
HETATM   11  C   UNL     1     -42.057  56.402 -52.653  1.00  0.00     0.235 C 
HETATM   12  N   UNL     1     -41.931  55.019 -53.252  1.00  0.00    -0.067 N 
HETATM   13  H   UNL     1     -42.327  54.370 -52.563  1.00  0.00     0.280 HD
HETATM   14  C   UNL     1     -42.684  54.840 -54.548  1.00  0.00     0.235 C 
HETATM   15  C   UNL     1     -44.129  55.305 -54.425  1.00  0.00     0.035 C 
BRANCH  12  16
HETATM   16  C   UNL     1     -40.481  54.588 -53.448  1.00  0.00     0.274 C 
BRANCH  16  17
HETATM   17  C   UNL     1     -40.183  53.171 -53.025  1.00  0.00    -0.026 A 
HETATM   18  C   UNL     1     -40.131  52.165 -54.011  1.00  0.00     0.016 A 
HETATM   19  C   UNL     1     -39.910  50.826 -53.668  1.00  0.00    -0.061 A 
HETATM   20  C   UNL     1     -39.824  49.759 -54.721  1.00  0.00     0.048 C 
HETATM   21  C   UNL     1     -39.709  50.495 -52.328  1.00  0.00     0.007 A 
HETATM   22  C   UNL     1     -39.742  51.480 -51.341  1.00  0.00     0.008 A 
HETATM   23  C   UNL     1     -39.981  52.822 -51.671  1.00  0.00    -0.054 A 
HETATM   24  C   UNL     1     -39.974  53.840 -50.559  1.00  0.00     0.049 C 
ENDBRANCH  16  17
ENDBRANCH  12  16
ENDBRANCH   1   9
BRANCH   1  25
HETATM   25  C   UNL     1     -43.934  59.245 -54.142  1.00  0.00     0.067 A 
HETATM   26  N   UNL     1     -42.691  59.810 -54.044  1.00  0.00    -0.263 NA
HETATM   27  C   UNL     1     -42.597  61.008 -53.421  1.00  0.00     0.117 A 
HETATM   28  C   UNL     1     -43.674  61.668 -52.864  1.00  0.00     0.019 A 
HETATM   29  C   UNL     1     -44.926  61.072 -52.949  1.00  0.00     0.003 A 
HETATM   30  C   UNL     1     -45.064  59.844 -53.590  1.00  0.00     0.030 A 
ENDBRANCH   1  25
BRANCH   5  31
HETATM   31  C   UNL     1     -44.738  58.118 -58.543  1.00  0.00     0.168 C 
BRANCH  31  32
HETATM   32  C   UNL     1     -45.135  56.788 -59.187  1.00  0.00     0.140 C 
HETATM   33  O   UNL     1     -46.487  56.834 -59.681  1.00  0.00    -0.384 OA
HETATM   34  C   UNL     1     -46.563  55.993 -60.845  1.00  0.00     0.168 C 
HETATM   35  C   UNL     1     -45.176  55.427 -61.088  1.00  0.00     0.029 C 
HETATM   36  C   UNL     1     -44.287  56.427 -60.393  1.00  0.00     0.036 C 
ENDBRANCH  31  32
ENDBRANCH   5  31
TORSDOF 6
ENDMDL
MODEL 2
REMARK VINA RESULT:      -8.7      2.127      3.289
REMARK  6 active torsions:
REMARK  status: ('A' for Active; 'I' for Inactive)
REMARK    1  A    between atoms: C_4  and  C_5 
REMARK    2  A    between atoms: C_5  and  N_6 
REMARK    3  A    between atoms: C_10  and  C_11 
REMARK    4  A    between atoms: C_11  and  C_12 
REMARK    5  A    between atoms: N_21  and  C_22 
REMARK    6  A    between atoms: C_22  and  C_23 
ROOT
HETATM    1  C   UNL     1     -43.282  58.149 -52.227  1.00  0.00     0.149 C 
HETATM    2  N   UNL     1     -41.830  58.235 -52.263  1.00  0.00    -0.220 NA
HETATM    3  C   UNL     1     -41.399  58.860 -53.416  1.00  0.00     0.304 C 
HETATM    4  O   UNL     1     -40.234  59.170 -53.588  1.00  0.00    -0.253 OA
HETATM    5  N   UNL     1     -42.444  59.003 -54.268  1.00  0.00    -0.270 N 
HETATM    6  C   UNL     1     -43.584  58.517 -53.695  1.00  0.00     0.257 C 
HETATM    7  O   UNL     1     -44.667  58.366 -54.243  1.00  0.00    -0.270 OA
HETATM    8  H   UNL     1     -41.363  58.609 -51.438  1.00  0.00     0.134 HD
ENDROOT
BRANCH   1   9
HETATM    9  C   UNL     1     -43.810  56.718 -51.879  1.00  0.00     0.028 C 
HETATM   10  C   UNL     1     -43.205  56.087 -50.610  1.00  0.00     0.035 C 
HETATM   11  C   UNL     1     -41.761  55.642 -50.784  1.00  0.00     0.235 C 
HETATM   12  N   UNL     1     -41.663  54.654 -51.925  1.00  0.00    -0.067 N 
HETATM   13  H   UNL     1     -42.186  53.821 -51.630  1.00  0.00     0.280 HD
HETATM   14  C   UNL     1     -42.262  55.148 -53.220  1.00  0.00     0.235 C 
HETATM   15  C   UNL     1     -43.674  55.681 -53.015  1.00  0.00     0.035 C 
BRANCH  12  16
HETATM   16  C   UNL     1     -40.234  54.182 -52.179  1.00  0.00     0.274 C 
BRANCH  16  17
HETATM   17  C   UNL     1     -40.108  52.723 -52.538  1.00  0.00    -0.026 A 
HETATM   18  C   UNL     1     -39.982  51.777 -51.501  1.00  0.00     0.016 A 
HETATM   19  C   UNL     1     -39.809  50.416 -51.779  1.00  0.00    -0.061 A 
HETATM   20  C   UNL     1     -39.708  49.404 -50.674  1.00  0.00     0.048 C 
HETATM   21  C   UNL     1     -39.791  49.994 -53.109  1.00  0.00     0.007 A 
HETATM   22  C   UNL     1     -39.928  50.915 -54.146  1.00  0.00     0.008 A 
HETATM   23  C   UNL     1     -40.084  52.283 -53.880  1.00  0.00    -0.054 A 
HETATM   24  C   UNL     1     -40.257  53.220 -55.048  1.00  0.00     0.049 C 
ENDBRANCH  16  17
ENDBRANCH  12  16
ENDBRANCH   1   9
BRANCH   1  25
HETATM   25  C   UNL     1     -43.805  59.199 -51.245  1.00  0.00     0.067 A 
HETATM   26  N   UNL     1     -45.144  59.121 -50.975  1.00  0.00    -0.263 NA
HETATM   27  C   UNL     1     -45.664  60.031 -50.120  1.00  0.00     0.117 A 
HETATM   28  C   UNL     1     -44.925  61.041 -49.534  1.00  0.00     0.019 A 
HETATM   29  C   UNL     1     -43.571  61.125 -49.836  1.00  0.00     0.003 A 
HETATM   30  C   UNL     1     -42.999  60.199 -50.705  1.00  0.00     0.030 A 
ENDBRANCH   1  25
BRANCH   5  31
HETATM   31  C   UNL     1     -42.333  59.572 -55.601  1.00  0.00     0.168 C 
BRANCH  31  32
HETATM   32  C   UNL     1     -42.284  58.518 -56.711  1.00  0.00     0.140 C 
HETATM   33  O   UNL     1     -42.172  57.191 -56.162  1.00  0.00    -0.384 OA
HETATM   34  C   UNL     1     -42.858  56.286 -57.044  1.00  0.00     0.168 C 
HETATM   35  C   UNL     1     -43.442  57.111 -58.176  1.00  0.00     0.029 C 
HETATM   36  C   UNL     1     -43.540  58.486 -57.564  1.00  0.00     0.036 C 
ENDBRANCH  31  32
ENDBRANCH   5  31
TORSDOF 6
ENDMDL
MODEL 3
REMARK VINA RESULT:      -8.7      2.110      2.861
REMARK  6 active torsions:
REMARK  status: ('A' for Active; 'I' for Inactive)
REMARK    1  A    between atoms: C_4  and  C_5 
REMARK    2  A    between atoms: C_5  and  N_6 
REMARK    3  A    between atoms: C_10  and  C_11 
REMARK    4  A    between atoms: C_11  and  C_12 
REMARK    5  A    between atoms: N_21  and  C_22 
REMARK    6  A    between atoms: C_22  and  C_23 
ROOT
HETATM    1  C   UNL     1     -43.584  58.375 -52.525  1.00  0.00     0.149 C 
HETATM    2  N   UNL     1     -42.135  58.480 -52.592  1.00  0.00    -0.220 NA
HETATM    3  C   UNL     1     -41.743  59.243 -53.674  1.00  0.00     0.304 C 
HETATM    4  O   UNL     1     -40.585  59.583 -53.841  1.00  0.00    -0.253 OA
HETATM    5  N   UNL     1     -42.813  59.476 -54.473  1.00  0.00    -0.270 N 
HETATM    6  C   UNL     1     -43.933  58.913 -53.929  1.00  0.00     0.257 C 
HETATM    7  O   UNL     1     -45.031  58.817 -54.460  1.00  0.00    -0.270 OA
HETATM    8  H   UNL     1     -41.646  58.758 -51.743  1.00  0.00     0.134 HD
ENDROOT
BRANCH   1   9
HETATM    9  C   UNL     1     -44.092  56.907 -52.336  1.00  0.00     0.028 C 
HETATM   10  C   UNL     1     -43.480  56.151 -51.141  1.00  0.00     0.035 C 
HETATM   11  C   UNL     1     -42.030  55.749 -51.357  1.00  0.00     0.235 C 
HETATM   12  N   UNL     1     -41.915  54.892 -52.598  1.00  0.00    -0.067 N 
HETATM   13  H   UNL     1     -42.426  54.025 -52.397  1.00  0.00     0.280 HD
HETATM   14  C   UNL     1     -42.518  55.514 -53.833  1.00  0.00     0.235 C 
HETATM   15  C   UNL     1     -43.938  56.002 -53.577  1.00  0.00     0.035 C 
BRANCH  12  16
HETATM   16  C   UNL     1     -40.479  54.471 -52.896  1.00  0.00     0.274 C 
BRANCH  16  17
HETATM   17  C   UNL     1     -40.183  53.015 -52.637  1.00  0.00    -0.026 A 
HETATM   18  C   UNL     1     -40.143  52.126 -53.731  1.00  0.00     0.016 A 
HETATM   19  C   UNL     1     -39.925  50.756 -53.544  1.00  0.00    -0.061 A 
HETATM   20  C   UNL     1     -39.851  49.815 -54.711  1.00  0.00     0.048 C 
HETATM   21  C   UNL     1     -39.714  50.275 -52.251  1.00  0.00     0.007 A 
HETATM   22  C   UNL     1     -39.737  51.142 -51.160  1.00  0.00     0.008 A 
HETATM   23  C   UNL     1     -39.973  52.514 -51.333  1.00  0.00    -0.054 A 
HETATM   24  C   UNL     1     -39.953  53.400 -50.114  1.00  0.00     0.049 C 
ENDBRANCH  16  17
ENDBRANCH  12  16
ENDBRANCH   1   9
BRANCH   1  25
HETATM   25  C   UNL     1     -44.085  59.295 -51.410  1.00  0.00     0.067 A 
HETATM   26  N   UNL     1     -43.139  60.131 -50.882  1.00  0.00    -0.263 NA
HETATM   27  C   UNL     1     -43.524  60.961 -49.885  1.00  0.00     0.117 A 
HETATM   28  C   UNL     1     -44.802  60.987 -49.361  1.00  0.00     0.019 A 
HETATM   29  C   UNL     1     -45.747  60.115 -49.889  1.00  0.00     0.003 A 
HETATM   30  C   UNL     1     -45.390  59.253 -50.923  1.00  0.00     0.030 A 
ENDBRANCH   1  25
BRANCH   5  31
HETATM   31  C   UNL     1     -42.747  60.200 -55.731  1.00  0.00     0.168 C 
BRANCH  31  32
HETATM   32  C   UNL     1     -42.091  59.401 -56.861  1.00  0.00     0.140 C 
HETATM   33  O   UNL     1     -42.575  58.045 -56.886  1.00  0.00    -0.384 OA
HETATM   34  C   UNL     1     -42.578  57.600 -58.253  1.00  0.00     0.168 C 
HETATM   35  C   UNL     1     -42.095  58.756 -59.108  1.00  0.00     0.029 C 
HETATM   36  C   UNL     1     -42.396  59.954 -58.242  1.00  0.00     0.036 C 
ENDBRANCH  31  32
ENDBRANCH   5  31
TORSDOF 6
ENDMDL
MODEL 4
REMARK VINA RESULT:      -8.3      3.737      7.001
REMARK  6 active torsions:
REMARK  status: ('A' for Active; 'I' for Inactive)
REMARK    1  A    between atoms: C_4  and  C_5 
REMARK    2  A    between atoms: C_5  and  N_6 
REMARK    3  A    between atoms: C_10  and  C_11 
REMARK    4  A    between atoms: C_11  and  C_12 
REMARK    5  A    between atoms: N_21  and  C_22 
REMARK    6  A    between atoms: C_22  and  C_23 
ROOT
HETATM    1  C   UNL     1     -43.287  59.755 -51.929  1.00  0.00     0.149 C 
HETATM    2  N   UNL     1     -44.332  58.826 -51.529  1.00  0.00    -0.220 NA
HETATM    3  C   UNL     1     -45.222  59.426 -50.662  1.00  0.00     0.304 C 
HETATM    4  O   UNL     1     -46.255  58.882 -50.314  1.00  0.00    -0.253 OA
HETATM    5  N   UNL     1     -44.729  60.627 -50.270  1.00  0.00    -0.270 N 
HETATM    6  C   UNL     1     -43.535  60.866 -50.888  1.00  0.00     0.257 C 
HETATM    7  O   UNL     1     -42.764  61.786 -50.651  1.00  0.00    -0.270 OA
HETATM    8  H   UNL     1     -44.815  58.319 -52.268  1.00  0.00     0.134 HD
ENDROOT
BRANCH   1   9
HETATM    9  C   UNL     1     -41.844  59.161 -51.795  1.00  0.00     0.028 C 
HETATM   10  C   UNL     1     -41.266  58.549 -53.084  1.00  0.00     0.035 C 
HETATM   11  C   UNL     1     -41.906  57.223 -53.466  1.00  0.00     0.235 C 
HETATM   12  N   UNL     1     -41.748  56.234 -52.332  1.00  0.00    -0.067 N 
HETATM   13  H   UNL     1     -40.742  56.052 -52.247  1.00  0.00     0.280 HD
HETATM   14  C   UNL     1     -42.248  56.739 -51.001  1.00  0.00     0.235 C 
HETATM   15  C   UNL     1     -41.675  58.113 -50.675  1.00  0.00     0.035 C 
BRANCH  12  16
HETATM   16  C   UNL     1     -42.393  54.883 -52.632  1.00  0.00     0.274 C 
BRANCH  16  17
HETATM   17  C   UNL     1     -41.421  53.790 -52.999  1.00  0.00    -0.026 A 
HETATM   18  C   UNL     1     -40.938  52.941 -51.982  1.00  0.00     0.016 A 
HETATM   19  C   UNL     1     -39.996  51.944 -52.257  1.00  0.00    -0.061 A 
HETATM   20  C   UNL     1     -39.506  51.020 -51.180  1.00  0.00     0.048 C 
HETATM   21  C   UNL     1     -39.554  51.774 -53.570  1.00  0.00     0.007 A 
HETATM   22  C   UNL     1     -40.032  52.596 -54.590  1.00  0.00     0.008 A 
HETATM   23  C   UNL     1     -40.962  53.610 -54.323  1.00  0.00    -0.054 A 
HETATM   24  C   UNL     1     -41.461  54.442 -55.477  1.00  0.00     0.049 C 
ENDBRANCH  16  17
ENDBRANCH  12  16
ENDBRANCH   1   9
BRANCH   1  25
HETATM   25  C   UNL     1     -43.575  60.222 -53.357  1.00  0.00     0.067 A 
HETATM   26  N   UNL     1     -44.512  59.485 -54.028  1.00  0.00    -0.263 NA
HETATM   27  C   UNL     1     -44.800  59.848 -55.299  1.00  0.00     0.117 A 
HETATM   28  C   UNL     1     -44.183  60.895 -55.955  1.00  0.00     0.019 A 
HETATM   29  C   UNL     1     -43.215  61.621 -55.271  1.00  0.00     0.003 A 
HETATM   30  C   UNL     1     -42.899  61.282 -53.957  1.00  0.00     0.030 A 
ENDBRANCH   1  25
BRANCH   5  31
HETATM   31  C   UNL     1     -45.385  61.502 -49.311  1.00  0.00     0.168 C 
BRANCH  31  32
HETATM   32  C   UNL     1     -44.889  61.314 -47.875  1.00  0.00     0.140 C 
HETATM   33  O   UNL     1     -44.829  62.572 -47.178  1.00  0.00    -0.384 OA
HETATM   34  C   UNL     1     -45.113  62.324 -45.790  1.00  0.00     0.168 C 
HETATM   35  C   UNL     1     -45.387  60.839 -45.640  1.00  0.00     0.029 C 
HETATM   36  C   UNL     1     -45.803  60.440 -47.034  1.00  0.00     0.036 C 
ENDBRANCH  31  32
ENDBRANCH   5  31
TORSDOF 6
ENDMDL
MODEL 5
REMARK VINA RESULT:      -8.3      2.577      8.178
REMARK  6 active torsions:
REMARK  status: ('A' for Active; 'I' for Inactive)
REMARK    1  A    between atoms: C_4  and  C_5 
REMARK    2  A    between atoms: C_5  and  N_6 
REMARK    3  A    between atoms: C_10  and  C_11 
REMARK    4  A    between atoms: C_11  and  C_12 
REMARK    5  A    between atoms: N_21  and  C_22 
REMARK    6  A    between atoms: C_22  and  C_23 
ROOT
HETATM    1  C   UNL     1     -42.156  55.380 -53.213  1.00  0.00     0.149 C 
HETATM    2  N   UNL     1     -41.322  56.328 -53.935  1.00  0.00    -0.220 NA
HETATM    3  C   UNL     1     -40.960  57.386 -53.126  1.00  0.00     0.304 C 
HETATM    4  O   UNL     1     -40.146  58.221 -53.477  1.00  0.00    -0.253 OA
HETATM    5  N   UNL     1     -41.674  57.337 -51.974  1.00  0.00    -0.270 N 
HETATM    6  C   UNL     1     -42.488  56.240 -51.975  1.00  0.00     0.257 C 
HETATM    7  O   UNL     1     -43.358  55.979 -51.157  1.00  0.00    -0.270 OA
HETATM    8  H   UNL     1     -40.521  55.955 -54.442  1.00  0.00     0.134 HD
ENDROOT
BRANCH   1   9
HETATM    9  C   UNL     1     -43.454  54.978 -53.991  1.00  0.00     0.028 C 
HETATM   10  C   UNL     1     -43.219  54.189 -55.292  1.00  0.00     0.035 C 
HETATM   11  C   UNL     1     -42.660  55.037 -56.424  1.00  0.00     0.235 C 
HETATM   12  N   UNL     1     -43.593  56.193 -56.706  1.00  0.00    -0.067 N 
HETATM   13  H   UNL     1     -44.463  55.781 -57.061  1.00  0.00     0.280 HD
HETATM   14  C   UNL     1     -43.929  57.023 -55.491  1.00  0.00     0.235 C 
HETATM   15  C   UNL     1     -44.397  56.153 -54.332  1.00  0.00     0.035 C 
BRANCH  12  16
HETATM   16  C   UNL     1     -43.082  57.108 -57.816  1.00  0.00     0.274 C 
BRANCH  16  17
HETATM   17  C   UNL     1     -44.159  57.695 -58.694  1.00  0.00    -0.026 A 
HETATM   18  C   UNL     1     -45.124  56.831 -59.252  1.00  0.00     0.016 A 
HETATM   19  C   UNL     1     -46.114  57.314 -60.115  1.00  0.00    -0.061 A 
HETATM   20  C   UNL     1     -47.162  56.400 -60.684  1.00  0.00     0.048 C 
HETATM   21  C   UNL     1     -46.157  58.679 -60.401  1.00  0.00     0.007 A 
HETATM   22  C   UNL     1     -45.218  59.549 -59.847  1.00  0.00     0.008 A 
HETATM   23  C   UNL     1     -44.211  59.074 -58.995  1.00  0.00    -0.054 A 
HETATM   24  C   UNL     1     -43.246  60.072 -58.406  1.00  0.00     0.049 C 
ENDBRANCH  16  17
ENDBRANCH  12  16
ENDBRANCH   1   9
BRANCH   1  25
HETATM   25  C   UNL     1     -41.307  54.158 -52.860  1.00  0.00     0.067 A 
HETATM   26  N   UNL     1     -41.253  53.858 -51.526  1.00  0.00    -0.263 NA
HETATM   27  C   UNL     1     -40.508  52.791 -51.155  1.00  0.00     0.117 A 
HETATM   28  C   UNL     1     -39.786  52.016 -52.041  1.00  0.00     0.019 A 
HETATM   29  C   UNL     1     -39.829  52.346 -53.390  1.00  0.00     0.003 A 
HETATM   30  C   UNL     1     -40.594  53.432 -53.811  1.00  0.00     0.030 A 
ENDBRANCH   1  25
BRANCH   5  31
HETATM   31  C   UNL     1     -41.585  58.333 -50.919  1.00  0.00     0.168 C 
BRANCH  31  32
HETATM   32  C   UNL     1     -42.393  59.601 -51.208  1.00  0.00     0.140 C 
HETATM   33  O   UNL     1     -43.808  59.335 -51.171  1.00  0.00    -0.384 OA
HETATM   34  C   UNL     1     -44.470  60.519 -50.695  1.00  0.00     0.168 C 
HETATM   35  C   UNL     1     -43.398  61.552 -50.401  1.00  0.00     0.029 C 
HETATM   36  C   UNL     1     -42.172  60.701 -50.184  1.00  0.00     0.036 C 
ENDBRANCH  31  32
ENDBRANCH   5  31
TORSDOF 6
ENDMDL
MODEL 6
REMARK VINA RESULT:      -7.9      3.039      7.509
REMARK  6 active torsions:
REMARK  status: ('A' for Active; 'I' for Inactive)
REMARK    1  A    between atoms: C_4  and  C_5 
REMARK    2  A    between atoms: C_5  and  N_6 
REMARK    3  A    between atoms: C_10  and  C_11 
REMARK    4  A    between atoms: C_11  and  C_12 
REMARK    5  A    between atoms: N_21  and  C_22 
REMARK    6  A    between atoms: C_22  and  C_23 
ROOT
HETATM    1  C   UNL     1     -42.500  57.096 -52.158  1.00  0.00     0.149 C 
HETATM    2  N   UNL     1     -43.295  55.954 -52.584  1.00  0.00    -0.220 NA
HETATM    3  C   UNL     1     -43.146  54.895 -51.712  1.00  0.00     0.304 C 
HETATM    4  O   UNL     1     -43.830  53.890 -51.792  1.00  0.00    -0.253 OA
HETATM    5  N   UNL     1     -42.133  55.159 -50.851  1.00  0.00    -0.270 N 
HETATM    6  C   UNL     1     -41.617  56.398 -51.102  1.00  0.00     0.257 C 
HETATM    7  O   UNL     1     -40.611  56.883 -50.604  1.00  0.00    -0.270 OA
HETATM    8  H   UNL     1     -44.276  56.123 -52.802  1.00  0.00     0.134 HD
ENDROOT
BRANCH   1   9
HETATM    9  C   UNL     1     -41.633  57.711 -53.307  1.00  0.00     0.028 C 
HETATM   10  C   UNL     1     -42.429  58.409 -54.426  1.00  0.00     0.035 C 
HETATM   11  C   UNL     1     -43.168  57.443 -55.338  1.00  0.00     0.235 C 
HETATM   12  N   UNL     1     -42.187  56.472 -55.958  1.00  0.00    -0.067 N 
HETATM   13  H   UNL     1     -41.576  57.030 -56.566  1.00  0.00     0.280 HD
HETATM   14  C   UNL     1     -41.319  55.751 -54.956  1.00  0.00     0.235 C 
HETATM   15  C   UNL     1     -40.660  56.723 -53.986  1.00  0.00     0.035 C 
BRANCH  12  16
HETATM   16  C   UNL     1     -42.861  55.450 -56.868  1.00  0.00     0.274 C 
BRANCH  16  17
HETATM   17  C   UNL     1     -43.243  55.974 -58.230  1.00  0.00    -0.026 A 
HETATM   18  C   UNL     1     -42.883  57.293 -58.575  1.00  0.00     0.016 A 
HETATM   19  C   UNL     1     -43.257  57.847 -59.805  1.00  0.00    -0.061 A 
HETATM   20  C   UNL     1     -42.846  59.241 -60.185  1.00  0.00     0.048 C 
HETATM   21  C   UNL     1     -43.974  57.064 -60.710  1.00  0.00     0.007 A 
HETATM   22  C   UNL     1     -44.326  55.754 -60.390  1.00  0.00     0.008 A 
HETATM   23  C   UNL     1     -43.973  55.194 -59.154  1.00  0.00    -0.054 A 
HETATM   24  C   UNL     1     -44.359  53.762 -58.885  1.00  0.00     0.049 C 
ENDBRANCH  16  17
ENDBRANCH  12  16
ENDBRANCH   1   9
BRANCH   1  25
HETATM   25  C   UNL     1     -43.436  58.135 -51.538  1.00  0.00     0.067 A 
HETATM   26  N   UNL     1     -44.751  57.762 -51.474  1.00  0.00    -0.263 NA
HETATM   27  C   UNL     1     -45.627  58.646 -50.944  1.00  0.00     0.117 A 
HETATM   28  C   UNL     1     -45.269  59.902 -50.494  1.00  0.00     0.019 A 
HETATM   29  C   UNL     1     -43.935  60.279 -50.588  1.00  0.00     0.003 A 
HETATM   30  C   UNL     1     -43.003  59.390 -51.120  1.00  0.00     0.030 A 
ENDBRANCH   1  25
BRANCH   5  31
HETATM   31  C   UNL     1     -41.668  54.230 -49.834  1.00  0.00     0.168 C 
BRANCH  31  32
HETATM   32  C   UNL     1     -40.467  53.390 -50.279  1.00  0.00     0.140 C 
HETATM   33  O   UNL     1     -40.569  52.040 -49.791  1.00  0.00    -0.384 OA
HETATM   34  C   UNL     1     -39.953  51.170 -50.757  1.00  0.00     0.168 C 
HETATM   35  C   UNL     1     -39.475  52.037 -51.907  1.00  0.00     0.029 C 
HETATM   36  C   UNL     1     -40.354  53.257 -51.787  1.00  0.00     0.036 C 
ENDBRANCH  31  32
ENDBRANCH   5  31
TORSDOF 6
ENDMDL
MODEL 7
REMARK VINA RESULT:      -7.7      2.152      3.367
REMARK  6 active torsions:
REMARK  status: ('A' for Active; 'I' for Inactive)
REMARK    1  A    between atoms: C_4  and  C_5 
REMARK    2  A    between atoms: C_5  and  N_6 
REMARK    3  A    between atoms: C_10  and  C_11 
REMARK    4  A    between atoms: C_11  and  C_12 
REMARK    5  A    between atoms: N_21  and  C_22 
REMARK    6  A    between atoms: C_22  and  C_23 
ROOT
HETATM    1  C   UNL     1     -43.801  58.553 -56.524  1.00  0.00     0.149 C 
HETATM    2  N   UNL     1     -43.343  57.342 -57.189  1.00  0.00    -0.220 NA
HETATM    3  C   UNL     1     -44.246  56.935 -58.151  1.00  0.00     0.304 C 
HETATM    4  O   UNL     1     -43.999  56.030 -58.929  1.00  0.00    -0.253 OA
HETATM    5  N   UNL     1     -45.388  57.655 -58.031  1.00  0.00    -0.270 N 
HETATM    6  C   UNL     1     -45.260  58.570 -57.025  1.00  0.00     0.257 C 
HETATM    7  O   UNL     1     -46.147  59.276 -56.566  1.00  0.00    -0.270 OA
HETATM    8  H   UNL     1     -42.389  57.337 -57.546  1.00  0.00     0.134 HD
ENDROOT
BRANCH   1   9
HETATM    9  C   UNL     1     -43.736  58.465 -54.963  1.00  0.00     0.028 C 
HETATM   10  C   UNL     1     -42.316  58.424 -54.367  1.00  0.00     0.035 C 
HETATM   11  C   UNL     1     -41.603  57.100 -54.591  1.00  0.00     0.235 C 
HETATM   12  N   UNL     1     -42.421  55.972 -54.002  1.00  0.00    -0.067 N 
HETATM   13  H   UNL     1     -42.431  56.124 -52.987  1.00  0.00     0.280 HD
HETATM   14  C   UNL     1     -43.850  55.932 -54.484  1.00  0.00     0.235 C 
HETATM   15  C   UNL     1     -44.525  57.290 -54.345  1.00  0.00     0.035 C 
BRANCH  12  16
HETATM   16  C   UNL     1     -41.779  54.603 -54.213  1.00  0.00     0.274 C 
BRANCH  16  17
HETATM   17  C   UNL     1     -41.192  53.985 -52.969  1.00  0.00    -0.026 A 
HETATM   18  C   UNL     1     -41.380  54.637 -51.733  1.00  0.00     0.016 A 
HETATM   19  C   UNL     1     -40.813  54.135 -50.556  1.00  0.00    -0.061 A 
HETATM   20  C   UNL     1     -41.039  54.813 -49.235  1.00  0.00     0.048 C 
HETATM   21  C   UNL     1     -40.076  52.952 -50.611  1.00  0.00     0.007 A 
HETATM   22  C   UNL     1     -39.893  52.286 -51.822  1.00  0.00     0.008 A 
HETATM   23  C   UNL     1     -40.440  52.790 -53.011  1.00  0.00    -0.054 A 
HETATM   24  C   UNL     1     -40.230  52.005 -54.281  1.00  0.00     0.049 C 
ENDBRANCH  16  17
ENDBRANCH  12  16
ENDBRANCH   1   9
BRANCH   1  25
HETATM   25  C   UNL     1     -42.990  59.735 -57.058  1.00  0.00     0.067 A 
HETATM   26  N   UNL     1     -43.433  60.966 -56.659  1.00  0.00    -0.263 NA
HETATM   27  C   UNL     1     -42.759  62.050 -57.110  1.00  0.00     0.117 A 
HETATM   28  C   UNL     1     -41.675  61.977 -57.963  1.00  0.00     0.019 A 
HETATM   29  C   UNL     1     -41.250  60.722 -58.380  1.00  0.00     0.003 A 
HETATM   30  C   UNL     1     -41.914  59.583 -57.929  1.00  0.00     0.030 A 
ENDBRANCH   1  25
BRANCH   5  31
HETATM   31  C   UNL     1     -46.571  57.445 -58.849  1.00  0.00     0.168 C 
BRANCH  31  32
HETATM   32  C   UNL     1     -46.666  58.404 -60.039  1.00  0.00     0.140 C 
HETATM   33  O   UNL     1     -47.265  57.759 -61.179  1.00  0.00    -0.384 OA
HETATM   34  C   UNL     1     -47.999  58.752 -61.916  1.00  0.00     0.168 C 
HETATM   35  C   UNL     1     -47.862  60.066 -61.169  1.00  0.00     0.029 C 
HETATM   36  C   UNL     1     -47.542  59.614 -59.766  1.00  0.00     0.036 C 
ENDBRANCH  31  32
ENDBRANCH   5  31
TORSDOF 6
ENDMDL
MODEL 8
REMARK VINA RESULT:      -7.7     16.787     19.703
REMARK  6 active torsions:
REMARK  status: ('A' for Active; 'I' for Inactive)
REMARK    1  A    between atoms: C_4  and  C_5 
REMARK    2  A    between atoms: C_5  and  N_6 
REMARK    3  A    between atoms: C_10  and  C_11 
REMARK    4  A    between atoms: C_11  and  C_12 
REMARK    5  A    between atoms: N_21  and  C_22 
REMARK    6  A    between atoms: C_22  and  C_23 
ROOT
HETATM    1  C   UNL     1     -33.742  40.164 -53.675  1.00  0.00     0.149 C 
HETATM    2  N   UNL     1     -34.509  39.046 -53.148  1.00  0.00    -0.220 NA
HETATM    3  C   UNL     1     -35.744  38.961 -53.759  1.00  0.00     0.304 C 
HETATM    4  O   UNL     1     -36.492  38.017 -53.579  1.00  0.00    -0.253 OA
HETATM    5  N   UNL     1     -35.957  40.075 -54.502  1.00  0.00    -0.270 N 
HETATM    6  C   UNL     1     -34.868  40.898 -54.433  1.00  0.00     0.257 C 
HETATM    7  O   UNL     1     -34.789  42.038 -54.868  1.00  0.00    -0.270 OA
HETATM    8  H   UNL     1     -34.048  38.139 -53.110  1.00  0.00     0.134 HD
ENDROOT
BRANCH   1   9
HETATM    9  C   UNL     1     -33.122  41.071 -52.560  1.00  0.00     0.028 C 
HETATM   10  C   UNL     1     -31.777  40.582 -51.990  1.00  0.00     0.035 C 
HETATM   11  C   UNL     1     -31.908  39.361 -51.092  1.00  0.00     0.235 C 
HETATM   12  N   UNL     1     -32.851  39.665 -49.948  1.00  0.00    -0.067 N 
HETATM   13  H   UNL     1     -32.393  40.389 -49.383  1.00  0.00     0.280 HD
HETATM   14  C   UNL     1     -34.196  40.192 -50.384  1.00  0.00     0.235 C 
HETATM   15  C   UNL     1     -34.052  41.353 -51.360  1.00  0.00     0.035 C 
BRANCH  12  16
HETATM   16  C   UNL     1     -33.054  38.474 -49.017  1.00  0.00     0.274 C 
BRANCH  16  17
HETATM   17  C   UNL     1     -32.424  38.625 -47.655  1.00  0.00    -0.026 A 
HETATM   18  C   UNL     1     -31.360  39.536 -47.497  1.00  0.00     0.016 A 
HETATM   19  C   UNL     1     -30.704  39.678 -46.268  1.00  0.00    -0.061 A 
HETATM   20  C   UNL     1     -29.592  40.671 -46.092  1.00  0.00     0.048 C 
HETATM   21  C   UNL     1     -31.138  38.922 -45.178  1.00  0.00     0.007 A 
HETATM   22  C   UNL     1     -32.199  38.027 -45.314  1.00  0.00     0.008 A 
HETATM   23  C   UNL     1     -32.851  37.863 -46.544  1.00  0.00    -0.054 A 
HETATM   24  C   UNL     1     -34.009  36.901 -46.614  1.00  0.00     0.049 C 
ENDBRANCH  16  17
ENDBRANCH  12  16
ENDBRANCH   1   9
BRANCH   1  25
HETATM   25  C   UNL     1     -32.670  39.614 -54.617  1.00  0.00     0.067 A 
HETATM   26  N   UNL     1     -32.191  40.512 -55.533  1.00  0.00    -0.263 NA
HETATM   27  C   UNL     1     -31.247  40.077 -56.399  1.00  0.00     0.117 A 
HETATM   28  C   UNL     1     -30.768  38.782 -56.424  1.00  0.00     0.019 A 
HETATM   29  C   UNL     1     -31.281  37.874 -55.506  1.00  0.00     0.003 A 
HETATM   30  C   UNL     1     -32.247  38.288 -54.592  1.00  0.00     0.030 A 
ENDBRANCH   1  25
BRANCH   5  31
HETATM   31  C   UNL     1     -37.183  40.342 -55.235  1.00  0.00     0.168 C 
BRANCH  31  32
HETATM   32  C   UNL     1     -36.999  40.330 -56.755  1.00  0.00     0.140 C 
HETATM   33  O   UNL     1     -37.970  39.476 -57.389  1.00  0.00    -0.384 OA
HETATM   34  C   UNL     1     -38.276  40.031 -58.679  1.00  0.00     0.168 C 
HETATM   35  C   UNL     1     -37.468  41.307 -58.827  1.00  0.00     0.029 C 
HETATM   36  C   UNL     1     -37.198  41.693 -57.394  1.00  0.00     0.036 C 
ENDBRANCH  31  32
ENDBRANCH   5  31
TORSDOF 6
ENDMDL
MODEL 9
REMARK VINA RESULT:      -7.7      2.567      7.651
REMARK  6 active torsions:
REMARK  status: ('A' for Active; 'I' for Inactive)
REMARK    1  A    between atoms: C_4  and  C_5 
REMARK    2  A    between atoms: C_5  and  N_6 
REMARK    3  A    between atoms: C_10  and  C_11 
REMARK    4  A    between atoms: C_11  and  C_12 
REMARK    5  A    between atoms: N_21  and  C_22 
REMARK    6  A    between atoms: C_22  and  C_23 
ROOT
HETATM    1  C   UNL     1     -42.345  56.493 -52.368  1.00  0.00     0.149 C 
HETATM    2  N   UNL     1     -41.384  57.081 -53.288  1.00  0.00    -0.220 NA
HETATM    3  C   UNL     1     -41.090  58.383 -52.932  1.00  0.00     0.304 C 
HETATM    4  O   UNL     1     -40.203  59.017 -53.474  1.00  0.00    -0.253 OA
HETATM    5  N   UNL     1     -41.953  58.792 -51.970  1.00  0.00    -0.270 N 
HETATM    6  C   UNL     1     -42.804  57.775 -51.641  1.00  0.00     0.257 C 
HETATM    7  O   UNL     1     -43.786  57.853 -50.916  1.00  0.00    -0.270 OA
HETATM    8  H   UNL     1     -40.538  56.548 -53.484  1.00  0.00     0.134 HD
ENDROOT
BRANCH   1   9
HETATM    9  C   UNL     1     -43.543  55.789 -53.089  1.00  0.00     0.028 C 
HETATM   10  C   UNL     1     -43.151  54.858 -54.252  1.00  0.00     0.035 C 
HETATM   11  C   UNL     1     -42.685  55.603 -55.493  1.00  0.00     0.235 C 
HETATM   12  N   UNL     1     -43.769  56.550 -55.959  1.00  0.00    -0.067 N 
HETATM   13  H   UNL     1     -44.556  55.962 -56.256  1.00  0.00     0.280 HD
HETATM   14  C   UNL     1     -44.264  57.491 -54.889  1.00  0.00     0.235 C 
HETATM   15  C   UNL     1     -44.636  56.743 -53.615  1.00  0.00     0.035 C 
BRANCH  12  16
HETATM   16  C   UNL     1     -43.362  57.356 -57.189  1.00  0.00     0.274 C 
BRANCH  16  17
HETATM   17  C   UNL     1     -44.397  57.396 -58.286  1.00  0.00    -0.026 A 
HETATM   18  C   UNL     1     -45.423  58.361 -58.215  1.00  0.00     0.016 A 
HETATM   19  C   UNL     1     -46.438  58.410 -59.177  1.00  0.00    -0.061 A 
HETATM   20  C   UNL     1     -47.513  59.458 -59.119  1.00  0.00     0.048 C 
HETATM   21  C   UNL     1     -46.410  57.504 -60.237  1.00  0.00     0.007 A 
HETATM   22  C   UNL     1     -45.395  56.552 -60.330  1.00  0.00     0.008 A 
HETATM   23  C   UNL     1     -44.383  56.482 -59.362  1.00  0.00    -0.054 A 
HETATM   24  C   UNL     1     -43.299  55.449 -59.539  1.00  0.00     0.049 C 
ENDBRANCH  16  17
ENDBRANCH  12  16
ENDBRANCH   1   9
BRANCH   1  25
HETATM   25  C   UNL     1     -41.602  55.533 -51.438  1.00  0.00     0.067 A 
HETATM   26  N   UNL     1     -41.717  55.816 -50.104  1.00  0.00    -0.263 NA
HETATM   27  C   UNL     1     -41.071  55.005 -49.234  1.00  0.00     0.117 A 
HETATM   28  C   UNL     1     -40.288  53.935 -49.623  1.00  0.00     0.019 A 
HETATM   29  C   UNL     1     -40.159  53.674 -50.981  1.00  0.00     0.003 A 
HETATM   30  C   UNL     1     -40.817  54.482 -51.905  1.00  0.00     0.030 A 
ENDBRANCH   1  25
BRANCH   5  31
HETATM   31  C   UNL     1     -41.965  60.132 -51.406  1.00  0.00     0.168 C 
BRANCH  31  32
HETATM   32  C   UNL     1     -42.995  61.059 -52.058  1.00  0.00     0.140 C 
HETATM   33  O   UNL     1     -43.522  60.480 -53.266  1.00  0.00    -0.384 OA
HETATM   34  C   UNL     1     -44.886  60.914 -53.409  1.00  0.00     0.168 C 
HETATM   35  C   UNL     1     -45.214  61.782 -52.207  1.00  0.00     0.029 C 
HETATM   36  C   UNL     1     -44.208  61.318 -51.183  1.00  0.00     0.036 C 
ENDBRANCH  31  32
ENDBRANCH   5  31
TORSDOF 6
ENDMDL
MODEL 10
REMARK VINA RESULT:      -7.5      3.946      8.734
REMARK  6 active torsions:
REMARK  status: ('A' for Active; 'I' for Inactive)
REMARK    1  A    between atoms: C_4  and  C_5 
REMARK    2  A    between atoms: C_5  and  N_6 
REMARK    3  A    between atoms: C_10  and  C_11 
REMARK    4  A    between atoms: C_11  and  C_12 
REMARK    5  A    between atoms: N_21  and  C_22 
REMARK    6  A    between atoms: C_22  and  C_23 
ROOT
HETATM    1  C   UNL     1     -42.856  57.674 -52.144  1.00  0.00     0.149 C 
HETATM    2  N   UNL     1     -43.338  56.969 -50.965  1.00  0.00    -0.220 NA
HETATM    3  C   UNL     1     -43.219  55.603 -51.122  1.00  0.00     0.304 C 
HETATM    4  O   UNL     1     -43.424  54.826 -50.206  1.00  0.00    -0.253 OA
HETATM    5  N   UNL     1     -42.900  55.323 -52.410  1.00  0.00    -0.270 N 
HETATM    6  C   UNL     1     -42.765  56.482 -53.120  1.00  0.00     0.257 C 
HETATM    7  O   UNL     1     -42.622  56.581 -54.331  1.00  0.00    -0.270 OA
HETATM    8  H   UNL     1     -42.982  57.275 -50.061  1.00  0.00     0.134 HD
ENDROOT
BRANCH   1   9
HETATM    9  C   UNL     1     -43.853  58.762 -52.667  1.00  0.00     0.028 C 
HETATM   10  C   UNL     1     -43.263  60.178 -52.803  1.00  0.00     0.035 C 
HETATM   11  C   UNL     1     -43.025  60.866 -51.467  1.00  0.00     0.235 C 
HETATM   12  N   UNL     1     -44.321  60.940 -50.691  1.00  0.00    -0.067 N 
HETATM   13  H   UNL     1     -44.941  61.559 -51.225  1.00  0.00     0.280 HD
HETATM   14  C   UNL     1     -45.015  59.611 -50.525  1.00  0.00     0.235 C 
HETATM   15  C   UNL     1     -45.161  58.887 -51.857  1.00  0.00     0.035 C 
BRANCH  12  16
HETATM   16  C   UNL     1     -44.154  61.596 -49.323  1.00  0.00     0.274 C 
BRANCH  16  17
HETATM   17  C   UNL     1     -45.435  62.097 -48.705  1.00  0.00    -0.026 A 
HETATM   18  C   UNL     1     -46.331  62.836 -49.505  1.00  0.00     0.016 A 
HETATM   19  C   UNL     1     -47.509  63.369 -48.969  1.00  0.00    -0.061 A 
HETATM   20  C   UNL     1     -48.478  64.129 -49.829  1.00  0.00     0.048 C 
HETATM   21  C   UNL     1     -47.809  63.135 -47.626  1.00  0.00     0.007 A 
HETATM   22  C   UNL     1     -46.941  62.395 -46.825  1.00  0.00     0.008 A 
HETATM   23  C   UNL     1     -45.749  61.871 -47.346  1.00  0.00    -0.054 A 
HETATM   24  C   UNL     1     -44.870  61.055 -46.433  1.00  0.00     0.049 C 
ENDBRANCH  16  17
ENDBRANCH  12  16
ENDBRANCH   1   9
BRANCH   1  25
HETATM   25  C   UNL     1     -41.484  58.270 -51.826  1.00  0.00     0.067 A 
HETATM   26  N   UNL     1     -41.282  58.581 -50.509  1.00  0.00    -0.263 NA
HETATM   27  C   UNL     1     -40.088  59.121 -50.170  1.00  0.00     0.117 A 
HETATM   28  C   UNL     1     -39.086  59.396 -51.081  1.00  0.00     0.019 A 
HETATM   29  C   UNL     1     -39.314  59.098 -52.419  1.00  0.00     0.003 A 
HETATM   30  C   UNL     1     -40.527  58.532 -52.803  1.00  0.00     0.030 A 
ENDBRANCH   1  25
BRANCH   5  31
HETATM   31  C   UNL     1     -42.754  53.976 -52.936  1.00  0.00     0.168 C 
BRANCH  31  32
HETATM   32  C   UNL     1     -41.295  53.547 -53.115  1.00  0.00     0.140 C 
HETATM   33  O   UNL     1     -40.768  52.979 -51.902  1.00  0.00    -0.384 OA
HETATM   34  C   UNL     1     -39.807  51.972 -52.262  1.00  0.00     0.168 C 
HETATM   35  C   UNL     1     -39.767  51.905 -53.778  1.00  0.00     0.029 C 
HETATM   36  C   UNL     1     -41.112  52.467 -54.167  1.00  0.00     0.036 C 
ENDBRANCH  31  32
ENDBRANCH   5  31
TORSDOF 6
ENDMDL
