MODEL 1
REMARK VINA RESULT:      -8.6      0.000      0.000
REMARK  3 active torsions:
REMARK  status: ('A' for Active; 'I' for Inactive)
REMARK    1  A    between atoms: C_2  and  C_3 
REMARK    2  A    between atoms: C_11  and  C_12 
REMARK    3  A    between atoms: C_12  and  C_13 
ROOT
HETATM    1  C   UNL     1     -39.854  51.535 -52.253  1.00  0.00     0.041 A 
HETATM    2  N   UNL     1     -40.163  52.655 -51.556  1.00  0.00    -0.245 NA
HETATM    3  C   UNL     1     -40.514  53.720 -52.301  1.00  0.00     0.111 A 
HETATM    4  C   UNL     1     -40.581  53.776 -53.686  1.00  0.00     0.028 A 
HETATM    5  C   UNL     1     -40.237  52.595 -54.377  1.00  0.00     0.025 A 
HETATM    6  C   UNL     1     -39.859  51.456 -53.652  1.00  0.00    -0.036 A 
HETATM    7  C   UNL     1     -39.515  50.198 -54.395  1.00  0.00     0.050 C 
HETATM    8  S   UNL     1     -40.948  55.192 -51.563  1.00  0.00    -0.063 SA
HETATM    9  C   UNL     1     -41.214  55.957 -53.073  1.00  0.00     0.085 A 
HETATM   10  C   UNL     1     -41.010  55.072 -54.117  1.00  0.00     0.060 A 
HETATM   11  N   UNL     1     -41.195  55.407 -55.418  1.00  0.00    -0.397 N 
HETATM   12  H   UNL     1     -41.730  56.254 -55.633  1.00  0.00     0.156 HD
HETATM   13  H   UNL     1     -41.310  54.694 -56.131  1.00  0.00     0.156 HD
ENDROOT
BRANCH   9  14
HETATM   14  C   UNL     1     -41.689  57.330 -53.167  1.00  0.00     0.201 C 
HETATM   15  O   UNL     1     -41.114  58.181 -53.850  1.00  0.00    -0.286 OA
BRANCH  14  16
HETATM   16  C   UNL     1     -42.879  57.795 -52.402  1.00  0.00     0.018 A 
HETATM   17  C   UNL     1     -42.835  59.072 -51.822  1.00  0.00     0.055 A 
HETATM   18  C   UNL     1     -43.914  59.468 -51.063  1.00  0.00     0.106 A 
HETATM   19  C   UNL     1     -45.002  58.650 -50.864  1.00  0.00     0.105 A 
HETATM   20  O   UNL     1     -44.041  60.662 -50.424  1.00  0.00    -0.323 OA
HETATM   21  O   UNL     1     -45.947  59.227 -50.076  1.00  0.00    -0.323 OA
HETATM   22  C   UNL     1     -45.072  57.387 -51.411  1.00  0.00     0.040 A 
HETATM   23  C   UNL     1     -45.323  60.495 -49.784  1.00  0.00     0.352 A 
HETATM   24  C   UNL     1     -43.990  56.950 -52.183  1.00  0.00     0.018 A 
ENDBRANCH  14  16
ENDBRANCH   9  14
BRANCH   1  25
HETATM   25  C   UNL     1     -39.473  50.352 -51.393  1.00  0.00     0.055 C 
HETATM   26  C   UNL     1     -40.213  50.356 -50.064  1.00  0.00     0.011 C 
ENDBRANCH   1  25
TORSDOF 3
ENDMDL
MODEL 2
REMARK VINA RESULT:      -8.3      1.351      1.837
REMARK  3 active torsions:
REMARK  status: ('A' for Active; 'I' for Inactive)
REMARK    1  A    between atoms: C_2  and  C_3 
REMARK    2  A    between atoms: C_11  and  C_12 
REMARK    3  A    between atoms: C_12  and  C_13 
ROOT
HETATM    1  C   UNL     1     -40.092  51.973 -52.427  1.00  0.00     0.041 A 
HETATM    2  N   UNL     1     -40.626  53.058 -51.818  1.00  0.00    -0.245 NA
HETATM    3  C   UNL     1     -41.468  53.788 -52.574  1.00  0.00     0.111 A 
HETATM    4  C   UNL     1     -41.827  53.537 -53.891  1.00  0.00     0.028 A 
HETATM    5  C   UNL     1     -41.238  52.407 -54.496  1.00  0.00     0.025 A 
HETATM    6  C   UNL     1     -40.350  51.613 -53.757  1.00  0.00    -0.036 A 
HETATM    7  C   UNL     1     -39.745  50.400 -54.402  1.00  0.00     0.050 C 
HETATM    8  S   UNL     1     -42.231  55.171 -51.937  1.00  0.00    -0.063 SA
HETATM    9  C   UNL     1     -43.045  55.492 -53.411  1.00  0.00     0.085 A 
HETATM   10  C   UNL     1     -42.759  54.521 -54.354  1.00  0.00     0.060 A 
HETATM   11  N   UNL     1     -43.306  54.511 -55.595  1.00  0.00    -0.397 N 
HETATM   12  H   UNL     1     -44.135  55.089 -55.768  1.00  0.00     0.156 HD
HETATM   13  H   UNL     1     -43.305  53.668 -56.160  1.00  0.00     0.156 HD
ENDROOT
BRANCH   9  14
HETATM   14  C   UNL     1     -43.977  56.601 -53.548  1.00  0.00     0.201 C 
HETATM   15  O   UNL     1     -44.793  56.666 -54.472  1.00  0.00    -0.286 OA
BRANCH  14  16
HETATM   16  C   UNL     1     -43.968  57.747 -52.598  1.00  0.00     0.018 A 
HETATM   17  C   UNL     1     -45.007  57.837 -51.659  1.00  0.00     0.055 A 
HETATM   18  C   UNL     1     -45.027  58.935 -50.827  1.00  0.00     0.106 A 
HETATM   19  C   UNL     1     -44.072  59.923 -50.906  1.00  0.00     0.105 A 
HETATM   20  O   UNL     1     -45.957  59.189 -49.868  1.00  0.00    -0.323 OA
HETATM   21  O   UNL     1     -44.283  60.920 -50.006  1.00  0.00    -0.323 OA
HETATM   22  C   UNL     1     -43.045  59.870 -51.823  1.00  0.00     0.040 A 
HETATM   23  C   UNL     1     -45.490  60.458 -49.364  1.00  0.00     0.352 A 
HETATM   24  C   UNL     1     -42.999  58.771 -52.688  1.00  0.00     0.018 A 
ENDBRANCH  14  16
ENDBRANCH   9  14
BRANCH   1  25
HETATM   25  C   UNL     1     -39.158  51.166 -51.554  1.00  0.00     0.055 C 
HETATM   26  C   UNL     1     -39.911  50.176 -50.681  1.00  0.00     0.011 C 
ENDBRANCH   1  25
TORSDOF 3
ENDMDL
MODEL 3
REMARK VINA RESULT:      -7.9      2.416      3.658
REMARK  3 active torsions:
REMARK  status: ('A' for Active; 'I' for Inactive)
REMARK    1  A    between atoms: C_2  and  C_3 
REMARK    2  A    between atoms: C_11  and  C_12 
REMARK    3  A    between atoms: C_12  and  C_13 
ROOT
HETATM    1  C   UNL     1     -39.755  51.110 -52.715  1.00  0.00     0.041 A 
HETATM    2  N   UNL     1     -40.070  52.214 -53.434  1.00  0.00    -0.245 NA
HETATM    3  C   UNL     1     -40.467  53.279 -52.712  1.00  0.00     0.111 A 
HETATM    4  C   UNL     1     -40.586  53.346 -51.332  1.00  0.00     0.028 A 
HETATM    5  C   UNL     1     -40.265  52.171 -50.619  1.00  0.00     0.025 A 
HETATM    6  C   UNL     1     -39.849  51.030 -51.319  1.00  0.00    -0.036 A 
HETATM    7  C   UNL     1     -39.489  49.793 -50.550  1.00  0.00     0.050 C 
HETATM    8  S   UNL     1     -40.877  54.743 -53.478  1.00  0.00    -0.063 SA
HETATM    9  C   UNL     1     -41.250  55.505 -51.989  1.00  0.00     0.085 A 
HETATM   10  C   UNL     1     -41.019  54.649 -50.926  1.00  0.00     0.060 A 
HETATM   11  N   UNL     1     -41.193  55.013 -49.631  1.00  0.00    -0.397 N 
HETATM   12  H   UNL     1     -41.261  56.012 -49.410  1.00  0.00     0.156 HD
HETATM   13  H   UNL     1     -40.765  54.485 -48.878  1.00  0.00     0.156 HD
ENDROOT
BRANCH   9  14
HETATM   14  C   UNL     1     -41.655  56.901 -51.919  1.00  0.00     0.201 C 
HETATM   15  O   UNL     1     -41.523  57.575 -50.893  1.00  0.00    -0.286 OA
BRANCH  14  16
HETATM   16  C   UNL     1     -42.293  57.584 -53.077  1.00  0.00     0.018 A 
HETATM   17  C   UNL     1     -41.507  58.454 -53.849  1.00  0.00     0.055 A 
HETATM   18  C   UNL     1     -42.123  59.132 -54.878  1.00  0.00     0.106 A 
HETATM   19  C   UNL     1     -43.463  58.978 -55.150  1.00  0.00     0.105 A 
HETATM   20  O   UNL     1     -41.521  60.015 -55.719  1.00  0.00    -0.323 OA
HETATM   21  O   UNL     1     -43.870  59.746 -56.195  1.00  0.00    -0.323 OA
HETATM   22  C   UNL     1     -44.265  58.140 -54.406  1.00  0.00     0.040 A 
HETATM   23  C   UNL     1     -42.638  60.415 -56.540  1.00  0.00     0.352 A 
HETATM   24  C   UNL     1     -43.673  57.441 -53.348  1.00  0.00     0.018 A 
ENDBRANCH  14  16
ENDBRANCH   9  14
BRANCH   1  25
HETATM   25  C   UNL     1     -39.304  49.932 -53.548  1.00  0.00     0.055 C 
HETATM   26  C   UNL     1     -40.007  49.889 -54.895  1.00  0.00     0.011 C 
ENDBRANCH   1  25
TORSDOF 3
ENDMDL
MODEL 4
REMARK VINA RESULT:      -7.9      1.411      2.369
REMARK  3 active torsions:
REMARK  status: ('A' for Active; 'I' for Inactive)
REMARK    1  A    between atoms: C_2  and  C_3 
REMARK    2  A    between atoms: C_11  and  C_12 
REMARK    3  A    between atoms: C_12  and  C_13 
ROOT
HETATM    1  C   UNL     1     -39.914  51.438 -52.731  1.00  0.00     0.041 A 
HETATM    2  N   UNL     1     -40.163  52.584 -53.409  1.00  0.00    -0.245 NA
HETATM    3  C   UNL     1     -40.472  53.650 -52.646  1.00  0.00     0.111 A 
HETATM    4  C   UNL     1     -40.561  53.680 -51.262  1.00  0.00     0.028 A 
HETATM    5  C   UNL     1     -40.310  52.463 -50.593  1.00  0.00     0.025 A 
HETATM    6  C   UNL     1     -39.988  51.319 -51.337  1.00  0.00    -0.036 A 
HETATM    7  C   UNL     1     -39.702  50.035 -50.615  1.00  0.00     0.050 C 
HETATM    8  S   UNL     1     -40.792  55.164 -53.357  1.00  0.00    -0.063 SA
HETATM    9  C   UNL     1     -41.084  55.900 -51.837  1.00  0.00     0.085 A 
HETATM   10  C   UNL     1     -40.894  54.996 -50.807  1.00  0.00     0.060 A 
HETATM   11  N   UNL     1     -41.019  55.329 -49.498  1.00  0.00    -0.397 N 
HETATM   12  H   UNL     1     -41.013  56.322 -49.244  1.00  0.00     0.156 HD
HETATM   13  H   UNL     1     -40.616  54.748 -48.770  1.00  0.00     0.156 HD
ENDROOT
BRANCH   9  14
HETATM   14  C   UNL     1     -41.389  57.318 -51.716  1.00  0.00     0.201 C 
HETATM   15  O   UNL     1     -40.509  58.184 -51.725  1.00  0.00    -0.286 OA
BRANCH  14  16
HETATM   16  C   UNL     1     -42.784  57.801 -51.528  1.00  0.00     0.018 A 
HETATM   17  C   UNL     1     -43.012  59.186 -51.532  1.00  0.00     0.055 A 
HETATM   18  C   UNL     1     -44.296  59.625 -51.293  1.00  0.00     0.106 A 
HETATM   19  C   UNL     1     -45.329  58.750 -51.051  1.00  0.00     0.105 A 
HETATM   20  O   UNL     1     -44.696  60.924 -51.251  1.00  0.00    -0.323 OA
HETATM   21  O   UNL     1     -46.508  59.390 -50.828  1.00  0.00    -0.323 OA
HETATM   22  C   UNL     1     -45.138  57.385 -51.031  1.00  0.00     0.040 A 
HETATM   23  C   UNL     1     -46.096  60.768 -50.938  1.00  0.00     0.352 A 
HETATM   24  C   UNL     1     -43.844  56.905 -51.263  1.00  0.00     0.018 A 
ENDBRANCH  14  16
ENDBRANCH   9  14
BRANCH   1  25
HETATM   25  C   UNL     1     -39.562  50.260 -53.610  1.00  0.00     0.055 C 
HETATM   26  C   UNL     1     -40.606  50.027 -54.690  1.00  0.00     0.011 C 
ENDBRANCH   1  25
TORSDOF 3
ENDMDL
MODEL 5
REMARK VINA RESULT:      -7.9      3.619      5.015
REMARK  3 active torsions:
REMARK  status: ('A' for Active; 'I' for Inactive)
REMARK    1  A    between atoms: C_2  and  C_3 
REMARK    2  A    between atoms: C_11  and  C_12 
REMARK    3  A    between atoms: C_12  and  C_13 
ROOT
HETATM    1  C   UNL     1     -40.295  52.379 -53.298  1.00  0.00     0.041 A 
HETATM    2  N   UNL     1     -40.828  52.900 -54.429  1.00  0.00    -0.245 NA
HETATM    3  C   UNL     1     -41.643  53.957 -54.248  1.00  0.00     0.111 A 
HETATM    4  C   UNL     1     -41.982  54.544 -53.038  1.00  0.00     0.028 A 
HETATM    5  C   UNL     1     -41.419  53.963 -51.882  1.00  0.00     0.025 A 
HETATM    6  C   UNL     1     -40.567  52.857 -52.009  1.00  0.00    -0.036 A 
HETATM    7  C   UNL     1     -39.956  52.260 -50.776  1.00  0.00     0.050 C 
HETATM    8  S   UNL     1     -42.372  54.729 -55.579  1.00  0.00    -0.063 SA
HETATM    9  C   UNL     1     -43.184  55.857 -54.576  1.00  0.00     0.085 A 
HETATM   10  C   UNL     1     -42.857  55.658 -53.246  1.00  0.00     0.060 A 
HETATM   11  N   UNL     1     -43.328  56.440 -52.243  1.00  0.00    -0.397 N 
HETATM   12  H   UNL     1     -43.738  57.348 -52.484  1.00  0.00     0.156 HD
HETATM   13  H   UNL     1     -42.874  56.457 -51.336  1.00  0.00     0.156 HD
ENDROOT
BRANCH   9  14
HETATM   14  C   UNL     1     -44.011  56.920 -55.127  1.00  0.00     0.201 C 
HETATM   15  O   UNL     1     -45.146  57.158 -54.704  1.00  0.00    -0.286 OA
BRANCH  14  16
HETATM   16  C   UNL     1     -43.546  57.756 -56.267  1.00  0.00     0.018 A 
HETATM   17  C   UNL     1     -42.569  58.733 -56.017  1.00  0.00     0.055 A 
HETATM   18  C   UNL     1     -42.193  59.545 -57.064  1.00  0.00     0.106 A 
HETATM   19  C   UNL     1     -42.749  59.421 -58.316  1.00  0.00     0.105 A 
HETATM   20  O   UNL     1     -41.272  60.544 -57.003  1.00  0.00    -0.323 OA
HETATM   21  O   UNL     1     -42.247  60.326 -59.197  1.00  0.00    -0.323 OA
HETATM   22  C   UNL     1     -43.717  58.480 -58.592  1.00  0.00     0.040 A 
HETATM   23  C   UNL     1     -41.324  61.047 -58.354  1.00  0.00     0.352 A 
HETATM   24  C   UNL     1     -44.128  57.642 -57.549  1.00  0.00     0.018 A 
ENDBRANCH  14  16
ENDBRANCH   9  14
BRANCH   1  25
HETATM   25  C   UNL     1     -39.378  51.200 -53.529  1.00  0.00     0.055 C 
HETATM   26  C   UNL     1     -40.023  50.146 -54.415  1.00  0.00     0.011 C 
ENDBRANCH   1  25
TORSDOF 3
ENDMDL
MODEL 6
REMARK VINA RESULT:      -7.9      2.494      3.272
REMARK  3 active torsions:
REMARK  status: ('A' for Active; 'I' for Inactive)
REMARK    1  A    between atoms: C_2  and  C_3 
REMARK    2  A    between atoms: C_11  and  C_12 
REMARK    3  A    between atoms: C_12  and  C_13 
ROOT
HETATM    1  C   UNL     1     -39.858  51.345 -52.266  1.00  0.00     0.041 A 
HETATM    2  N   UNL     1     -40.185  52.523 -51.683  1.00  0.00    -0.245 NA
HETATM    3  C   UNL     1     -40.476  53.527 -52.533  1.00  0.00     0.111 A 
HETATM    4  C   UNL     1     -40.466  53.466 -53.919  1.00  0.00     0.028 A 
HETATM    5  C   UNL     1     -40.105  52.227 -54.489  1.00  0.00     0.025 A 
HETATM    6  C   UNL     1     -39.788  51.148 -53.652  1.00  0.00    -0.036 A 
HETATM    7  C   UNL     1     -39.425  49.828 -54.267  1.00  0.00     0.050 C 
HETATM    8  S   UNL     1     -40.924  55.061 -51.946  1.00  0.00    -0.063 SA
HETATM    9  C   UNL     1     -41.094  55.699 -53.527  1.00  0.00     0.085 A 
HETATM   10  C   UNL     1     -40.849  54.727 -54.480  1.00  0.00     0.060 A 
HETATM   11  N   UNL     1     -40.956  54.954 -55.813  1.00  0.00    -0.397 N 
HETATM   12  H   UNL     1     -41.464  55.786 -56.127  1.00  0.00     0.156 HD
HETATM   13  H   UNL     1     -41.044  54.185 -56.469  1.00  0.00     0.156 HD
ENDROOT
BRANCH   9  14
HETATM   14  C   UNL     1     -41.539  57.065 -53.761  1.00  0.00     0.201 C 
HETATM   15  O   UNL     1     -40.928  58.042 -53.320  1.00  0.00    -0.286 OA
BRANCH  14  16
HETATM   16  C   UNL     1     -42.790  57.357 -54.514  1.00  0.00     0.018 A 
HETATM   17  C   UNL     1     -42.682  58.030 -55.741  1.00  0.00     0.055 A 
HETATM   18  C   UNL     1     -43.848  58.354 -56.399  1.00  0.00     0.106 A 
HETATM   19  C   UNL     1     -45.084  58.042 -55.883  1.00  0.00     0.105 A 
HETATM   20  O   UNL     1     -43.933  59.009 -57.588  1.00  0.00    -0.323 OA
HETATM   21  O   UNL     1     -46.100  58.461 -56.683  1.00  0.00    -0.323 OA
HETATM   22  C   UNL     1     -45.225  57.391 -54.677  1.00  0.00     0.040 A 
HETATM   23  C   UNL     1     -45.364  59.090 -57.753  1.00  0.00     0.352 A 
HETATM   24  C   UNL     1     -44.061  57.053 -53.978  1.00  0.00     0.018 A 
ENDBRANCH  14  16
ENDBRANCH   9  14
BRANCH   1  25
HETATM   25  C   UNL     1     -39.545  50.234 -51.290  1.00  0.00     0.055 C 
HETATM   26  C   UNL     1     -40.276  50.417 -49.970  1.00  0.00     0.011 C 
ENDBRANCH   1  25
TORSDOF 3
ENDMDL
MODEL 7
REMARK VINA RESULT:      -7.8      3.057      8.044
REMARK  3 active torsions:
REMARK  status: ('A' for Active; 'I' for Inactive)
REMARK    1  A    between atoms: C_2  and  C_3 
REMARK    2  A    between atoms: C_11  and  C_12 
REMARK    3  A    between atoms: C_12  and  C_13 
ROOT
HETATM    1  C   UNL     1     -43.500  59.746 -51.347  1.00  0.00     0.041 A 
HETATM    2  N   UNL     1     -42.340  59.301 -51.886  1.00  0.00    -0.245 NA
HETATM    3  C   UNL     1     -42.385  58.061 -52.408  1.00  0.00     0.111 A 
HETATM    4  C   UNL     1     -43.485  57.215 -52.440  1.00  0.00     0.028 A 
HETATM    5  C   UNL     1     -44.670  57.708 -51.854  1.00  0.00     0.025 A 
HETATM    6  C   UNL     1     -44.680  58.992 -51.291  1.00  0.00    -0.036 A 
HETATM    7  C   UNL     1     -45.951  59.516 -50.690  1.00  0.00     0.050 C 
HETATM    8  S   UNL     1     -41.008  57.375 -53.138  1.00  0.00    -0.063 SA
HETATM    9  C   UNL     1     -41.832  55.915 -53.496  1.00  0.00     0.085 A 
HETATM   10  C   UNL     1     -43.154  55.985 -53.094  1.00  0.00     0.060 A 
HETATM   11  N   UNL     1     -44.043  54.980 -53.296  1.00  0.00    -0.397 N 
HETATM   12  H   UNL     1     -43.808  54.250 -53.976  1.00  0.00     0.156 HD
HETATM   13  H   UNL     1     -45.042  55.149 -53.250  1.00  0.00     0.156 HD
ENDROOT
BRANCH   9  14
HETATM   14  C   UNL     1     -41.191  54.828 -54.220  1.00  0.00     0.201 C 
HETATM   15  O   UNL     1     -41.099  54.820 -55.451  1.00  0.00    -0.286 OA
BRANCH  14  16
HETATM   16  C   UNL     1     -40.646  53.637 -53.512  1.00  0.00     0.018 A 
HETATM   17  C   UNL     1     -40.463  52.456 -54.248  1.00  0.00     0.055 A 
HETATM   18  C   UNL     1     -40.020  51.341 -53.571  1.00  0.00     0.106 A 
HETATM   19  C   UNL     1     -39.766  51.366 -52.218  1.00  0.00     0.105 A 
HETATM   20  O   UNL     1     -39.795  50.117 -54.117  1.00  0.00    -0.323 OA
HETATM   21  O   UNL     1     -39.351  50.160 -51.747  1.00  0.00    -0.323 OA
HETATM   22  C   UNL     1     -39.945  52.506 -51.465  1.00  0.00     0.040 A 
HETATM   23  C   UNL     1     -39.389  49.367 -52.953  1.00  0.00     0.352 A 
HETATM   24  C   UNL     1     -40.401  53.655 -52.121  1.00  0.00     0.018 A 
ENDBRANCH  14  16
ENDBRANCH   9  14
BRANCH   1  25
HETATM   25  C   UNL     1     -43.425  61.144 -50.775  1.00  0.00     0.055 C 
HETATM   26  C   UNL     1     -43.506  62.205 -51.861  1.00  0.00     0.011 C 
ENDBRANCH   1  25
TORSDOF 3
ENDMDL
MODEL 8
REMARK VINA RESULT:      -7.8      2.806      4.162
REMARK  3 active torsions:
REMARK  status: ('A' for Active; 'I' for Inactive)
REMARK    1  A    between atoms: C_2  and  C_3 
REMARK    2  A    between atoms: C_11  and  C_12 
REMARK    3  A    between atoms: C_12  and  C_13 
ROOT
HETATM    1  C   UNL     1     -40.020  52.011 -52.637  1.00  0.00     0.041 A 
HETATM    2  N   UNL     1     -40.428  53.217 -52.174  1.00  0.00    -0.245 NA
HETATM    3  C   UNL     1     -41.264  53.894 -52.985  1.00  0.00     0.111 A 
HETATM    4  C   UNL     1     -41.730  53.480 -54.225  1.00  0.00     0.028 A 
HETATM    5  C   UNL     1     -41.270  52.226 -54.679  1.00  0.00     0.025 A 
HETATM    6  C   UNL     1     -40.394  51.480 -53.879  1.00  0.00    -0.036 A 
HETATM    7  C   UNL     1     -39.928  50.138 -54.361  1.00  0.00     0.050 C 
HETATM    8  S   UNL     1     -41.876  55.415 -52.527  1.00  0.00    -0.063 SA
HETATM    9  C   UNL     1     -42.763  55.580 -53.985  1.00  0.00     0.085 A 
HETATM   10  C   UNL     1     -42.616  54.458 -54.781  1.00  0.00     0.060 A 
HETATM   11  N   UNL     1     -43.246  54.309 -55.973  1.00  0.00    -0.397 N 
HETATM   12  H   UNL     1     -44.039  54.921 -56.185  1.00  0.00     0.156 HD
HETATM   13  H   UNL     1     -43.347  53.393 -56.399  1.00  0.00     0.156 HD
ENDROOT
BRANCH   9  14
HETATM   14  C   UNL     1     -43.618  56.730 -54.239  1.00  0.00     0.201 C 
HETATM   15  O   UNL     1     -44.809  56.750 -53.917  1.00  0.00    -0.286 OA
BRANCH  14  16
HETATM   16  C   UNL     1     -43.107  57.937 -54.945  1.00  0.00     0.018 A 
HETATM   17  C   UNL     1     -42.989  57.886 -56.343  1.00  0.00     0.055 A 
HETATM   18  C   UNL     1     -42.455  58.984 -56.981  1.00  0.00     0.106 A 
HETATM   19  C   UNL     1     -42.041  60.098 -56.288  1.00  0.00     0.105 A 
HETATM   20  O   UNL     1     -42.261  59.106 -58.322  1.00  0.00    -0.323 OA
HETATM   21  O   UNL     1     -41.535  61.058 -57.105  1.00  0.00    -0.323 OA
HETATM   22  C   UNL     1     -42.134  60.176 -54.915  1.00  0.00     0.040 A 
HETATM   23  C   UNL     1     -41.660  60.416 -58.392  1.00  0.00     0.352 A 
HETATM   24  C   UNL     1     -42.666  59.075 -54.234  1.00  0.00     0.018 A 
ENDBRANCH  14  16
ENDBRANCH   9  14
BRANCH   1  25
HETATM   25  C   UNL     1     -39.090  51.269 -51.704  1.00  0.00     0.055 C 
HETATM   26  C   UNL     1     -39.850  50.353 -50.758  1.00  0.00     0.011 C 
ENDBRANCH   1  25
TORSDOF 3
ENDMDL
MODEL 9
REMARK VINA RESULT:      -7.6      3.240      8.180
REMARK  3 active torsions:
REMARK  status: ('A' for Active; 'I' for Inactive)
REMARK    1  A    between atoms: C_2  and  C_3 
REMARK    2  A    between atoms: C_11  and  C_12 
REMARK    3  A    between atoms: C_12  and  C_13 
ROOT
HETATM    1  C   UNL     1     -43.656  60.112 -51.612  1.00  0.00     0.041 A 
HETATM    2  N   UNL     1     -42.417  59.577 -51.495  1.00  0.00    -0.245 NA
HETATM    3  C   UNL     1     -42.381  58.252 -51.257  1.00  0.00     0.111 A 
HETATM    4  C   UNL     1     -43.472  57.406 -51.120  1.00  0.00     0.028 A 
HETATM    5  C   UNL     1     -44.746  58.003 -51.233  1.00  0.00     0.025 A 
HETATM    6  C   UNL     1     -44.843  59.380 -51.475  1.00  0.00    -0.036 A 
HETATM    7  C   UNL     1     -46.202  60.002 -51.615  1.00  0.00     0.050 C 
HETATM    8  S   UNL     1     -40.894  57.437 -51.105  1.00  0.00    -0.063 SA
HETATM    9  C   UNL     1     -41.663  55.931 -50.825  1.00  0.00     0.085 A 
HETATM   10  C   UNL     1     -43.039  56.060 -50.893  1.00  0.00     0.060 A 
HETATM   11  N   UNL     1     -43.888  55.012 -50.751  1.00  0.00    -0.397 N 
HETATM   12  H   UNL     1     -43.512  54.063 -50.839  1.00  0.00     0.156 HD
HETATM   13  H   UNL     1     -44.849  55.071 -51.071  1.00  0.00     0.156 HD
ENDROOT
BRANCH   9  14
HETATM   14  C   UNL     1     -40.905  54.701 -50.649  1.00  0.00     0.201 C 
HETATM   15  O   UNL     1     -40.335  54.425 -49.589  1.00  0.00    -0.286 OA
BRANCH  14  16
HETATM   16  C   UNL     1     -40.738  53.724 -51.759  1.00  0.00     0.018 A 
HETATM   17  C   UNL     1     -40.200  52.463 -51.456  1.00  0.00     0.055 A 
HETATM   18  C   UNL     1     -39.989  51.589 -52.499  1.00  0.00     0.106 A 
HETATM   19  C   UNL     1     -40.283  51.926 -53.800  1.00  0.00     0.105 A 
HETATM   20  O   UNL     1     -39.472  50.336 -52.393  1.00  0.00    -0.323 OA
HETATM   21  O   UNL     1     -39.988  50.927 -54.674  1.00  0.00    -0.323 OA
HETATM   22  C   UNL     1     -40.802  53.159 -54.133  1.00  0.00     0.040 A 
HETATM   23  C   UNL     1     -39.456  49.928 -53.777  1.00  0.00     0.352 A 
HETATM   24  C   UNL     1     -41.023  54.074 -53.098  1.00  0.00     0.018 A 
ENDBRANCH  14  16
ENDBRANCH   9  14
BRANCH   1  25
HETATM   25  C   UNL     1     -43.668  61.598 -51.887  1.00  0.00     0.055 C 
HETATM   26  C   UNL     1     -43.466  62.411 -50.618  1.00  0.00     0.011 C 
ENDBRANCH   1  25
TORSDOF 3
ENDMDL
MODEL 10
REMARK VINA RESULT:      -7.6      1.938      2.673
REMARK  3 active torsions:
REMARK  status: ('A' for Active; 'I' for Inactive)
REMARK    1  A    between atoms: C_2  and  C_3 
REMARK    2  A    between atoms: C_11  and  C_12 
REMARK    3  A    between atoms: C_12  and  C_13 
ROOT
HETATM    1  C   UNL     1     -40.150  52.133 -52.047  1.00  0.00     0.041 A 
HETATM    2  N   UNL     1     -40.548  52.978 -51.066  1.00  0.00    -0.245 NA
HETATM    3  C   UNL     1     -41.462  53.896 -51.433  1.00  0.00     0.111 A 
HETATM    4  C   UNL     1     -42.017  54.055 -52.695  1.00  0.00     0.028 A 
HETATM    5  C   UNL     1     -41.564  53.166 -53.693  1.00  0.00     0.025 A 
HETATM    6  C   UNL     1     -40.610  52.192 -53.370  1.00  0.00    -0.036 A 
HETATM    7  C   UNL     1     -40.151  51.238 -54.433  1.00  0.00     0.050 C 
HETATM    8  S   UNL     1     -42.072  55.014 -50.303  1.00  0.00    -0.063 SA
HETATM    9  C   UNL     1     -43.077  55.762 -51.472  1.00  0.00     0.085 A 
HETATM   10  C   UNL     1     -42.967  55.126 -52.696  1.00  0.00     0.060 A 
HETATM   11  N   UNL     1     -43.687  55.489 -53.786  1.00  0.00    -0.397 N 
HETATM   12  H   UNL     1     -44.510  56.085 -53.651  1.00  0.00     0.156 HD
HETATM   13  H   UNL     1     -43.800  54.858 -54.573  1.00  0.00     0.156 HD
ENDROOT
BRANCH   9  14
HETATM   14  C   UNL     1     -43.977  56.853 -51.128  1.00  0.00     0.201 C 
HETATM   15  O   UNL     1     -45.033  56.669 -50.516  1.00  0.00    -0.286 OA
BRANCH  14  16
HETATM   16  C   UNL     1     -43.691  58.256 -51.537  1.00  0.00     0.018 A 
HETATM   17  C   UNL     1     -44.644  58.924 -52.321  1.00  0.00     0.055 A 
HETATM   18  C   UNL     1     -44.342  60.198 -52.749  1.00  0.00     0.106 A 
HETATM   19  C   UNL     1     -43.149  60.807 -52.433  1.00  0.00     0.105 A 
HETATM   20  O   UNL     1     -45.138  60.988 -53.518  1.00  0.00    -0.323 OA
HETATM   21  O   UNL     1     -43.048  62.054 -52.964  1.00  0.00    -0.323 OA
HETATM   22  C   UNL     1     -42.188  60.175 -51.674  1.00  0.00     0.040 A 
HETATM   23  C   UNL     1     -44.304  62.156 -53.667  1.00  0.00     0.352 A 
HETATM   24  C   UNL     1     -42.460  58.876 -51.228  1.00  0.00     0.018 A 
ENDBRANCH  14  16
ENDBRANCH   9  14
BRANCH   1  25
HETATM   25  C   UNL     1     -39.130  51.107 -51.608  1.00  0.00     0.055 C 
HETATM   26  C   UNL     1     -39.755  50.019 -50.749  1.00  0.00     0.011 C 
ENDBRANCH   1  25
TORSDOF 3
ENDMDL
