MODEL 1
REMARK VINA RESULT:      -9.9      0.000      0.000
REMARK  7 active torsions:
REMARK  status: ('A' for Active; 'I' for Inactive)
REMARK    1  A    between atoms: C_2  and  C_3 
REMARK    2  A    between atoms: N_16  and  C_17 
REMARK    3  A    between atoms: C_17  and  C_18 
REMARK       I    between atoms: C_18  and  N_19 
REMARK    4  A    between atoms: N_19  and  C_20 
REMARK    5  A    between atoms: C_21  and  C_22 
REMARK       I    between atoms: C_22  and  N_23 
REMARK    6  A    between atoms: N_23  and  C_24 
REMARK    7  A    between atoms: C_24  and  C_25 
ROOT
HETATM    1  C   UNL     1     -43.210  58.484 -55.859  1.00  0.00     0.240 C 
ENDROOT
BRANCH   1   2
HETATM    2  N   UNL     1     -43.529  57.132 -55.475  1.00  0.00    -0.259 N 
HETATM    3  C   UNL     1     -44.599  56.788 -54.712  1.00  0.00     0.326 A 
HETATM    4  N   UNL     1     -44.474  55.472 -54.337  1.00  0.00    -0.321 N 
HETATM    5  O   UNL     1     -45.495  57.521 -54.327  1.00  0.00    -0.247 OA
HETATM    6  C   UNL     1     -43.223  54.885 -54.779  1.00  0.00     0.140 A 
HETATM    7  H   UNL     1     -45.102  55.054 -53.664  1.00  0.00     0.165 HD
HETATM    8  C   UNL     1     -43.523  53.762 -55.772  1.00  0.00     0.054 C 
HETATM    9  C   UNL     1     -42.639  56.096 -55.552  1.00  0.00     0.261 A 
HETATM   10  O   UNL     1     -41.538  56.140 -56.087  1.00  0.00    -0.270 OA
BRANCH   6  11
HETATM   11  C   UNL     1     -42.327  54.533 -53.589  1.00  0.00    -0.020 A 
HETATM   12  C   UNL     1     -42.391  55.228 -52.366  1.00  0.00     0.022 A 
HETATM   13  C   UNL     1     -41.631  54.834 -51.246  1.00  0.00    -0.025 A 
HETATM   14  C   UNL     1     -40.774  53.718 -51.346  1.00  0.00    -0.026 A 
HETATM   15  C   UNL     1     -41.718  55.519 -50.022  1.00  0.00     0.012 A 
HETATM   16  C   UNL     1     -40.685  53.035 -52.563  1.00  0.00     0.013 A 
HETATM   17  C   UNL     1     -40.039  53.306 -50.221  1.00  0.00     0.012 A 
HETATM   18  C   UNL     1     -41.446  53.438 -53.665  1.00  0.00     0.011 A 
HETATM   19  C   UNL     1     -40.143  53.993 -49.011  1.00  0.00     0.001 A 
HETATM   20  C   UNL     1     -40.980  55.101 -48.913  1.00  0.00     0.001 A 
ENDBRANCH   6  11
ENDBRANCH   1   2
BRANCH   1  21
HETATM   21  C   UNL     1     -42.346  59.243 -54.852  1.00  0.00     0.240 C 
HETATM   22  N   UNL     1     -42.475  58.696 -53.580  1.00  0.00    -0.325 N 
HETATM   23  H   UNL     1     -43.356  58.231 -53.390  1.00  0.00     0.169 HD
HETATM   24  O   UNL     1     -41.690  60.245 -55.124  1.00  0.00    -0.271 OA
BRANCH  22  25
HETATM   25  C   UNL     1     -41.694  59.014 -52.450  1.00  0.00     0.050 A 
HETATM   26  C   UNL     1     -42.154  59.638 -51.282  1.00  0.00     0.058 A 
HETATM   27  C   UNL     1     -41.262  59.932 -50.234  1.00  0.00     0.019 A 
HETATM   28  C   UNL     1     -39.910  59.608 -50.345  1.00  0.00     0.001 A 
HETATM   29  C   UNL     1     -39.441  59.012 -51.509  1.00  0.00     0.002 A 
HETATM   30  C   UNL     1     -40.323  58.728 -52.556  1.00  0.00     0.030 A 
BRANCH  26  31
HETATM   31  C   UNL     1     -43.489  60.254 -51.141  1.00  0.00     0.254 C 
HETATM   32  N   UNL     1     -44.037  60.150 -49.887  1.00  0.00    -0.351 N 
HETATM   33  H   UNL     1     -43.816  59.283 -49.403  1.00  0.00     0.163 HD
HETATM   34  O   UNL     1     -43.968  60.879 -52.077  1.00  0.00    -0.268 OA
BRANCH  32  35
HETATM   35  C   UNL     1     -45.352  60.689 -49.631  1.00  0.00     0.187 C 
BRANCH  35  36
HETATM   36  C   UNL     1     -45.480  60.921 -48.170  1.00  0.00     0.070 A 
HETATM   37  O   UNL     1     -46.163  59.983 -47.452  1.00  0.00    -0.325 OA
HETATM   38  C   UNL     1     -46.142  60.383 -46.154  1.00  0.00     0.142 A 
HETATM   39  C   UNL     1     -45.455  61.567 -46.025  1.00  0.00     0.027 A 
HETATM   40  C   UNL     1     -45.030  61.919 -47.328  1.00  0.00     0.036 A 
ENDBRANCH  35  36
ENDBRANCH  32  35
ENDBRANCH  26  31
ENDBRANCH  22  25
ENDBRANCH   1  21
TORSDOF 7
ENDMDL
MODEL 2
REMARK VINA RESULT:      -9.5      2.935      6.875
REMARK  7 active torsions:
REMARK  status: ('A' for Active; 'I' for Inactive)
REMARK    1  A    between atoms: C_2  and  C_3 
REMARK    2  A    between atoms: N_16  and  C_17 
REMARK    3  A    between atoms: C_17  and  C_18 
REMARK       I    between atoms: C_18  and  N_19 
REMARK    4  A    between atoms: N_19  and  C_20 
REMARK    5  A    between atoms: C_21  and  C_22 
REMARK       I    between atoms: C_22  and  N_23 
REMARK    6  A    between atoms: N_23  and  C_24 
REMARK    7  A    between atoms: C_24  and  C_25 
ROOT
HETATM    1  C   UNL     1     -43.743  57.882 -51.571  1.00  0.00     0.240 C 
ENDROOT
BRANCH   1   2
HETATM    2  N   UNL     1     -42.619  57.158 -51.033  1.00  0.00    -0.259 N 
HETATM    3  C   UNL     1     -41.334  57.594 -51.089  1.00  0.00     0.326 A 
HETATM    4  N   UNL     1     -40.499  56.571 -50.708  1.00  0.00    -0.321 N 
HETATM    5  O   UNL     1     -40.940  58.677 -51.490  1.00  0.00    -0.247 OA
HETATM    6  C   UNL     1     -41.216  55.334 -50.457  1.00  0.00     0.140 A 
HETATM    7  H   UNL     1     -39.495  56.649 -50.798  1.00  0.00     0.165 HD
HETATM    8  C   UNL     1     -41.065  54.962 -48.981  1.00  0.00     0.054 C 
HETATM    9  C   UNL     1     -42.664  55.830 -50.704  1.00  0.00     0.261 A 
HETATM   10  O   UNL     1     -43.674  55.138 -50.673  1.00  0.00    -0.270 OA
BRANCH   6  11
HETATM   11  C   UNL     1     -40.840  54.261 -51.481  1.00  0.00    -0.020 A 
HETATM   12  C   UNL     1     -40.378  52.987 -51.102  1.00  0.00     0.022 A 
HETATM   13  C   UNL     1     -40.125  51.974 -52.050  1.00  0.00    -0.025 A 
HETATM   14  C   UNL     1     -40.334  52.238 -53.420  1.00  0.00    -0.026 A 
HETATM   15  C   UNL     1     -39.687  50.697 -51.662  1.00  0.00     0.012 A 
HETATM   16  C   UNL     1     -40.770  53.509 -53.810  1.00  0.00     0.013 A 
HETATM   17  C   UNL     1     -40.112  51.221 -54.364  1.00  0.00     0.012 A 
HETATM   18  C   UNL     1     -41.016  54.502 -52.857  1.00  0.00     0.011 A 
HETATM   19  C   UNL     1     -39.684  49.956 -53.960  1.00  0.00     0.001 A 
HETATM   20  C   UNL     1     -39.468  49.695 -52.610  1.00  0.00     0.001 A 
ENDBRANCH   6  11
ENDBRANCH   1   2
BRANCH   1  21
HETATM   21  C   UNL     1     -44.043  57.587 -53.042  1.00  0.00     0.240 C 
HETATM   22  N   UNL     1     -42.874  57.590 -53.793  1.00  0.00    -0.325 N 
HETATM   23  H   UNL     1     -42.122  58.170 -53.434  1.00  0.00     0.169 HD
HETATM   24  O   UNL     1     -45.174  57.445 -53.498  1.00  0.00    -0.271 OA
BRANCH  22  25
HETATM   25  C   UNL     1     -42.741  57.178 -55.136  1.00  0.00     0.050 A 
HETATM   26  C   UNL     1     -42.340  57.986 -56.208  1.00  0.00     0.058 A 
HETATM   27  C   UNL     1     -42.281  57.460 -57.512  1.00  0.00     0.019 A 
HETATM   28  C   UNL     1     -42.620  56.129 -57.753  1.00  0.00     0.001 A 
HETATM   29  C   UNL     1     -43.043  55.327 -56.699  1.00  0.00     0.002 A 
HETATM   30  C   UNL     1     -43.114  55.851 -55.405  1.00  0.00     0.030 A 
BRANCH  26  31
HETATM   31  C   UNL     1     -42.200  59.454 -56.133  1.00  0.00     0.254 C 
HETATM   32  N   UNL     1     -42.853  60.142 -57.124  1.00  0.00    -0.351 N 
HETATM   33  H   UNL     1     -42.862  59.672 -58.026  1.00  0.00     0.163 HD
HETATM   34  O   UNL     1     -41.619  59.958 -55.181  1.00  0.00    -0.268 OA
BRANCH  32  35
HETATM   35  C   UNL     1     -42.769  61.583 -57.174  1.00  0.00     0.187 C 
BRANCH  35  36
HETATM   36  C   UNL     1     -41.919  61.957 -58.333  1.00  0.00     0.070 A 
HETATM   37  O   UNL     1     -41.114  63.048 -58.184  1.00  0.00    -0.325 OA
HETATM   38  C   UNL     1     -40.424  63.194 -59.344  1.00  0.00     0.142 A 
HETATM   39  C   UNL     1     -40.772  62.212 -60.240  1.00  0.00     0.027 A 
HETATM   40  C   UNL     1     -41.743  61.413 -59.590  1.00  0.00     0.036 A 
ENDBRANCH  35  36
ENDBRANCH  32  35
ENDBRANCH  26  31
ENDBRANCH  22  25
ENDBRANCH   1  21
TORSDOF 7
ENDMDL
MODEL 3
REMARK VINA RESULT:      -9.5      3.391      7.453
REMARK  7 active torsions:
REMARK  status: ('A' for Active; 'I' for Inactive)
REMARK    1  A    between atoms: C_2  and  C_3 
REMARK    2  A    between atoms: N_16  and  C_17 
REMARK    3  A    between atoms: C_17  and  C_18 
REMARK       I    between atoms: C_18  and  N_19 
REMARK    4  A    between atoms: N_19  and  C_20 
REMARK    5  A    between atoms: C_21  and  C_22 
REMARK       I    between atoms: C_22  and  N_23 
REMARK    6  A    between atoms: N_23  and  C_24 
REMARK    7  A    between atoms: C_24  and  C_25 
ROOT
HETATM    1  C   UNL     1     -43.974  58.835 -53.816  1.00  0.00     0.240 C 
ENDROOT
BRANCH   1   2
HETATM    2  N   UNL     1     -42.823  58.324 -53.115  1.00  0.00    -0.259 N 
HETATM    3  C   UNL     1     -41.549  58.740 -53.337  1.00  0.00     0.326 A 
HETATM    4  N   UNL     1     -40.684  57.891 -52.686  1.00  0.00    -0.321 N 
HETATM    5  O   UNL     1     -41.186  59.653 -54.059  1.00  0.00    -0.247 OA
HETATM    6  C   UNL     1     -41.370  56.781 -52.051  1.00  0.00     0.140 A 
HETATM    7  H   UNL     1     -39.685  57.951 -52.824  1.00  0.00     0.165 HD
HETATM    8  C   UNL     1     -41.177  56.878 -50.537  1.00  0.00     0.054 C 
HETATM    9  C   UNL     1     -42.833  57.160 -52.396  1.00  0.00     0.261 A 
HETATM   10  O   UNL     1     -43.827  56.497 -52.128  1.00  0.00    -0.270 OA
BRANCH   6  11
HETATM   11  C   UNL     1     -40.995  55.452 -52.710  1.00  0.00    -0.020 A 
HETATM   12  C   UNL     1     -40.556  54.340 -51.967  1.00  0.00     0.022 A 
HETATM   13  C   UNL     1     -40.305  53.092 -52.574  1.00  0.00    -0.025 A 
HETATM   14  C   UNL     1     -40.491  52.946 -53.964  1.00  0.00    -0.026 A 
HETATM   15  C   UNL     1     -39.889  51.981 -51.822  1.00  0.00     0.012 A 
HETATM   16  C   UNL     1     -40.905  54.051 -54.716  1.00  0.00     0.013 A 
HETATM   17  C   UNL     1     -40.271  51.694 -54.565  1.00  0.00     0.012 A 
HETATM   18  C   UNL     1     -41.149  55.282 -54.099  1.00  0.00     0.011 A 
HETATM   19  C   UNL     1     -39.866  50.599 -53.802  1.00  0.00     0.001 A 
HETATM   20  C   UNL     1     -39.671  50.743 -52.431  1.00  0.00     0.001 A 
ENDBRANCH   6  11
ENDBRANCH   1   2
BRANCH   1  21
HETATM   21  C   UNL     1     -44.292  58.113 -55.126  1.00  0.00     0.240 C 
HETATM   22  N   UNL     1     -43.207  58.166 -55.993  1.00  0.00    -0.325 N 
HETATM   23  H   UNL     1     -42.591  58.963 -55.878  1.00  0.00     0.169 HD
HETATM   24  O   UNL     1     -45.385  57.623 -55.394  1.00  0.00    -0.271 OA
BRANCH  22  25
HETATM   25  C   UNL     1     -43.070  57.457 -57.205  1.00  0.00     0.050 A 
HETATM   26  C   UNL     1     -42.974  58.024 -58.483  1.00  0.00     0.058 A 
HETATM   27  C   UNL     1     -42.874  57.201 -59.620  1.00  0.00     0.019 A 
HETATM   28  C   UNL     1     -42.871  55.813 -59.490  1.00  0.00     0.001 A 
HETATM   29  C   UNL     1     -42.991  55.242 -58.229  1.00  0.00     0.002 A 
HETATM   30  C   UNL     1     -43.101  56.057 -57.098  1.00  0.00     0.030 A 
BRANCH  26  31
HETATM   31  C   UNL     1     -43.217  59.450 -58.778  1.00  0.00     0.254 C 
HETATM   32  N   UNL     1     -42.501  59.945 -59.839  1.00  0.00    -0.351 N 
HETATM   33  H   UNL     1     -41.569  59.551 -59.936  1.00  0.00     0.163 HD
HETATM   34  O   UNL     1     -44.076  60.059 -58.154  1.00  0.00    -0.268 OA
BRANCH  32  35
HETATM   35  C   UNL     1     -42.633  61.334 -60.209  1.00  0.00     0.187 C 
BRANCH  35  36
HETATM   36  C   UNL     1     -41.323  61.998 -59.990  1.00  0.00     0.070 A 
HETATM   37  O   UNL     1     -40.780  62.663 -61.050  1.00  0.00    -0.325 OA
HETATM   38  C   UNL     1     -39.608  63.200 -60.625  1.00  0.00     0.142 A 
HETATM   39  C   UNL     1     -39.386  62.890 -59.304  1.00  0.00     0.027 A 
HETATM   40  C   UNL     1     -40.492  62.109 -58.892  1.00  0.00     0.036 A 
ENDBRANCH  35  36
ENDBRANCH  32  35
ENDBRANCH  26  31
ENDBRANCH  22  25
ENDBRANCH   1  21
TORSDOF 7
ENDMDL
MODEL 4
REMARK VINA RESULT:      -9.2      2.482      4.647
REMARK  7 active torsions:
REMARK  status: ('A' for Active; 'I' for Inactive)
REMARK    1  A    between atoms: C_2  and  C_3 
REMARK    2  A    between atoms: N_16  and  C_17 
REMARK    3  A    between atoms: C_17  and  C_18 
REMARK       I    between atoms: C_18  and  N_19 
REMARK    4  A    between atoms: N_19  and  C_20 
REMARK    5  A    between atoms: C_21  and  C_22 
REMARK       I    between atoms: C_22  and  N_23 
REMARK    6  A    between atoms: N_23  and  C_24 
REMARK    7  A    between atoms: C_24  and  C_25 
ROOT
HETATM    1  C   UNL     1     -44.815  57.628 -52.053  1.00  0.00     0.240 C 
ENDROOT
BRANCH   1   2
HETATM    2  N   UNL     1     -43.498  57.285 -51.579  1.00  0.00    -0.259 N 
HETATM    3  C   UNL     1     -42.371  57.977 -51.890  1.00  0.00     0.326 A 
HETATM    4  N   UNL     1     -41.277  57.253 -51.479  1.00  0.00    -0.321 N 
HETATM    5  O   UNL     1     -42.297  59.024 -52.509  1.00  0.00    -0.247 OA
HETATM    6  C   UNL     1     -41.641  55.958 -50.935  1.00  0.00     0.140 A 
HETATM    7  H   UNL     1     -40.338  57.533 -51.727  1.00  0.00     0.165 HD
HETATM    8  C   UNL     1     -41.248  55.911 -49.458  1.00  0.00     0.054 C 
HETATM    9  C   UNL     1     -43.183  56.066 -51.042  1.00  0.00     0.261 A 
HETATM   10  O   UNL     1     -43.985  55.186 -50.755  1.00  0.00    -0.270 OA
BRANCH   6  11
HETATM   11  C   UNL     1     -41.125  54.822 -51.822  1.00  0.00    -0.020 A 
HETATM   12  C   UNL     1     -40.638  53.613 -51.291  1.00  0.00     0.022 A 
HETATM   13  C   UNL     1     -40.255  52.537 -52.119  1.00  0.00    -0.025 A 
HETATM   14  C   UNL     1     -40.353  52.670 -53.520  1.00  0.00    -0.026 A 
HETATM   15  C   UNL     1     -39.794  51.325 -51.580  1.00  0.00     0.012 A 
HETATM   16  C   UNL     1     -40.813  53.876 -54.059  1.00  0.00     0.013 A 
HETATM   17  C   UNL     1     -40.001  51.588 -54.345  1.00  0.00     0.012 A 
HETATM   18  C   UNL     1     -41.189  54.933 -53.224  1.00  0.00     0.011 A 
HETATM   19  C   UNL     1     -39.551  50.389 -53.793  1.00  0.00     0.001 A 
HETATM   20  C   UNL     1     -39.444  50.258 -52.411  1.00  0.00     0.001 A 
ENDBRANCH   6  11
ENDBRANCH   1   2
BRANCH   1  21
HETATM   21  C   UNL     1     -45.513  58.724 -51.247  1.00  0.00     0.240 C 
HETATM   22  N   UNL     1     -45.262  59.976 -51.797  1.00  0.00    -0.325 N 
HETATM   23  H   UNL     1     -44.390  60.064 -52.308  1.00  0.00     0.169 HD
HETATM   24  O   UNL     1     -46.144  58.523 -50.213  1.00  0.00    -0.271 OA
BRANCH  22  25
HETATM   25  C   UNL     1     -45.886  61.188 -51.437  1.00  0.00     0.050 A 
HETATM   26  C   UNL     1     -45.675  61.900 -50.247  1.00  0.00     0.058 A 
HETATM   27  C   UNL     1     -46.388  63.085 -49.992  1.00  0.00     0.019 A 
HETATM   28  C   UNL     1     -47.314  63.566 -50.916  1.00  0.00     0.001 A 
HETATM   29  C   UNL     1     -47.548  62.854 -52.087  1.00  0.00     0.002 A 
HETATM   30  C   UNL     1     -46.848  61.670 -52.339  1.00  0.00     0.030 A 
BRANCH  26  31
HETATM   31  C   UNL     1     -44.923  61.375 -49.090  1.00  0.00     0.254 C 
HETATM   32  N   UNL     1     -45.672  61.200 -47.953  1.00  0.00    -0.351 N 
HETATM   33  H   UNL     1     -46.402  61.896 -47.821  1.00  0.00     0.163 HD
HETATM   34  O   UNL     1     -43.752  61.047 -49.227  1.00  0.00    -0.268 OA
BRANCH  32  35
HETATM   35  C   UNL     1     -45.044  60.718 -46.746  1.00  0.00     0.187 C 
BRANCH  35  36
HETATM   36  C   UNL     1     -44.961  61.846 -45.785  1.00  0.00     0.070 A 
HETATM   37  O   UNL     1     -44.330  61.605 -44.599  1.00  0.00    -0.325 OA
HETATM   38  C   UNL     1     -44.356  62.763 -43.892  1.00  0.00     0.142 A 
HETATM   39  C   UNL     1     -44.995  63.750 -44.605  1.00  0.00     0.027 A 
HETATM   40  C   UNL     1     -45.391  63.158 -45.828  1.00  0.00     0.036 A 
ENDBRANCH  35  36
ENDBRANCH  32  35
ENDBRANCH  26  31
ENDBRANCH  22  25
ENDBRANCH   1  21
TORSDOF 7
ENDMDL
MODEL 5
REMARK VINA RESULT:      -9.0      3.911      7.679
REMARK  7 active torsions:
REMARK  status: ('A' for Active; 'I' for Inactive)
REMARK    1  A    between atoms: C_2  and  C_3 
REMARK    2  A    between atoms: N_16  and  C_17 
REMARK    3  A    between atoms: C_17  and  C_18 
REMARK       I    between atoms: C_18  and  N_19 
REMARK    4  A    between atoms: N_19  and  C_20 
REMARK    5  A    between atoms: C_21  and  C_22 
REMARK       I    between atoms: C_22  and  N_23 
REMARK    6  A    between atoms: N_23  and  C_24 
REMARK    7  A    between atoms: C_24  and  C_25 
ROOT
HETATM    1  C   UNL     1     -43.345  58.973 -54.617  1.00  0.00     0.240 C 
ENDROOT
BRANCH   1   2
HETATM    2  N   UNL     1     -42.589  58.308 -53.585  1.00  0.00    -0.259 N 
HETATM    3  C   UNL     1     -41.309  58.620 -53.255  1.00  0.00     0.326 A 
HETATM    4  N   UNL     1     -40.816  57.650 -52.416  1.00  0.00    -0.321 N 
HETATM    5  O   UNL     1     -40.644  59.549 -53.683  1.00  0.00    -0.247 OA
HETATM    6  C   UNL     1     -41.755  56.562 -52.214  1.00  0.00     0.140 A 
HETATM    7  H   UNL     1     -39.841  57.628 -52.152  1.00  0.00     0.165 HD
HETATM    8  C   UNL     1     -42.165  56.526 -50.741  1.00  0.00     0.054 C 
HETATM    9  C   UNL     1     -42.943  57.098 -53.053  1.00  0.00     0.261 A 
HETATM   10  O   UNL     1     -43.998  56.510 -53.258  1.00  0.00    -0.270 OA
BRANCH   6  11
HETATM   11  C   UNL     1     -41.226  55.258 -52.815  1.00  0.00    -0.020 A 
HETATM   12  C   UNL     1     -40.746  54.201 -52.018  1.00  0.00     0.022 A 
HETATM   13  C   UNL     1     -40.351  52.968 -52.577  1.00  0.00    -0.025 A 
HETATM   14  C   UNL     1     -40.428  52.782 -53.973  1.00  0.00    -0.026 A 
HETATM   15  C   UNL     1     -39.896  51.910 -51.773  1.00  0.00     0.012 A 
HETATM   16  C   UNL     1     -40.880  53.834 -54.776  1.00  0.00     0.013 A 
HETATM   17  C   UNL     1     -40.063  51.543 -54.528  1.00  0.00     0.012 A 
HETATM   18  C   UNL     1     -41.269  55.050 -54.206  1.00  0.00     0.011 A 
HETATM   19  C   UNL     1     -39.620  50.501 -53.714  1.00  0.00     0.001 A 
HETATM   20  C   UNL     1     -39.534  50.685 -52.337  1.00  0.00     0.001 A 
ENDBRANCH   6  11
ENDBRANCH   1   2
BRANCH   1  21
HETATM   21  C   UNL     1     -43.012  58.522 -56.039  1.00  0.00     0.240 C 
HETATM   22  N   UNL     1     -43.878  57.516 -56.452  1.00  0.00    -0.325 N 
HETATM   23  H   UNL     1     -44.269  56.943 -55.713  1.00  0.00     0.169 HD
HETATM   24  O   UNL     1     -42.060  58.943 -56.689  1.00  0.00    -0.271 OA
BRANCH  22  25
HETATM   25  C   UNL     1     -43.989  56.993 -57.757  1.00  0.00     0.050 A 
HETATM   26  C   UNL     1     -44.921  57.391 -58.726  1.00  0.00     0.058 A 
HETATM   27  C   UNL     1     -44.950  56.764 -59.985  1.00  0.00     0.019 A 
HETATM   28  C   UNL     1     -44.054  55.738 -60.284  1.00  0.00     0.001 A 
HETATM   29  C   UNL     1     -43.144  55.319 -59.321  1.00  0.00     0.002 A 
HETATM   30  C   UNL     1     -43.120  55.934 -58.066  1.00  0.00     0.030 A 
BRANCH  26  31
HETATM   31  C   UNL     1     -46.072  58.275 -58.455  1.00  0.00     0.254 C 
HETATM   32  N   UNL     1     -46.284  59.245 -59.403  1.00  0.00    -0.351 N 
HETATM   33  H   UNL     1     -45.434  59.619 -59.819  1.00  0.00     0.163 HD
HETATM   34  O   UNL     1     -46.799  58.046 -57.498  1.00  0.00    -0.268 OA
BRANCH  32  35
HETATM   35  C   UNL     1     -47.364  60.189 -59.237  1.00  0.00     0.187 C 
BRANCH  35  36
HETATM   36  C   UNL     1     -48.336  59.979 -60.338  1.00  0.00     0.070 A 
HETATM   37  O   UNL     1     -48.041  59.008 -61.250  1.00  0.00    -0.325 OA
HETATM   38  C   UNL     1     -49.061  58.978 -62.145  1.00  0.00     0.142 A 
HETATM   39  C   UNL     1     -50.013  59.917 -61.823  1.00  0.00     0.027 A 
HETATM   40  C   UNL     1     -49.544  60.569 -60.658  1.00  0.00     0.036 A 
ENDBRANCH  35  36
ENDBRANCH  32  35
ENDBRANCH  26  31
ENDBRANCH  22  25
ENDBRANCH   1  21
TORSDOF 7
ENDMDL
MODEL 6
REMARK VINA RESULT:      -8.8      2.195      5.116
REMARK  7 active torsions:
REMARK  status: ('A' for Active; 'I' for Inactive)
REMARK    1  A    between atoms: C_2  and  C_3 
REMARK    2  A    between atoms: N_16  and  C_17 
REMARK    3  A    between atoms: C_17  and  C_18 
REMARK       I    between atoms: C_18  and  N_19 
REMARK    4  A    between atoms: N_19  and  C_20 
REMARK    5  A    between atoms: C_21  and  C_22 
REMARK       I    between atoms: C_22  and  N_23 
REMARK    6  A    between atoms: N_23  and  C_24 
REMARK    7  A    between atoms: C_24  and  C_25 
ROOT
HETATM    1  C   UNL     1     -42.332  58.750 -50.951  1.00  0.00     0.240 C 
ENDROOT
BRANCH   1   2
HETATM    2  N   UNL     1     -42.818  57.697 -51.807  1.00  0.00    -0.259 N 
HETATM    3  C   UNL     1     -43.943  56.974 -51.563  1.00  0.00     0.326 A 
HETATM    4  N   UNL     1     -43.984  55.909 -52.431  1.00  0.00    -0.321 N 
HETATM    5  O   UNL     1     -44.758  57.156 -50.674  1.00  0.00    -0.247 OA
HETATM    6  C   UNL     1     -42.798  55.825 -53.263  1.00  0.00     0.140 A 
HETATM    7  H   UNL     1     -44.676  55.178 -52.335  1.00  0.00     0.165 HD
HETATM    8  C   UNL     1     -43.200  56.027 -54.724  1.00  0.00     0.054 C 
HETATM    9  C   UNL     1     -42.054  57.091 -52.766  1.00  0.00     0.261 A 
HETATM   10  O   UNL     1     -40.941  57.455 -53.125  1.00  0.00    -0.270 OA
BRANCH   6  11
HETATM   11  C   UNL     1     -41.984  54.569 -52.938  1.00  0.00    -0.020 A 
HETATM   12  C   UNL     1     -41.744  53.560 -53.889  1.00  0.00     0.022 A 
HETATM   13  C   UNL     1     -40.915  52.455 -53.608  1.00  0.00    -0.025 A 
HETATM   14  C   UNL     1     -40.309  52.346 -52.339  1.00  0.00    -0.026 A 
HETATM   15  C   UNL     1     -40.660  51.465 -54.571  1.00  0.00     0.012 A 
HETATM   16  C   UNL     1     -40.561  53.331 -51.378  1.00  0.00     0.013 A 
HETATM   17  C   UNL     1     -39.458  51.261 -52.068  1.00  0.00     0.012 A 
HETATM   18  C   UNL     1     -41.386  54.421 -51.672  1.00  0.00     0.011 A 
HETATM   19  C   UNL     1     -39.211  50.290 -53.038  1.00  0.00     0.001 A 
HETATM   20  C   UNL     1     -39.814  50.390 -54.288  1.00  0.00     0.001 A 
ENDBRANCH   6  11
ENDBRANCH   1   2
BRANCH   1  21
HETATM   21  C   UNL     1     -43.132  60.051 -51.029  1.00  0.00     0.240 C 
HETATM   22  N   UNL     1     -44.096  60.098 -50.029  1.00  0.00    -0.325 N 
HETATM   23  H   UNL     1     -44.435  59.199 -49.704  1.00  0.00     0.169 HD
HETATM   24  O   UNL     1     -42.985  60.897 -51.907  1.00  0.00    -0.271 OA
BRANCH  22  25
HETATM   25  C   UNL     1     -44.885  61.214 -49.681  1.00  0.00     0.050 A 
HETATM   26  C   UNL     1     -45.978  61.707 -50.407  1.00  0.00     0.058 A 
HETATM   27  C   UNL     1     -46.665  62.854 -49.968  1.00  0.00     0.019 A 
HETATM   28  C   UNL     1     -46.266  63.514 -48.806  1.00  0.00     0.001 A 
HETATM   29  C   UNL     1     -45.168  63.048 -48.093  1.00  0.00     0.002 A 
HETATM   30  C   UNL     1     -44.477  61.914 -48.534  1.00  0.00     0.030 A 
BRANCH  26  31
HETATM   31  C   UNL     1     -46.340  61.259 -51.766  1.00  0.00     0.254 C 
HETATM   32  N   UNL     1     -45.904  62.082 -52.774  1.00  0.00    -0.351 N 
HETATM   33  H   UNL     1     -45.909  63.072 -52.540  1.00  0.00     0.163 HD
HETATM   34  O   UNL     1     -46.896  60.180 -51.921  1.00  0.00    -0.268 OA
BRANCH  32  35
HETATM   35  C   UNL     1     -46.218  61.766 -54.148  1.00  0.00     0.187 C 
BRANCH  35  36
HETATM   36  C   UNL     1     -45.071  61.023 -54.726  1.00  0.00     0.070 A 
HETATM   37  O   UNL     1     -43.996  61.760 -55.132  1.00  0.00    -0.325 OA
HETATM   38  C   UNL     1     -43.071  60.886 -55.606  1.00  0.00     0.142 A 
HETATM   39  C   UNL     1     -43.534  59.595 -55.511  1.00  0.00     0.027 A 
HETATM   40  C   UNL     1     -44.828  59.681 -54.947  1.00  0.00     0.036 A 
ENDBRANCH  35  36
ENDBRANCH  32  35
ENDBRANCH  26  31
ENDBRANCH  22  25
ENDBRANCH   1  21
TORSDOF 7
ENDMDL
MODEL 7
REMARK VINA RESULT:      -8.7      2.352      4.443
REMARK  7 active torsions:
REMARK  status: ('A' for Active; 'I' for Inactive)
REMARK    1  A    between atoms: C_2  and  C_3 
REMARK    2  A    between atoms: N_16  and  C_17 
REMARK    3  A    between atoms: C_17  and  C_18 
REMARK       I    between atoms: C_18  and  N_19 
REMARK    4  A    between atoms: N_19  and  C_20 
REMARK    5  A    between atoms: C_21  and  C_22 
REMARK       I    between atoms: C_22  and  N_23 
REMARK    6  A    between atoms: N_23  and  C_24 
REMARK    7  A    between atoms: C_24  and  C_25 
ROOT
HETATM    1  C   UNL     1     -44.264  57.699 -51.359  1.00  0.00     0.240 C 
ENDROOT
BRANCH   1   2
HETATM    2  N   UNL     1     -43.351  57.203 -52.357  1.00  0.00    -0.259 N 
HETATM    3  C   UNL     1     -43.735  56.687 -53.553  1.00  0.00     0.326 A 
HETATM    4  N   UNL     1     -42.649  56.094 -54.152  1.00  0.00    -0.321 N 
HETATM    5  O   UNL     1     -44.865  56.656 -54.014  1.00  0.00    -0.247 OA
HETATM    6  C   UNL     1     -41.470  56.115 -53.307  1.00  0.00     0.140 A 
HETATM    7  H   UNL     1     -42.748  55.543 -54.994  1.00  0.00     0.165 HD
HETATM    8  C   UNL     1     -40.391  56.965 -53.979  1.00  0.00     0.054 C 
HETATM    9  C   UNL     1     -42.043  56.895 -52.097  1.00  0.00     0.261 A 
HETATM   10  O   UNL     1     -41.448  57.139 -51.055  1.00  0.00    -0.270 OA
BRANCH   6  11
HETATM   11  C   UNL     1     -41.069  54.699 -52.885  1.00  0.00    -0.020 A 
HETATM   12  C   UNL     1     -40.939  53.646 -53.810  1.00  0.00     0.022 A 
HETATM   13  C   UNL     1     -40.477  52.370 -53.425  1.00  0.00    -0.025 A 
HETATM   14  C   UNL     1     -40.139  52.132 -52.076  1.00  0.00    -0.026 A 
HETATM   15  C   UNL     1     -40.326  51.331 -54.358  1.00  0.00     0.012 A 
HETATM   16  C   UNL     1     -40.289  53.165 -51.145  1.00  0.00     0.013 A 
HETATM   17  C   UNL     1     -39.650  50.870 -51.697  1.00  0.00     0.012 A 
HETATM   18  C   UNL     1     -40.748  54.424 -51.543  1.00  0.00     0.011 A 
HETATM   19  C   UNL     1     -39.500  49.852 -52.638  1.00  0.00     0.001 A 
HETATM   20  C   UNL     1     -39.841  50.081 -53.968  1.00  0.00     0.001 A 
ENDBRANCH   6  11
ENDBRANCH   1   2
BRANCH   1  21
HETATM   21  C   UNL     1     -44.355  59.224 -51.285  1.00  0.00     0.240 C 
HETATM   22  N   UNL     1     -45.665  59.629 -51.054  1.00  0.00    -0.325 N 
HETATM   23  H   UNL     1     -46.385  58.997 -51.385  1.00  0.00     0.169 HD
HETATM   24  O   UNL     1     -43.408  59.980 -51.481  1.00  0.00    -0.271 OA
BRANCH  22  25
HETATM   25  C   UNL     1     -46.093  60.937 -50.744  1.00  0.00     0.050 A 
HETATM   26  C   UNL     1     -46.087  61.524 -49.471  1.00  0.00     0.058 A 
HETATM   27  C   UNL     1     -46.574  62.831 -49.288  1.00  0.00     0.019 A 
HETATM   28  C   UNL     1     -47.070  63.558 -50.370  1.00  0.00     0.001 A 
HETATM   29  C   UNL     1     -47.103  62.975 -51.631  1.00  0.00     0.002 A 
HETATM   30  C   UNL     1     -46.629  61.672 -51.813  1.00  0.00     0.030 A 
BRANCH  26  31
HETATM   31  C   UNL     1     -45.829  60.786 -48.218  1.00  0.00     0.254 C 
HETATM   32  N   UNL     1     -45.388  61.562 -47.177  1.00  0.00    -0.351 N 
HETATM   33  H   UNL     1     -44.784  62.332 -47.454  1.00  0.00     0.163 HD
HETATM   34  O   UNL     1     -46.104  59.595 -48.151  1.00  0.00    -0.268 OA
BRANCH  32  35
HETATM   35  C   UNL     1     -45.076  60.952 -45.906  1.00  0.00     0.187 C 
BRANCH  35  36
HETATM   36  C   UNL     1     -44.743  62.031 -44.943  1.00  0.00     0.070 A 
HETATM   37  O   UNL     1     -44.042  61.673 -43.828  1.00  0.00    -0.325 OA
HETATM   38  C   UNL     1     -43.837  62.804 -43.107  1.00  0.00     0.142 A 
HETATM   39  C   UNL     1     -44.395  63.889 -43.740  1.00  0.00     0.027 A 
HETATM   40  C   UNL     1     -44.986  63.391 -44.926  1.00  0.00     0.036 A 
ENDBRANCH  35  36
ENDBRANCH  32  35
ENDBRANCH  26  31
ENDBRANCH  22  25
ENDBRANCH   1  21
TORSDOF 7
ENDMDL
MODEL 8
REMARK VINA RESULT:      -8.6      3.119      7.125
REMARK  7 active torsions:
REMARK  status: ('A' for Active; 'I' for Inactive)
REMARK    1  A    between atoms: C_2  and  C_3 
REMARK    2  A    between atoms: N_16  and  C_17 
REMARK    3  A    between atoms: C_17  and  C_18 
REMARK       I    between atoms: C_18  and  N_19 
REMARK    4  A    between atoms: N_19  and  C_20 
REMARK    5  A    between atoms: C_21  and  C_22 
REMARK       I    between atoms: C_22  and  N_23 
REMARK    6  A    between atoms: N_23  and  C_24 
REMARK    7  A    between atoms: C_24  and  C_25 
ROOT
HETATM    1  C   UNL     1     -41.627  59.534 -53.813  1.00  0.00     0.240 C 
ENDROOT
BRANCH   1   2
HETATM    2  N   UNL     1     -42.470  58.416 -53.469  1.00  0.00    -0.259 N 
HETATM    3  C   UNL     1     -43.098  58.275 -52.273  1.00  0.00     0.326 A 
HETATM    4  N   UNL     1     -43.613  57.003 -52.188  1.00  0.00    -0.321 N 
HETATM    5  O   UNL     1     -43.141  59.086 -51.363  1.00  0.00    -0.247 OA
HETATM    6  C   UNL     1     -43.261  56.184 -53.333  1.00  0.00     0.140 A 
HETATM    7  H   UNL     1     -44.012  56.653 -51.328  1.00  0.00     0.165 HD
HETATM    8  C   UNL     1     -44.537  55.810 -54.088  1.00  0.00     0.054 C 
HETATM    9  C   UNL     1     -42.477  57.235 -54.160  1.00  0.00     0.261 A 
HETATM   10  O   UNL     1     -41.905  57.029 -55.223  1.00  0.00    -0.270 OA
BRANCH   6  11
HETATM   11  C   UNL     1     -42.338  55.034 -52.925  1.00  0.00    -0.020 A 
HETATM   12  C   UNL     1     -42.027  53.972 -53.796  1.00  0.00     0.022 A 
HETATM   13  C   UNL     1     -41.101  52.968 -53.445  1.00  0.00    -0.025 A 
HETATM   14  C   UNL     1     -40.468  53.017 -52.185  1.00  0.00    -0.026 A 
HETATM   15  C   UNL     1     -40.778  51.926 -54.329  1.00  0.00     0.012 A 
HETATM   16  C   UNL     1     -40.788  54.054 -51.302  1.00  0.00     0.013 A 
HETATM   17  C   UNL     1     -39.523  52.034 -51.846  1.00  0.00     0.012 A 
HETATM   18  C   UNL     1     -41.708  55.042 -51.666  1.00  0.00     0.011 A 
HETATM   19  C   UNL     1     -39.209  51.010 -52.738  1.00  0.00     0.001 A 
HETATM   20  C   UNL     1     -39.839  50.953 -53.979  1.00  0.00     0.001 A 
ENDBRANCH   6  11
ENDBRANCH   1   2
BRANCH   1  21
HETATM   21  C   UNL     1     -42.158  60.400 -54.956  1.00  0.00     0.240 C 
HETATM   22  N   UNL     1     -41.611  60.003 -56.171  1.00  0.00    -0.325 N 
HETATM   23  H   UNL     1     -40.697  59.565 -56.119  1.00  0.00     0.169 HD
HETATM   24  O   UNL     1     -42.905  61.362 -54.800  1.00  0.00    -0.271 OA
BRANCH  22  25
HETATM   25  C   UNL     1     -42.007  60.446 -57.450  1.00  0.00     0.050 A 
HETATM   26  C   UNL     1     -43.048  59.910 -58.220  1.00  0.00     0.058 A 
HETATM   27  C   UNL     1     -43.321  60.422 -59.502  1.00  0.00     0.019 A 
HETATM   28  C   UNL     1     -42.560  61.468 -60.022  1.00  0.00     0.001 A 
HETATM   29  C   UNL     1     -41.510  61.990 -59.275  1.00  0.00     0.002 A 
HETATM   30  C   UNL     1     -41.229  61.475 -58.006  1.00  0.00     0.030 A 
BRANCH  26  31
HETATM   31  C   UNL     1     -43.755  58.654 -57.899  1.00  0.00     0.254 C 
HETATM   32  N   UNL     1     -43.078  57.511 -58.247  1.00  0.00    -0.351 N 
HETATM   33  H   UNL     1     -42.533  57.591 -59.102  1.00  0.00     0.163 HD
HETATM   34  O   UNL     1     -44.809  58.694 -57.280  1.00  0.00    -0.268 OA
BRANCH  32  35
HETATM   35  C   UNL     1     -43.678  56.220 -58.009  1.00  0.00     0.187 C 
BRANCH  35  36
HETATM   36  C   UNL     1     -44.359  55.788 -59.255  1.00  0.00     0.070 A 
HETATM   37  O   UNL     1     -45.452  56.507 -59.644  1.00  0.00    -0.325 OA
HETATM   38  C   UNL     1     -45.899  55.954 -60.801  1.00  0.00     0.142 A 
HETATM   39  C   UNL     1     -45.110  54.889 -61.164  1.00  0.00     0.027 A 
HETATM   40  C   UNL     1     -44.116  54.777 -60.164  1.00  0.00     0.036 A 
ENDBRANCH  35  36
ENDBRANCH  32  35
ENDBRANCH  26  31
ENDBRANCH  22  25
ENDBRANCH   1  21
TORSDOF 7
ENDMDL
MODEL 9
REMARK VINA RESULT:      -8.6      3.919      7.744
REMARK  7 active torsions:
REMARK  status: ('A' for Active; 'I' for Inactive)
REMARK    1  A    between atoms: C_2  and  C_3 
REMARK    2  A    between atoms: N_16  and  C_17 
REMARK    3  A    between atoms: C_17  and  C_18 
REMARK       I    between atoms: C_18  and  N_19 
REMARK    4  A    between atoms: N_19  and  C_20 
REMARK    5  A    between atoms: C_21  and  C_22 
REMARK       I    between atoms: C_22  and  N_23 
REMARK    6  A    between atoms: N_23  and  C_24 
REMARK    7  A    between atoms: C_24  and  C_25 
ROOT
HETATM    1  C   UNL     1     -43.622  56.260 -55.001  1.00  0.00     0.240 C 
ENDROOT
BRANCH   1   2
HETATM    2  N   UNL     1     -43.414  56.931 -56.260  1.00  0.00    -0.259 N 
HETATM    3  C   UNL     1     -43.534  58.272 -56.438  1.00  0.00     0.326 A 
HETATM    4  N   UNL     1     -43.509  58.546 -57.785  1.00  0.00    -0.321 N 
HETATM    5  O   UNL     1     -43.723  59.116 -55.577  1.00  0.00    -0.247 OA
HETATM    6  C   UNL     1     -43.459  57.343 -58.595  1.00  0.00     0.140 A 
HETATM    7  H   UNL     1     -43.708  59.472 -58.137  1.00  0.00     0.165 HD
HETATM    8  C   UNL     1     -42.140  57.321 -59.370  1.00  0.00     0.054 C 
HETATM    9  C   UNL     1     -43.396  56.283 -57.465  1.00  0.00     0.261 A 
HETATM   10  O   UNL     1     -43.394  55.069 -57.622  1.00  0.00    -0.270 OA
BRANCH   6  11
HETATM   11  C   UNL     1     -44.742  57.173 -59.411  1.00  0.00    -0.020 A 
HETATM   12  C   UNL     1     -45.612  58.247 -59.680  1.00  0.00     0.022 A 
HETATM   13  C   UNL     1     -46.740  58.100 -60.512  1.00  0.00    -0.025 A 
HETATM   14  C   UNL     1     -47.017  56.845 -61.092  1.00  0.00    -0.026 A 
HETATM   15  C   UNL     1     -47.590  59.183 -60.795  1.00  0.00     0.012 A 
HETATM   16  C   UNL     1     -46.172  55.765 -60.812  1.00  0.00     0.013 A 
HETATM   17  C   UNL     1     -48.124  56.705 -61.946  1.00  0.00     0.012 A 
HETATM   18  C   UNL     1     -45.057  55.927 -59.984  1.00  0.00     0.011 A 
HETATM   19  C   UNL     1     -48.953  57.792 -62.222  1.00  0.00     0.001 A 
HETATM   20  C   UNL     1     -48.688  59.030 -61.644  1.00  0.00     0.001 A 
ENDBRANCH   6  11
ENDBRANCH   1   2
BRANCH   1  21
HETATM   21  C   UNL     1     -42.347  55.719 -54.353  1.00  0.00     0.240 C 
HETATM   22  N   UNL     1     -42.562  54.452 -53.822  1.00  0.00    -0.325 N 
HETATM   23  H   UNL     1     -43.516  54.252 -53.539  1.00  0.00     0.169 HD
HETATM   24  O   UNL     1     -41.302  56.356 -54.253  1.00  0.00    -0.271 OA
BRANCH  22  25
HETATM   25  C   UNL     1     -41.577  53.577 -53.319  1.00  0.00     0.050 A 
HETATM   26  C   UNL     1     -41.105  53.541 -51.999  1.00  0.00     0.058 A 
HETATM   27  C   UNL     1     -40.090  52.639 -51.632  1.00  0.00     0.019 A 
HETATM   28  C   UNL     1     -39.541  51.771 -52.574  1.00  0.00     0.001 A 
HETATM   29  C   UNL     1     -39.985  51.817 -53.891  1.00  0.00     0.002 A 
HETATM   30  C   UNL     1     -40.986  52.720 -54.261  1.00  0.00     0.030 A 
BRANCH  26  31
HETATM   31  C   UNL     1     -41.417  54.562 -50.980  1.00  0.00     0.254 C 
HETATM   32  N   UNL     1     -40.909  55.809 -51.245  1.00  0.00    -0.351 N 
HETATM   33  H   UNL     1     -40.004  55.803 -51.708  1.00  0.00     0.163 HD
HETATM   34  O   UNL     1     -42.158  54.280 -50.047  1.00  0.00    -0.268 OA
BRANCH  32  35
HETATM   35  C   UNL     1     -41.123  56.887 -50.309  1.00  0.00     0.187 C 
BRANCH  35  36
HETATM   36  C   UNL     1     -41.633  58.060 -51.061  1.00  0.00     0.070 A 
HETATM   37  O   UNL     1     -42.967  58.080 -51.348  1.00  0.00    -0.325 OA
HETATM   38  C   UNL     1     -43.213  59.236 -52.016  1.00  0.00     0.142 A 
HETATM   39  C   UNL     1     -42.056  59.963 -52.165  1.00  0.00     0.027 A 
HETATM   40  C   UNL     1     -41.032  59.203 -51.552  1.00  0.00     0.036 A 
ENDBRANCH  35  36
ENDBRANCH  32  35
ENDBRANCH  26  31
ENDBRANCH  22  25
ENDBRANCH   1  21
TORSDOF 7
ENDMDL
MODEL 10
REMARK VINA RESULT:      -8.5      2.512      5.446
REMARK  7 active torsions:
REMARK  status: ('A' for Active; 'I' for Inactive)
REMARK    1  A    between atoms: C_2  and  C_3 
REMARK    2  A    between atoms: N_16  and  C_17 
REMARK    3  A    between atoms: C_17  and  C_18 
REMARK       I    between atoms: C_18  and  N_19 
REMARK    4  A    between atoms: N_19  and  C_20 
REMARK    5  A    between atoms: C_21  and  C_22 
REMARK       I    between atoms: C_22  and  N_23 
REMARK    6  A    between atoms: N_23  and  C_24 
REMARK    7  A    between atoms: C_24  and  C_25 
ROOT
HETATM    1  C   UNL     1     -44.764  57.160 -51.168  1.00  0.00     0.240 C 
ENDROOT
BRANCH   1   2
HETATM    2  N   UNL     1     -43.688  56.910 -52.094  1.00  0.00    -0.259 N 
HETATM    3  C   UNL     1     -43.866  56.578 -53.399  1.00  0.00     0.326 A 
HETATM    4  N   UNL     1     -42.660  56.179 -53.925  1.00  0.00    -0.321 N 
HETATM    5  O   UNL     1     -44.919  56.540 -54.013  1.00  0.00    -0.247 OA
HETATM    6  C   UNL     1     -41.605  56.144 -52.930  1.00  0.00     0.140 A 
HETATM    7  H   UNL     1     -42.598  55.773 -54.849  1.00  0.00     0.165 HD
HETATM    8  C   UNL     1     -40.538  57.175 -53.301  1.00  0.00     0.054 C 
HETATM    9  C   UNL     1     -42.400  56.661 -51.704  1.00  0.00     0.261 A 
HETATM   10  O   UNL     1     -41.967  56.769 -50.564  1.00  0.00    -0.270 OA
BRANCH   6  11
HETATM   11  C   UNL     1     -41.124  54.711 -52.686  1.00  0.00    -0.020 A 
HETATM   12  C   UNL     1     -41.129  53.732 -53.697  1.00  0.00     0.022 A 
HETATM   13  C   UNL     1     -40.596  52.443 -53.488  1.00  0.00    -0.025 A 
HETATM   14  C   UNL     1     -40.046  52.115 -52.231  1.00  0.00    -0.026 A 
HETATM   15  C   UNL     1     -40.582  51.480 -54.510  1.00  0.00     0.012 A 
HETATM   16  C   UNL     1     -40.059  53.073 -51.211  1.00  0.00     0.013 A 
HETATM   17  C   UNL     1     -39.487  50.842 -52.030  1.00  0.00     0.012 A 
HETATM   18  C   UNL     1     -40.591  54.346 -51.435  1.00  0.00     0.011 A 
HETATM   19  C   UNL     1     -39.475  49.899 -53.058  1.00  0.00     0.001 A 
HETATM   20  C   UNL     1     -40.025  50.217 -54.297  1.00  0.00     0.001 A 
ENDBRANCH   6  11
ENDBRANCH   1   2
BRANCH   1  21
HETATM   21  C   UNL     1     -45.016  58.638 -50.873  1.00  0.00     0.240 C 
HETATM   22  N   UNL     1     -43.922  59.410 -51.246  1.00  0.00    -0.325 N 
HETATM   23  H   UNL     1     -43.025  58.935 -51.231  1.00  0.00     0.169 HD
HETATM   24  O   UNL     1     -46.021  59.066 -50.311  1.00  0.00    -0.271 OA
BRANCH  22  25
HETATM   25  C   UNL     1     -43.869  60.818 -51.295  1.00  0.00     0.050 A 
HETATM   26  C   UNL     1     -44.391  61.626 -52.315  1.00  0.00     0.058 A 
HETATM   27  C   UNL     1     -44.243  63.024 -52.261  1.00  0.00     0.019 A 
HETATM   28  C   UNL     1     -43.575  63.623 -51.194  1.00  0.00     0.001 A 
HETATM   29  C   UNL     1     -43.032  62.829 -50.191  1.00  0.00     0.002 A 
HETATM   30  C   UNL     1     -43.168  61.438 -50.247  1.00  0.00     0.030 A 
BRANCH  26  31
HETATM   31  C   UNL     1     -44.890  61.111 -53.605  1.00  0.00     0.254 C 
HETATM   32  N   UNL     1     -44.155  61.498 -54.698  1.00  0.00    -0.351 N 
HETATM   33  H   UNL     1     -43.768  62.436 -54.632  1.00  0.00     0.163 HD
HETATM   34  O   UNL     1     -45.829  60.326 -53.622  1.00  0.00    -0.268 OA
BRANCH  32  35
HETATM   35  C   UNL     1     -44.558  61.081 -56.020  1.00  0.00     0.187 C 
BRANCH  35  36
HETATM   36  C   UNL     1     -43.805  59.850 -56.368  1.00  0.00     0.070 A 
HETATM   37  O   UNL     1     -44.534  58.776 -56.790  1.00  0.00    -0.325 OA
HETATM   38  C   UNL     1     -43.652  57.781 -57.066  1.00  0.00     0.142 A 
HETATM   39  C   UNL     1     -42.364  58.198 -56.827  1.00  0.00     0.027 A 
HETATM   40  C   UNL     1     -42.460  59.534 -56.372  1.00  0.00     0.036 A 
ENDBRANCH  35  36
ENDBRANCH  32  35
ENDBRANCH  26  31
ENDBRANCH  22  25
ENDBRANCH   1  21
TORSDOF 7
ENDMDL
