MODEL 1
REMARK VINA RESULT:      -9.1      0.000      0.000
REMARK  6 active torsions:
REMARK  status: ('A' for Active; 'I' for Inactive)
REMARK    1  A    between atoms: C_2  and  O_3 
REMARK    2  A    between atoms: C_2  and  C_4 
REMARK    3  A    between atoms: C_7  and  N_8 
REMARK       I    between atoms: N_8  and  C_9 
REMARK    4  A    between atoms: C_9  and  C_10 
REMARK    5  A    between atoms: C_13  and  C_14 
REMARK    6  A    between atoms: C_19  and  C_20 
ROOT
HETATM    1  C   UNL     1     -42.810  56.443 -55.754  1.00  0.00     0.096 A 
HETATM    2  C   UNL     1     -42.660  56.670 -57.110  1.00  0.00     0.138 A 
HETATM    3  N   UNL     1     -42.874  58.016 -57.295  1.00  0.00    -0.240 N 
HETATM    4  C   UNL     1     -42.871  58.678 -58.589  1.00  0.00     0.221 C 
HETATM    5  C   UNL     1     -42.223  57.772 -59.654  1.00  0.00     0.068 C 
HETATM    6  C   UNL     1     -42.697  56.320 -59.527  1.00  0.00     0.143 C 
HETATM    7  N   UNL     1     -42.400  55.842 -58.164  1.00  0.00    -0.363 N 
HETATM    8  N   UNL     1     -43.304  58.641 -56.188  1.00  0.00    -0.181 NA
HETATM    9  C   UNL     1     -43.236  57.693 -55.248  1.00  0.00     0.160 A 
HETATM   10  H   UNL     1     -42.648  54.856 -58.062  1.00  0.00     0.162 HD
ENDROOT
BRANCH   1  11
HETATM   11  C   UNL     1     -42.647  55.204 -55.009  1.00  0.00     0.261 C 
HETATM   12  N   UNL     1     -41.393  55.081 -54.442  1.00  0.00    -0.323 N 
HETATM   13  H   UNL     1     -40.815  55.915 -54.484  1.00  0.00     0.169 HD
HETATM   14  O   UNL     1     -43.567  54.402 -54.917  1.00  0.00    -0.267 OA
BRANCH  12  15
HETATM   15  C   UNL     1     -40.836  53.964 -53.796  1.00  0.00     0.035 A 
HETATM   16  C   UNL     1     -40.692  53.854 -52.413  1.00  0.00     0.030 A 
HETATM   17  C   UNL     1     -40.176  52.683 -51.846  1.00  0.00     0.012 A 
HETATM   18  C   UNL     1     -39.790  51.601 -52.650  1.00  0.00    -0.030 A 
HETATM   19  C   UNL     1     -39.930  51.720 -54.038  1.00  0.00     0.012 A 
HETATM   20  C   UNL     1     -40.446  52.890 -54.604  1.00  0.00     0.030 A 
BRANCH  18  21
HETATM   21  C   UNL     1     -39.284  50.326 -52.012  1.00  0.00     0.147 C 
HETATM   22  C   UNL     1     -39.878  50.132 -50.623  1.00  0.00     0.044 C 
BRANCH  21  23
HETATM   23  O   UNL     1     -39.626  49.204 -52.825  1.00  0.00    -0.391 OA
HETATM   24  H   UNL     1     -38.804  48.891 -53.237  1.00  0.00     0.210 HD
ENDBRANCH  21  23
ENDBRANCH  18  21
ENDBRANCH  12  15
ENDBRANCH   1  11
BRANCH   4  25
HETATM   25  C   UNL     1     -42.137  60.000 -58.538  1.00  0.00     0.409 C 
HETATM   26  F   UNL     1     -41.051  59.954 -57.733  1.00  0.00    -0.169 F 
HETATM   27  F   UNL     1     -41.681  60.317 -59.782  1.00  0.00    -0.169 F 
HETATM   28  F   UNL     1     -42.908  61.034 -58.149  1.00  0.00    -0.169 F 
ENDBRANCH   4  25
BRANCH   6  29
HETATM   29  C   UNL     1     -44.124  56.160 -59.954  1.00  0.00     0.075 A 
HETATM   30  O   UNL     1     -44.330  55.469 -61.114  1.00  0.00    -0.325 OA
HETATM   31  C   UNL     1     -45.670  55.432 -61.325  1.00  0.00     0.142 A 
HETATM   32  C   UNL     1     -46.333  56.091 -60.318  1.00  0.00     0.027 A 
HETATM   33  C   UNL     1     -45.336  56.562 -59.430  1.00  0.00     0.037 A 
ENDBRANCH   6  29
TORSDOF 6
ENDMDL
MODEL 2
REMARK VINA RESULT:      -8.8      1.545      1.891
REMARK  6 active torsions:
REMARK  status: ('A' for Active; 'I' for Inactive)
REMARK    1  A    between atoms: C_2  and  O_3 
REMARK    2  A    between atoms: C_2  and  C_4 
REMARK    3  A    between atoms: C_7  and  N_8 
REMARK       I    between atoms: N_8  and  C_9 
REMARK    4  A    between atoms: C_9  and  C_10 
REMARK    5  A    between atoms: C_13  and  C_14 
REMARK    6  A    between atoms: C_19  and  C_20 
ROOT
HETATM    1  C   UNL     1     -42.707  56.647 -55.168  1.00  0.00     0.096 A 
HETATM    2  C   UNL     1     -42.843  57.100 -56.467  1.00  0.00     0.138 A 
HETATM    3  N   UNL     1     -44.000  57.845 -56.490  1.00  0.00    -0.240 N 
HETATM    4  C   UNL     1     -44.555  58.463 -57.682  1.00  0.00     0.221 C 
HETATM    5  C   UNL     1     -43.500  58.508 -58.805  1.00  0.00     0.068 C 
HETATM    6  C   UNL     1     -42.723  57.191 -58.904  1.00  0.00     0.143 C 
HETATM    7  N   UNL     1     -42.103  56.906 -57.597  1.00  0.00    -0.363 N 
HETATM    8  N   UNL     1     -44.698  57.772 -55.347  1.00  0.00    -0.181 NA
HETATM    9  C   UNL     1     -43.899  57.071 -54.536  1.00  0.00     0.160 A 
HETATM   10  H   UNL     1     -41.525  56.064 -57.644  1.00  0.00     0.162 HD
ENDROOT
BRANCH   1  11
HETATM   11  C   UNL     1     -41.637  55.855 -54.581  1.00  0.00     0.261 C 
HETATM   12  N   UNL     1     -41.960  54.516 -54.470  1.00  0.00    -0.323 N 
HETATM   13  H   UNL     1     -42.815  54.236 -54.940  1.00  0.00     0.169 HD
HETATM   14  O   UNL     1     -40.578  56.375 -54.257  1.00  0.00    -0.267 OA
BRANCH  12  15
HETATM   15  C   UNL     1     -41.243  53.500 -53.816  1.00  0.00     0.035 A 
HETATM   16  C   UNL     1     -40.938  53.513 -52.455  1.00  0.00     0.030 A 
HETATM   17  C   UNL     1     -40.265  52.433 -51.870  1.00  0.00     0.012 A 
HETATM   18  C   UNL     1     -39.881  51.323 -52.634  1.00  0.00    -0.030 A 
HETATM   19  C   UNL     1     -40.184  51.318 -54.001  1.00  0.00     0.012 A 
HETATM   20  C   UNL     1     -40.856  52.397 -54.585  1.00  0.00     0.030 A 
BRANCH  18  21
HETATM   21  C   UNL     1     -39.203  50.145 -51.970  1.00  0.00     0.147 C 
HETATM   22  C   UNL     1     -39.766  49.898 -50.576  1.00  0.00     0.044 C 
BRANCH  21  23
HETATM   23  O   UNL     1     -39.382  48.969 -52.758  1.00  0.00    -0.391 OA
HETATM   24  H   UNL     1     -39.860  49.236 -53.561  1.00  0.00     0.210 HD
ENDBRANCH  21  23
ENDBRANCH  18  21
ENDBRANCH  12  15
ENDBRANCH   1  11
BRANCH   4  25
HETATM   25  C   UNL     1     -45.054  59.864 -57.403  1.00  0.00     0.409 C 
HETATM   26  F   UNL     1     -46.280  59.868 -56.830  1.00  0.00    -0.169 F 
HETATM   27  F   UNL     1     -44.217  60.481 -56.525  1.00  0.00    -0.169 F 
HETATM   28  F   UNL     1     -45.096  60.653 -58.496  1.00  0.00    -0.169 F 
ENDBRANCH   4  25
BRANCH   6  29
HETATM   29  C   UNL     1     -43.569  56.085 -59.456  1.00  0.00     0.075 A 
HETATM   30  O   UNL     1     -44.061  56.275 -60.716  1.00  0.00    -0.325 OA
HETATM   31  C   UNL     1     -44.791  55.174 -61.030  1.00  0.00     0.142 A 
HETATM   32  C   UNL     1     -44.778  54.276 -59.990  1.00  0.00     0.027 A 
HETATM   33  C   UNL     1     -43.989  54.861 -58.972  1.00  0.00     0.037 A 
ENDBRANCH   6  29
TORSDOF 6
ENDMDL
MODEL 3
REMARK VINA RESULT:      -8.2      3.040      4.180
REMARK  6 active torsions:
REMARK  status: ('A' for Active; 'I' for Inactive)
REMARK    1  A    between atoms: C_2  and  O_3 
REMARK    2  A    between atoms: C_2  and  C_4 
REMARK    3  A    between atoms: C_7  and  N_8 
REMARK       I    between atoms: N_8  and  C_9 
REMARK    4  A    between atoms: C_9  and  C_10 
REMARK    5  A    between atoms: C_13  and  C_14 
REMARK    6  A    between atoms: C_19  and  C_20 
ROOT
HETATM    1  C   UNL     1     -43.501  56.067 -57.798  1.00  0.00     0.096 A 
HETATM    2  C   UNL     1     -44.174  57.161 -58.308  1.00  0.00     0.138 A 
HETATM    3  N   UNL     1     -44.828  56.714 -59.433  1.00  0.00    -0.240 N 
HETATM    4  C   UNL     1     -45.614  57.559 -60.316  1.00  0.00     0.221 C 
HETATM    5  C   UNL     1     -45.937  58.900 -59.630  1.00  0.00     0.068 C 
HETATM    6  C   UNL     1     -44.718  59.468 -58.896  1.00  0.00     0.143 C 
HETATM    7  N   UNL     1     -44.242  58.469 -57.922  1.00  0.00    -0.363 N 
HETATM    8  N   UNL     1     -44.498  55.458 -59.772  1.00  0.00    -0.181 NA
HETATM    9  C   UNL     1     -43.718  55.057 -58.764  1.00  0.00     0.160 A 
HETATM   10  H   UNL     1     -43.465  58.839 -57.370  1.00  0.00     0.162 HD
ENDROOT
BRANCH   1  11
HETATM   11  C   UNL     1     -42.691  55.969 -56.593  1.00  0.00     0.261 C 
HETATM   12  N   UNL     1     -42.665  54.692 -56.067  1.00  0.00    -0.323 N 
HETATM   13  H   UNL     1     -43.072  53.972 -56.656  1.00  0.00     0.169 HD
HETATM   14  O   UNL     1     -42.106  56.949 -56.151  1.00  0.00    -0.267 OA
BRANCH  12  15
HETATM   15  C   UNL     1     -42.123  54.267 -54.842  1.00  0.00     0.035 A 
HETATM   16  C   UNL     1     -42.755  54.434 -53.610  1.00  0.00     0.030 A 
HETATM   17  C   UNL     1     -42.172  53.933 -52.440  1.00  0.00     0.012 A 
HETATM   18  C   UNL     1     -40.944  53.258 -52.479  1.00  0.00    -0.030 A 
HETATM   19  C   UNL     1     -40.311  53.099 -53.718  1.00  0.00     0.012 A 
HETATM   20  C   UNL     1     -40.894  53.599 -54.886  1.00  0.00     0.030 A 
BRANCH  18  21
HETATM   21  C   UNL     1     -40.358  52.679 -51.211  1.00  0.00     0.147 C 
HETATM   22  C   UNL     1     -39.548  51.421 -51.502  1.00  0.00     0.044 C 
BRANCH  21  23
HETATM   23  O   UNL     1     -39.513  53.639 -50.579  1.00  0.00    -0.391 OA
HETATM   24  H   UNL     1     -39.618  53.523 -49.620  1.00  0.00     0.210 HD
ENDBRANCH  21  23
ENDBRANCH  18  21
ENDBRANCH  12  15
ENDBRANCH   1  11
BRANCH   4  25
HETATM   25  C   UNL     1     -46.902  56.884 -60.735  1.00  0.00     0.409 C 
HETATM   26  F   UNL     1     -47.509  56.252 -59.703  1.00  0.00    -0.169 F 
HETATM   27  F   UNL     1     -47.782  57.820 -61.184  1.00  0.00    -0.169 F 
HETATM   28  F   UNL     1     -46.750  56.000 -61.741  1.00  0.00    -0.169 F 
ENDBRANCH   4  25
BRANCH   6  29
HETATM   29  C   UNL     1     -43.675  59.967 -59.849  1.00  0.00     0.075 A 
HETATM   30  O   UNL     1     -44.133  60.660 -60.933  1.00  0.00    -0.325 OA
HETATM   31  C   UNL     1     -43.048  61.022 -61.664  1.00  0.00     0.142 A 
HETATM   32  C   UNL     1     -41.895  60.571 -61.068  1.00  0.00     0.027 A 
HETATM   33  C   UNL     1     -42.297  59.889 -59.894  1.00  0.00     0.037 A 
ENDBRANCH   6  29
TORSDOF 6
ENDMDL
MODEL 4
REMARK VINA RESULT:      -8.1      3.060      8.640
REMARK  6 active torsions:
REMARK  status: ('A' for Active; 'I' for Inactive)
REMARK    1  A    between atoms: C_2  and  O_3 
REMARK    2  A    between atoms: C_2  and  C_4 
REMARK    3  A    between atoms: C_7  and  N_8 
REMARK       I    between atoms: N_8  and  C_9 
REMARK    4  A    between atoms: C_9  and  C_10 
REMARK    5  A    between atoms: C_13  and  C_14 
REMARK    6  A    between atoms: C_19  and  C_20 
ROOT
HETATM    1  C   UNL     1     -43.157  57.686 -56.462  1.00  0.00     0.096 A 
HETATM    2  C   UNL     1     -43.289  56.835 -55.380  1.00  0.00     0.138 A 
HETATM    3  N   UNL     1     -42.729  57.493 -54.309  1.00  0.00    -0.240 N 
HETATM    4  C   UNL     1     -42.600  56.930 -52.976  1.00  0.00     0.221 C 
HETATM    5  C   UNL     1     -43.505  55.691 -52.826  1.00  0.00     0.068 C 
HETATM    6  C   UNL     1     -43.434  54.786 -54.060  1.00  0.00     0.143 C 
HETATM    7  N   UNL     1     -43.799  55.576 -55.250  1.00  0.00    -0.363 N 
HETATM    8  N   UNL     1     -42.107  58.631 -54.654  1.00  0.00    -0.181 NA
HETATM    9  C   UNL     1     -42.394  58.762 -55.952  1.00  0.00     0.160 A 
HETATM   10  H   UNL     1     -43.821  54.987 -56.086  1.00  0.00     0.162 HD
ENDROOT
BRANCH   1  11
HETATM   11  C   UNL     1     -43.620  57.508 -57.829  1.00  0.00     0.261 C 
HETATM   12  N   UNL     1     -44.988  57.652 -57.955  1.00  0.00    -0.323 N 
HETATM   13  H   UNL     1     -45.464  58.006 -57.131  1.00  0.00     0.169 HD
HETATM   14  O   UNL     1     -42.828  57.275 -58.733  1.00  0.00    -0.267 OA
BRANCH  12  15
HETATM   15  C   UNL     1     -45.790  57.396 -59.080  1.00  0.00     0.035 A 
HETATM   16  C   UNL     1     -45.832  56.171 -59.746  1.00  0.00     0.030 A 
HETATM   17  C   UNL     1     -46.699  55.981 -60.828  1.00  0.00     0.012 A 
HETATM   18  C   UNL     1     -47.539  57.014 -61.268  1.00  0.00    -0.030 A 
HETATM   19  C   UNL     1     -47.488  58.244 -60.601  1.00  0.00     0.012 A 
HETATM   20  C   UNL     1     -46.621  58.432 -59.520  1.00  0.00     0.030 A 
BRANCH  18  21
HETATM   21  C   UNL     1     -48.506  56.771 -62.406  1.00  0.00     0.147 C 
HETATM   22  C   UNL     1     -49.297  58.031 -62.736  1.00  0.00     0.044 C 
BRANCH  21  23
HETATM   23  O   UNL     1     -47.797  56.350 -63.569  1.00  0.00    -0.391 OA
HETATM   24  H   UNL     1     -47.960  55.398 -63.673  1.00  0.00     0.210 HD
ENDBRANCH  21  23
ENDBRANCH  18  21
ENDBRANCH  12  15
ENDBRANCH   1  11
BRANCH   4  25
HETATM   25  C   UNL     1     -42.951  57.942 -51.906  1.00  0.00     0.409 C 
HETATM   26  F   UNL     1     -43.965  58.754 -52.281  1.00  0.00    -0.169 F 
HETATM   27  F   UNL     1     -43.371  57.293 -50.785  1.00  0.00    -0.169 F 
HETATM   28  F   UNL     1     -41.911  58.711 -51.526  1.00  0.00    -0.169 F 
ENDBRANCH   4  25
BRANCH   6  29
HETATM   29  C   UNL     1     -42.118  54.074 -54.155  1.00  0.00     0.075 A 
HETATM   30  O   UNL     1     -41.742  53.358 -53.055  1.00  0.00    -0.325 OA
HETATM   31  C   UNL     1     -40.539  52.795 -53.337  1.00  0.00     0.142 A 
HETATM   32  C   UNL     1     -40.133  53.139 -54.604  1.00  0.00     0.027 A 
HETATM   33  C   UNL     1     -41.152  53.965 -55.136  1.00  0.00     0.037 A 
ENDBRANCH   6  29
TORSDOF 6
ENDMDL
MODEL 5
REMARK VINA RESULT:      -7.9      3.903      5.098
REMARK  6 active torsions:
REMARK  status: ('A' for Active; 'I' for Inactive)
REMARK    1  A    between atoms: C_2  and  O_3 
REMARK    2  A    between atoms: C_2  and  C_4 
REMARK    3  A    between atoms: C_7  and  N_8 
REMARK       I    between atoms: N_8  and  C_9 
REMARK    4  A    between atoms: C_9  and  C_10 
REMARK    5  A    between atoms: C_13  and  C_14 
REMARK    6  A    between atoms: C_19  and  C_20 
ROOT
HETATM    1  C   UNL     1     -43.450  56.836 -51.760  1.00  0.00     0.096 A 
HETATM    2  C   UNL     1     -42.852  57.958 -52.304  1.00  0.00     0.138 A 
HETATM    3  N   UNL     1     -43.740  58.991 -52.117  1.00  0.00    -0.240 N 
HETATM    4  C   UNL     1     -43.535  60.348 -52.595  1.00  0.00     0.221 C 
HETATM    5  C   UNL     1     -42.058  60.564 -52.979  1.00  0.00     0.068 C 
HETATM    6  C   UNL     1     -41.497  59.372 -53.762  1.00  0.00     0.143 C 
HETATM    7  N   UNL     1     -41.667  58.151 -52.954  1.00  0.00    -0.363 N 
HETATM    8  N   UNL     1     -44.927  58.588 -51.637  1.00  0.00    -0.181 NA
HETATM    9  C   UNL     1     -44.739  57.288 -51.393  1.00  0.00     0.160 A 
HETATM   10  H   UNL     1     -41.248  57.344 -53.422  1.00  0.00     0.162 HD
ENDROOT
BRANCH   1  11
HETATM   11  C   UNL     1     -42.928  55.483 -51.645  1.00  0.00     0.261 C 
HETATM   12  N   UNL     1     -42.041  55.164 -52.655  1.00  0.00    -0.323 N 
HETATM   13  H   UNL     1     -41.754  55.942 -53.242  1.00  0.00     0.169 HD
HETATM   14  O   UNL     1     -43.265  54.758 -50.719  1.00  0.00    -0.267 OA
BRANCH  12  15
HETATM   15  C   UNL     1     -41.471  53.914 -52.949  1.00  0.00     0.035 A 
HETATM   16  C   UNL     1     -41.706  53.208 -54.129  1.00  0.00     0.030 A 
HETATM   17  C   UNL     1     -41.056  51.991 -54.368  1.00  0.00     0.012 A 
HETATM   18  C   UNL     1     -40.161  51.456 -53.431  1.00  0.00    -0.030 A 
HETATM   19  C   UNL     1     -39.934  52.165 -52.246  1.00  0.00     0.012 A 
HETATM   20  C   UNL     1     -40.584  53.380 -52.008  1.00  0.00     0.030 A 
BRANCH  18  21
HETATM   21  C   UNL     1     -39.429  50.167 -53.734  1.00  0.00     0.147 C 
HETATM   22  C   UNL     1     -39.410  49.245 -52.520  1.00  0.00     0.044 C 
BRANCH  21  23
HETATM   23  O   UNL     1     -40.060  49.490 -54.820  1.00  0.00    -0.391 OA
HETATM   24  H   UNL     1     -39.964  50.059 -55.602  1.00  0.00     0.210 HD
ENDBRANCH  21  23
ENDBRANCH  18  21
ENDBRANCH  12  15
ENDBRANCH   1  11
BRANCH   4  25
HETATM   25  C   UNL     1     -43.941  61.373 -51.558  1.00  0.00     0.409 C 
HETATM   26  F   UNL     1     -43.605  60.995 -50.304  1.00  0.00    -0.169 F 
HETATM   27  F   UNL     1     -43.288  62.544 -51.795  1.00  0.00    -0.169 F 
HETATM   28  F   UNL     1     -45.255  61.668 -51.573  1.00  0.00    -0.169 F 
ENDBRANCH   4  25
BRANCH   6  29
HETATM   29  C   UNL     1     -42.065  59.297 -55.147  1.00  0.00     0.075 A 
HETATM   30  O   UNL     1     -41.662  60.271 -56.016  1.00  0.00    -0.325 OA
HETATM   31  C   UNL     1     -42.279  60.029 -57.201  1.00  0.00     0.142 A 
HETATM   32  C   UNL     1     -43.075  58.913 -57.109  1.00  0.00     0.027 A 
HETATM   33  C   UNL     1     -42.938  58.437 -55.783  1.00  0.00     0.037 A 
ENDBRANCH   6  29
TORSDOF 6
ENDMDL
MODEL 6
REMARK VINA RESULT:      -7.9      1.887      2.458
REMARK  6 active torsions:
REMARK  status: ('A' for Active; 'I' for Inactive)
REMARK    1  A    between atoms: C_2  and  O_3 
REMARK    2  A    between atoms: C_2  and  C_4 
REMARK    3  A    between atoms: C_7  and  N_8 
REMARK       I    between atoms: N_8  and  C_9 
REMARK    4  A    between atoms: C_9  and  C_10 
REMARK    5  A    between atoms: C_13  and  C_14 
REMARK    6  A    between atoms: C_19  and  C_20 
ROOT
HETATM    1  C   UNL     1     -42.500  57.060 -56.741  1.00  0.00     0.096 A 
HETATM    2  C   UNL     1     -43.275  57.237 -57.872  1.00  0.00     0.138 A 
HETATM    3  N   UNL     1     -42.833  58.402 -58.456  1.00  0.00    -0.240 N 
HETATM    4  C   UNL     1     -43.418  58.997 -59.646  1.00  0.00     0.221 C 
HETATM    5  C   UNL     1     -44.312  57.975 -60.374  1.00  0.00     0.068 C 
HETATM    6  C   UNL     1     -45.186  57.186 -59.393  1.00  0.00     0.143 C 
HETATM    7  N   UNL     1     -44.312  56.527 -58.404  1.00  0.00    -0.363 N 
HETATM    8  N   UNL     1     -41.945  59.067 -57.703  1.00  0.00    -0.181 NA
HETATM    9  C   UNL     1     -41.721  58.238 -56.679  1.00  0.00     0.160 A 
HETATM   10  H   UNL     1     -44.859  55.942 -57.768  1.00  0.00     0.162 HD
ENDROOT
BRANCH   1  11
HETATM   11  C   UNL     1     -42.514  55.965 -55.783  1.00  0.00     0.261 C 
HETATM   12  N   UNL     1     -41.258  55.666 -55.292  1.00  0.00    -0.323 N 
HETATM   13  H   UNL     1     -40.529  56.328 -55.536  1.00  0.00     0.169 HD
HETATM   14  O   UNL     1     -43.564  55.418 -55.472  1.00  0.00    -0.267 OA
BRANCH  12  15
HETATM   15  C   UNL     1     -40.876  54.582 -54.483  1.00  0.00     0.035 A 
HETATM   16  C   UNL     1     -40.338  53.393 -54.975  1.00  0.00     0.030 A 
HETATM   17  C   UNL     1     -39.933  52.381 -54.096  1.00  0.00     0.012 A 
HETATM   18  C   UNL     1     -40.060  52.538 -52.709  1.00  0.00    -0.030 A 
HETATM   19  C   UNL     1     -40.606  53.731 -52.222  1.00  0.00     0.012 A 
HETATM   20  C   UNL     1     -41.011  54.741 -53.100  1.00  0.00     0.030 A 
BRANCH  18  21
HETATM   21  C   UNL     1     -39.566  51.454 -51.776  1.00  0.00     0.147 C 
HETATM   22  C   UNL     1     -40.277  51.520 -50.430  1.00  0.00     0.044 C 
BRANCH  21  23
HETATM   23  O   UNL     1     -39.789  50.171 -52.357  1.00  0.00    -0.391 OA
HETATM   24  H   UNL     1     -39.556  50.240 -53.298  1.00  0.00     0.210 HD
ENDBRANCH  21  23
ENDBRANCH  18  21
ENDBRANCH  12  15
ENDBRANCH   1  11
BRANCH   4  25
HETATM   25  C   UNL     1     -42.355  59.504 -60.597  1.00  0.00     0.409 C 
HETATM   26  F   UNL     1     -41.650  60.534 -60.076  1.00  0.00    -0.169 F 
HETATM   27  F   UNL     1     -41.457  58.511 -60.848  1.00  0.00    -0.169 F 
HETATM   28  F   UNL     1     -42.837  59.884 -61.796  1.00  0.00    -0.169 F 
ENDBRANCH   4  25
BRANCH   6  29
HETATM   29  C   UNL     1     -46.272  58.036 -58.806  1.00  0.00     0.075 A 
HETATM   30  O   UNL     1     -46.845  58.945 -59.649  1.00  0.00    -0.325 OA
HETATM   31  C   UNL     1     -47.794  59.606 -58.939  1.00  0.00     0.142 A 
HETATM   32  C   UNL     1     -47.842  59.137 -57.648  1.00  0.00     0.027 A 
HETATM   33  C   UNL     1     -46.860  58.121 -57.560  1.00  0.00     0.037 A 
ENDBRANCH   6  29
TORSDOF 6
ENDMDL
MODEL 7
REMARK VINA RESULT:      -7.9      1.733      2.202
REMARK  6 active torsions:
REMARK  status: ('A' for Active; 'I' for Inactive)
REMARK    1  A    between atoms: C_2  and  O_3 
REMARK    2  A    between atoms: C_2  and  C_4 
REMARK    3  A    between atoms: C_7  and  N_8 
REMARK       I    between atoms: N_8  and  C_9 
REMARK    4  A    between atoms: C_9  and  C_10 
REMARK    5  A    between atoms: C_13  and  C_14 
REMARK    6  A    between atoms: C_19  and  C_20 
ROOT
HETATM    1  C   UNL     1     -42.868  58.177 -56.171  1.00  0.00     0.096 A 
HETATM    2  C   UNL     1     -42.806  58.075 -57.549  1.00  0.00     0.138 A 
HETATM    3  N   UNL     1     -43.761  58.938 -58.036  1.00  0.00    -0.240 N 
HETATM    4  C   UNL     1     -44.077  59.102 -59.445  1.00  0.00     0.221 C 
HETATM    5  C   UNL     1     -42.964  58.494 -60.320  1.00  0.00     0.068 C 
HETATM    6  C   UNL     1     -42.499  57.136 -59.782  1.00  0.00     0.143 C 
HETATM    7  N   UNL     1     -42.052  57.306 -58.387  1.00  0.00    -0.363 N 
HETATM    8  N   UNL     1     -44.535  59.466 -57.077  1.00  0.00    -0.181 NA
HETATM    9  C   UNL     1     -43.974  59.029 -55.946  1.00  0.00     0.160 A 
HETATM   10  H   UNL     1     -41.678  56.430 -58.016  1.00  0.00     0.162 HD
ENDROOT
BRANCH   1  11
HETATM   11  C   UNL     1     -42.048  57.519 -55.167  1.00  0.00     0.261 C 
HETATM   12  N   UNL     1     -42.036  56.144 -55.302  1.00  0.00    -0.323 N 
HETATM   13  H   UNL     1     -42.461  55.789 -56.153  1.00  0.00     0.169 HD
HETATM   14  O   UNL     1     -41.442  58.171 -54.326  1.00  0.00    -0.267 OA
BRANCH  12  15
HETATM   15  C   UNL     1     -41.488  55.188 -54.428  1.00  0.00     0.035 A 
HETATM   16  C   UNL     1     -40.635  54.161 -54.831  1.00  0.00     0.030 A 
HETATM   17  C   UNL     1     -40.090  53.282 -53.888  1.00  0.00     0.012 A 
HETATM   18  C   UNL     1     -40.390  53.410 -52.525  1.00  0.00    -0.030 A 
HETATM   19  C   UNL     1     -41.252  54.439 -52.127  1.00  0.00     0.012 A 
HETATM   20  C   UNL     1     -41.797  55.317 -53.070  1.00  0.00     0.030 A 
BRANCH  18  21
HETATM   21  C   UNL     1     -39.748  52.482 -51.518  1.00  0.00     0.147 C 
HETATM   22  C   UNL     1     -40.486  52.519 -50.185  1.00  0.00     0.044 C 
BRANCH  21  23
HETATM   23  O   UNL     1     -39.752  51.144 -52.014  1.00  0.00    -0.391 OA
HETATM   24  H   UNL     1     -40.507  50.692 -51.605  1.00  0.00     0.210 HD
ENDBRANCH  21  23
ENDBRANCH  18  21
ENDBRANCH  12  15
ENDBRANCH   1  11
BRANCH   4  25
HETATM   25  C   UNL     1     -44.265  60.559 -59.810  1.00  0.00     0.409 C 
HETATM   26  F   UNL     1     -43.377  61.363 -59.183  1.00  0.00    -0.169 F 
HETATM   27  F   UNL     1     -44.059  60.725 -61.145  1.00  0.00    -0.169 F 
HETATM   28  F   UNL     1     -45.506  61.024 -59.562  1.00  0.00    -0.169 F 
ENDBRANCH   4  25
BRANCH   6  29
HETATM   29  C   UNL     1     -43.533  56.071 -59.988  1.00  0.00     0.075 A 
HETATM   30  O   UNL     1     -44.240  56.138 -61.154  1.00  0.00    -0.325 OA
HETATM   31  C   UNL     1     -45.114  55.099 -61.152  1.00  0.00     0.142 A 
HETATM   32  C   UNL     1     -44.981  54.362 -60.000  1.00  0.00     0.027 A 
HETATM   33  C   UNL     1     -43.959  54.988 -59.246  1.00  0.00     0.037 A 
ENDBRANCH   6  29
TORSDOF 6
ENDMDL
MODEL 8
REMARK VINA RESULT:      -7.8      3.265      5.311
REMARK  6 active torsions:
REMARK  status: ('A' for Active; 'I' for Inactive)
REMARK    1  A    between atoms: C_2  and  O_3 
REMARK    2  A    between atoms: C_2  and  C_4 
REMARK    3  A    between atoms: C_7  and  N_8 
REMARK       I    between atoms: N_8  and  C_9 
REMARK    4  A    between atoms: C_9  and  C_10 
REMARK    5  A    between atoms: C_13  and  C_14 
REMARK    6  A    between atoms: C_19  and  C_20 
ROOT
HETATM    1  C   UNL     1     -42.788  56.707 -54.197  1.00  0.00     0.096 A 
HETATM    2  C   UNL     1     -43.663  57.731 -53.883  1.00  0.00     0.138 A 
HETATM    3  N   UNL     1     -43.521  58.671 -54.878  1.00  0.00    -0.240 N 
HETATM    4  C   UNL     1     -44.217  59.946 -54.908  1.00  0.00     0.221 C 
HETATM    5  C   UNL     1     -45.398  59.937 -53.918  1.00  0.00     0.068 C 
HETATM    6  C   UNL     1     -45.011  59.297 -52.581  1.00  0.00     0.143 C 
HETATM    7  N   UNL     1     -44.514  57.932 -52.834  1.00  0.00    -0.363 N 
HETATM    8  N   UNL     1     -42.510  58.402 -55.718  1.00  0.00    -0.181 NA
HETATM    9  C   UNL     1     -42.087  57.198 -55.323  1.00  0.00     0.160 A 
HETATM   10  H   UNL     1     -44.303  57.452 -51.956  1.00  0.00     0.162 HD
ENDROOT
BRANCH   1  11
HETATM   11  C   UNL     1     -42.568  55.446 -53.507  1.00  0.00     0.261 C 
HETATM   12  N   UNL     1     -41.236  55.080 -53.470  1.00  0.00    -0.323 N 
HETATM   13  H   UNL     1     -40.583  55.792 -53.782  1.00  0.00     0.169 HD
HETATM   14  O   UNL     1     -43.504  54.829 -53.016  1.00  0.00    -0.267 OA
BRANCH  12  15
HETATM   15  C   UNL     1     -40.679  53.867 -53.032  1.00  0.00     0.035 A 
HETATM   16  C   UNL     1     -40.375  53.584 -51.701  1.00  0.00     0.030 A 
HETATM   17  C   UNL     1     -39.871  52.328 -51.340  1.00  0.00     0.012 A 
HETATM   18  C   UNL     1     -39.658  51.333 -52.305  1.00  0.00    -0.030 A 
HETATM   19  C   UNL     1     -39.960  51.625 -53.640  1.00  0.00     0.012 A 
HETATM   20  C   UNL     1     -40.463  52.879 -53.999  1.00  0.00     0.030 A 
BRANCH  18  21
HETATM   21  C   UNL     1     -39.164  49.966 -51.886  1.00  0.00     0.147 C 
HETATM   22  C   UNL     1     -39.827  49.513 -50.591  1.00  0.00     0.044 C 
BRANCH  21  23
HETATM   23  O   UNL     1     -39.441  49.011 -52.908  1.00  0.00    -0.391 OA
HETATM   24  H   UNL     1     -39.697  49.510 -53.702  1.00  0.00     0.210 HD
ENDBRANCH  21  23
ENDBRANCH  18  21
ENDBRANCH  12  15
ENDBRANCH   1  11
BRANCH   4  25
HETATM   25  C   UNL     1     -44.726  60.271 -56.296  1.00  0.00     0.409 C 
HETATM   26  F   UNL     1     -45.191  59.177 -56.942  1.00  0.00    -0.169 F 
HETATM   27  F   UNL     1     -45.771  61.139 -56.206  1.00  0.00    -0.169 F 
HETATM   28  F   UNL     1     -43.810  60.870 -57.083  1.00  0.00    -0.169 F 
ENDBRANCH   4  25
BRANCH   6  29
HETATM   29  C   UNL     1     -44.083  60.170 -51.792  1.00  0.00     0.075 A 
HETATM   30  O   UNL     1     -44.354  61.508 -51.813  1.00  0.00    -0.325 OA
HETATM   31  C   UNL     1     -43.414  62.118 -51.048  1.00  0.00     0.142 A 
HETATM   32  C   UNL     1     -42.537  61.193 -50.534  1.00  0.00     0.027 A 
HETATM   33  C   UNL     1     -42.968  59.932 -51.014  1.00  0.00     0.037 A 
ENDBRANCH   6  29
TORSDOF 6
ENDMDL
MODEL 9
REMARK VINA RESULT:      -7.7      3.981      8.917
REMARK  6 active torsions:
REMARK  status: ('A' for Active; 'I' for Inactive)
REMARK    1  A    between atoms: C_2  and  O_3 
REMARK    2  A    between atoms: C_2  and  C_4 
REMARK    3  A    between atoms: C_7  and  N_8 
REMARK       I    between atoms: N_8  and  C_9 
REMARK    4  A    between atoms: C_9  and  C_10 
REMARK    5  A    between atoms: C_13  and  C_14 
REMARK    6  A    between atoms: C_19  and  C_20 
ROOT
HETATM    1  C   UNL     1     -42.850  56.309 -56.688  1.00  0.00     0.096 A 
HETATM    2  C   UNL     1     -42.266  56.379 -55.437  1.00  0.00     0.138 A 
HETATM    3  N   UNL     1     -42.170  55.082 -54.989  1.00  0.00    -0.240 N 
HETATM    4  C   UNL     1     -41.665  54.700 -53.682  1.00  0.00     0.221 C 
HETATM    5  C   UNL     1     -40.903  55.873 -53.036  1.00  0.00     0.068 C 
HETATM    6  C   UNL     1     -41.644  57.201 -53.223  1.00  0.00     0.143 C 
HETATM    7  N   UNL     1     -41.856  57.427 -54.664  1.00  0.00    -0.363 N 
HETATM    8  N   UNL     1     -42.792  54.200 -55.787  1.00  0.00    -0.181 NA
HETATM    9  C   UNL     1     -43.176  54.941 -56.831  1.00  0.00     0.160 A 
HETATM   10  H   UNL     1     -42.296  58.336 -54.829  1.00  0.00     0.162 HD
ENDROOT
BRANCH   1  11
HETATM   11  C   UNL     1     -43.139  57.383 -57.626  1.00  0.00     0.261 C 
HETATM   12  N   UNL     1     -42.004  57.886 -58.232  1.00  0.00    -0.323 N 
HETATM   13  H   UNL     1     -41.154  57.355 -58.069  1.00  0.00     0.169 HD
HETATM   14  O   UNL     1     -44.290  57.747 -57.826  1.00  0.00    -0.267 OA
BRANCH  12  15
HETATM   15  C   UNL     1     -41.887  59.016 -59.060  1.00  0.00     0.035 A 
HETATM   16  C   UNL     1     -41.605  60.299 -58.593  1.00  0.00     0.030 A 
HETATM   17  C   UNL     1     -41.453  61.363 -59.491  1.00  0.00     0.012 A 
HETATM   18  C   UNL     1     -41.583  61.163 -60.872  1.00  0.00    -0.030 A 
HETATM   19  C   UNL     1     -41.872  59.874 -61.335  1.00  0.00     0.012 A 
HETATM   20  C   UNL     1     -42.024  58.813 -60.437  1.00  0.00     0.030 A 
BRANCH  18  21
HETATM   21  C   UNL     1     -41.361  62.315 -61.827  1.00  0.00     0.147 C 
HETATM   22  C   UNL     1     -40.045  63.027 -61.537  1.00  0.00     0.044 C 
BRANCH  21  23
HETATM   23  O   UNL     1     -41.346  61.840 -63.172  1.00  0.00    -0.391 OA
HETATM   24  H   UNL     1     -40.440  61.954 -63.504  1.00  0.00     0.210 HD
ENDBRANCH  21  23
ENDBRANCH  18  21
ENDBRANCH  12  15
ENDBRANCH   1  11
BRANCH   4  25
HETATM   25  C   UNL     1     -40.755  53.493 -53.765  1.00  0.00     0.409 C 
HETATM   26  F   UNL     1     -40.070  53.286 -52.617  1.00  0.00    -0.169 F 
HETATM   27  F   UNL     1     -41.501  52.373 -53.975  1.00  0.00    -0.169 F 
HETATM   28  F   UNL     1     -39.872  53.549 -54.781  1.00  0.00    -0.169 F 
ENDBRANCH   4  25
BRANCH   6  29
HETATM   29  C   UNL     1     -42.885  57.270 -52.385  1.00  0.00     0.075 A 
HETATM   30  O   UNL     1     -43.835  58.162 -52.790  1.00  0.00    -0.325 OA
HETATM   31  C   UNL     1     -44.867  58.073 -51.913  1.00  0.00     0.142 A 
HETATM   32  C   UNL     1     -44.596  57.136 -50.945  1.00  0.00     0.027 A 
HETATM   33  C   UNL     1     -43.316  56.614 -51.248  1.00  0.00     0.037 A 
ENDBRANCH   6  29
TORSDOF 6
ENDMDL
MODEL 10
REMARK VINA RESULT:      -7.7      1.757      2.169
REMARK  6 active torsions:
REMARK  status: ('A' for Active; 'I' for Inactive)
REMARK    1  A    between atoms: C_2  and  O_3 
REMARK    2  A    between atoms: C_2  and  C_4 
REMARK    3  A    between atoms: C_7  and  N_8 
REMARK       I    between atoms: N_8  and  C_9 
REMARK    4  A    between atoms: C_9  and  C_10 
REMARK    5  A    between atoms: C_13  and  C_14 
REMARK    6  A    between atoms: C_19  and  C_20 
ROOT
HETATM    1  C   UNL     1     -42.332  57.813 -56.432  1.00  0.00     0.096 A 
HETATM    2  C   UNL     1     -42.413  58.270 -57.734  1.00  0.00     0.138 A 
HETATM    3  N   UNL     1     -42.301  59.640 -57.664  1.00  0.00    -0.240 N 
HETATM    4  C   UNL     1     -42.395  60.531 -58.808  1.00  0.00     0.221 C 
HETATM    5  C   UNL     1     -42.242  59.738 -60.121  1.00  0.00     0.068 C 
HETATM    6  C   UNL     1     -43.042  58.431 -60.089  1.00  0.00     0.143 C 
HETATM    7  N   UNL     1     -42.604  57.635 -58.927  1.00  0.00    -0.363 N 
HETATM    8  N   UNL     1     -42.314  60.107 -56.407  1.00  0.00    -0.181 NA
HETATM    9  C   UNL     1     -42.301  58.999 -55.661  1.00  0.00     0.160 A 
HETATM   10  H   UNL     1     -43.075  56.727 -58.909  1.00  0.00     0.162 HD
ENDROOT
BRANCH   1  11
HETATM   11  C   UNL     1     -42.347  56.445 -55.938  1.00  0.00     0.261 C 
HETATM   12  N   UNL     1     -41.413  56.224 -54.945  1.00  0.00    -0.323 N 
HETATM   13  H   UNL     1     -40.955  57.056 -54.587  1.00  0.00     0.169 HD
HETATM   14  O   UNL     1     -43.140  55.627 -56.384  1.00  0.00    -0.267 OA
BRANCH  12  15
HETATM   15  C   UNL     1     -41.042  55.002 -54.356  1.00  0.00     0.035 A 
HETATM   16  C   UNL     1     -41.320  54.658 -53.034  1.00  0.00     0.030 A 
HETATM   17  C   UNL     1     -40.962  53.398 -52.539  1.00  0.00     0.012 A 
HETATM   18  C   UNL     1     -40.316  52.460 -53.357  1.00  0.00    -0.030 A 
HETATM   19  C   UNL     1     -40.034  52.814 -54.681  1.00  0.00     0.012 A 
HETATM   20  C   UNL     1     -40.391  54.073 -55.174  1.00  0.00     0.030 A 
BRANCH  18  21
HETATM   21  C   UNL     1     -39.987  51.085 -52.818  1.00  0.00     0.147 C 
HETATM   22  C   UNL     1     -39.459  50.173 -53.918  1.00  0.00     0.044 C 
BRANCH  21  23
HETATM   23  O   UNL     1     -39.006  51.186 -51.787  1.00  0.00    -0.391 OA
HETATM   24  H   UNL     1     -39.425  51.644 -51.040  1.00  0.00     0.210 HD
ENDBRANCH  21  23
ENDBRANCH  18  21
ENDBRANCH  12  15
ENDBRANCH   1  11
BRANCH   4  25
HETATM   25  C   UNL     1     -41.346  61.621 -58.754  1.00  0.00     0.409 C 
HETATM   26  F   UNL     1     -41.813  62.753 -58.178  1.00  0.00    -0.169 F 
HETATM   27  F   UNL     1     -40.296  61.206 -57.993  1.00  0.00    -0.169 F 
HETATM   28  F   UNL     1     -40.833  61.940 -59.958  1.00  0.00    -0.169 F 
ENDBRANCH   4  25
BRANCH   6  29
HETATM   29  C   UNL     1     -44.518  58.678 -60.163  1.00  0.00     0.075 A 
HETATM   30  O   UNL     1     -45.310  57.792 -59.491  1.00  0.00    -0.325 OA
HETATM   31  C   UNL     1     -46.596  58.184 -59.677  1.00  0.00     0.142 A 
HETATM   32  C   UNL     1     -46.646  59.313 -60.461  1.00  0.00     0.027 A 
HETATM   33  C   UNL     1     -45.304  59.635 -60.775  1.00  0.00     0.037 A 
ENDBRANCH   6  29
TORSDOF 6
ENDMDL
