MODEL 1
REMARK VINA RESULT:      -9.3      0.000      0.000
REMARK  3 active torsions:
REMARK  status: ('A' for Active; 'I' for Inactive)
REMARK    1  A    between atoms: C_10  and  C_11 
REMARK    2  A    between atoms: C_13  and  C_14 
REMARK    3  A    between atoms: C_22  and  O_23 
ROOT
HETATM    1  C   UNL     1     -44.863  59.788 -54.449  1.00  0.00     0.001 A 
HETATM    2  C   UNL     1     -43.978  58.774 -54.834  1.00  0.00     0.015 A 
HETATM    3  C   UNL     1     -43.658  57.746 -53.943  1.00  0.00     0.013 A 
HETATM    4  C   UNL     1     -44.234  57.747 -52.663  1.00  0.00     0.046 A 
HETATM    5  C   UNL     1     -43.911  56.641 -51.720  1.00  0.00     0.271 A 
HETATM    6  O   UNL     1     -44.479  56.542 -50.637  1.00  0.00    -0.266 OA
HETATM    7  N   UNL     1     -42.961  55.719 -52.097  1.00  0.00    -0.257 N 
HETATM    8  N   UNL     1     -42.414  55.733 -53.333  1.00  0.00    -0.229 N 
HETATM    9  C   UNL     1     -42.746  56.668 -54.271  1.00  0.00     0.122 A 
HETATM   10  C   UNL     1     -41.493  54.847 -53.848  1.00  0.00     0.162 A 
HETATM   11  N   UNL     1     -41.293  55.135 -55.128  1.00  0.00    -0.202 NA
HETATM   12  C   UNL     1     -42.039  56.250 -55.374  1.00  0.00     0.194 A 
HETATM   13  C   UNL     1     -45.121  58.758 -52.279  1.00  0.00     0.018 A 
HETATM   14  C   UNL     1     -45.432  59.780 -53.175  1.00  0.00     0.001 A 
HETATM   15  H   UNL     1     -42.879  54.875 -51.548  1.00  0.00     0.191 HD
ENDROOT
BRANCH  10  16
HETATM   16  C   UNL     1     -40.852  53.739 -53.133  1.00  0.00     0.013 A 
HETATM   17  C   UNL     1     -40.683  52.510 -53.790  1.00  0.00     0.031 A 
HETATM   18  C   UNL     1     -40.055  51.426 -53.156  1.00  0.00     0.048 A 
HETATM   19  C   UNL     1     -39.597  51.584 -51.840  1.00  0.00     0.016 A 
HETATM   20  C   UNL     1     -39.741  52.806 -51.184  1.00  0.00     0.002 A 
HETATM   21  C   UNL     1     -40.356  53.880 -51.831  1.00  0.00     0.015 A 
BRANCH  18  22
HETATM   22  C   UNL     1     -39.884  50.103 -53.862  1.00  0.00     0.417 C 
HETATM   23  F   UNL     1     -40.959  49.745 -54.617  1.00  0.00    -0.166 F 
HETATM   24  F   UNL     1     -38.816  50.095 -54.708  1.00  0.00    -0.166 F 
HETATM   25  F   UNL     1     -39.679  49.077 -52.992  1.00  0.00    -0.166 F 
ENDBRANCH  18  22
ENDBRANCH  10  16
BRANCH  12  26
HETATM   26  O   UNL     1     -42.065  56.849 -56.566  1.00  0.00    -0.343 OA
HETATM   27  H   UNL     1     -42.968  57.198 -56.670  1.00  0.00     0.219 HD
ENDBRANCH  12  26
TORSDOF 3
ENDMDL
MODEL 2
REMARK VINA RESULT:      -9.2      1.979      3.100
REMARK  3 active torsions:
REMARK  status: ('A' for Active; 'I' for Inactive)
REMARK    1  A    between atoms: C_10  and  C_11 
REMARK    2  A    between atoms: C_13  and  C_14 
REMARK    3  A    between atoms: C_22  and  O_23 
ROOT
HETATM    1  C   UNL     1     -44.584  61.093 -52.810  1.00  0.00     0.001 A 
HETATM    2  C   UNL     1     -44.603  59.791 -52.300  1.00  0.00     0.015 A 
HETATM    3  C   UNL     1     -43.454  58.998 -52.357  1.00  0.00     0.013 A 
HETATM    4  C   UNL     1     -42.288  59.524 -52.933  1.00  0.00     0.046 A 
HETATM    5  C   UNL     1     -41.056  58.688 -52.975  1.00  0.00     0.271 A 
HETATM    6  O   UNL     1     -39.989  59.148 -53.365  1.00  0.00    -0.266 OA
HETATM    7  N   UNL     1     -41.142  57.380 -52.556  1.00  0.00    -0.257 N 
HETATM    8  N   UNL     1     -42.274  56.886 -52.006  1.00  0.00    -0.229 N 
HETATM    9  C   UNL     1     -43.404  57.639 -51.853  1.00  0.00     0.122 A 
HETATM   10  C   UNL     1     -42.476  55.618 -51.507  1.00  0.00     0.162 A 
HETATM   11  N   UNL     1     -43.680  55.563 -50.953  1.00  0.00    -0.202 NA
HETATM   12  C   UNL     1     -44.245  56.783 -51.183  1.00  0.00     0.194 A 
HETATM   13  C   UNL     1     -42.267  60.828 -53.440  1.00  0.00     0.018 A 
HETATM   14  C   UNL     1     -43.419  61.610 -53.380  1.00  0.00     0.001 A 
HETATM   15  H   UNL     1     -40.280  56.874 -52.408  1.00  0.00     0.191 HD
ENDROOT
BRANCH  10  16
HETATM   16  C   UNL     1     -41.522  54.505 -51.539  1.00  0.00     0.013 A 
HETATM   17  C   UNL     1     -41.337  53.798 -52.738  1.00  0.00     0.031 A 
HETATM   18  C   UNL     1     -40.419  52.740 -52.826  1.00  0.00     0.048 A 
HETATM   19  C   UNL     1     -39.681  52.387 -51.686  1.00  0.00     0.016 A 
HETATM   20  C   UNL     1     -39.841  53.095 -50.495  1.00  0.00     0.002 A 
HETATM   21  C   UNL     1     -40.749  54.154 -50.425  1.00  0.00     0.015 A 
BRANCH  18  22
HETATM   22  C   UNL     1     -40.231  51.976 -54.113  1.00  0.00     0.417 C 
HETATM   23  F   UNL     1     -41.322  51.249 -54.481  1.00  0.00    -0.166 F 
HETATM   24  F   UNL     1     -39.954  52.790 -55.170  1.00  0.00    -0.166 F 
HETATM   25  F   UNL     1     -39.199  51.091 -54.042  1.00  0.00    -0.166 F 
ENDBRANCH  18  22
ENDBRANCH  10  16
BRANCH  12  26
HETATM   26  O   UNL     1     -45.482  57.088 -50.786  1.00  0.00    -0.343 OA
HETATM   27  H   UNL     1     -46.036  57.053 -51.586  1.00  0.00     0.219 HD
ENDBRANCH  12  26
TORSDOF 3
ENDMDL
MODEL 3
REMARK VINA RESULT:      -9.2      4.262      7.309
REMARK  3 active torsions:
REMARK  status: ('A' for Active; 'I' for Inactive)
REMARK    1  A    between atoms: C_10  and  C_11 
REMARK    2  A    between atoms: C_13  and  C_14 
REMARK    3  A    between atoms: C_22  and  O_23 
ROOT
HETATM    1  C   UNL     1     -39.578  50.157 -53.555  1.00  0.00     0.001 A 
HETATM    2  C   UNL     1     -39.887  51.453 -53.980  1.00  0.00     0.015 A 
HETATM    3  C   UNL     1     -40.161  52.453 -53.043  1.00  0.00     0.013 A 
HETATM    4  C   UNL     1     -40.123  52.137 -51.676  1.00  0.00     0.046 A 
HETATM    5  C   UNL     1     -40.394  53.206 -50.675  1.00  0.00     0.271 A 
HETATM    6  O   UNL     1     -40.260  53.000 -49.474  1.00  0.00    -0.266 OA
HETATM    7  N   UNL     1     -40.792  54.441 -51.133  1.00  0.00    -0.257 N 
HETATM    8  N   UNL     1     -40.826  54.730 -52.452  1.00  0.00    -0.229 N 
HETATM    9  C   UNL     1     -40.494  53.815 -53.411  1.00  0.00     0.122 A 
HETATM   10  C   UNL     1     -41.159  55.932 -53.036  1.00  0.00     0.162 A 
HETATM   11  N   UNL     1     -40.961  55.841 -54.345  1.00  0.00    -0.202 NA
HETATM   12  C   UNL     1     -40.577  54.552 -54.569  1.00  0.00     0.194 A 
HETATM   13  C   UNL     1     -39.810  50.842 -51.250  1.00  0.00     0.018 A 
HETATM   14  C   UNL     1     -39.541  49.852 -52.194  1.00  0.00     0.001 A 
HETATM   15  H   UNL     1     -40.793  55.209 -50.476  1.00  0.00     0.191 HD
ENDROOT
BRANCH  10  16
HETATM   16  C   UNL     1     -41.625  57.138 -52.346  1.00  0.00     0.013 A 
HETATM   17  C   UNL     1     -43.004  57.337 -52.173  1.00  0.00     0.031 A 
HETATM   18  C   UNL     1     -43.500  58.464 -51.499  1.00  0.00     0.048 A 
HETATM   19  C   UNL     1     -42.590  59.407 -50.997  1.00  0.00     0.016 A 
HETATM   20  C   UNL     1     -41.217  59.211 -51.145  1.00  0.00     0.002 A 
HETATM   21  C   UNL     1     -40.738  58.078 -51.806  1.00  0.00     0.015 A 
BRANCH  18  22
HETATM   22  C   UNL     1     -44.983  58.679 -51.325  1.00  0.00     0.417 C 
HETATM   23  F   UNL     1     -45.302  59.428 -50.234  1.00  0.00    -0.166 F 
HETATM   24  F   UNL     1     -45.550  59.313 -52.389  1.00  0.00    -0.166 F 
HETATM   25  F   UNL     1     -45.661  57.507 -51.185  1.00  0.00    -0.166 F 
ENDBRANCH  18  22
ENDBRANCH  10  16
BRANCH  12  26
HETATM   26  O   UNL     1     -40.312  54.082 -55.790  1.00  0.00    -0.343 OA
HETATM   27  H   UNL     1     -39.970  54.839 -56.298  1.00  0.00     0.219 HD
ENDBRANCH  12  26
TORSDOF 3
ENDMDL
MODEL 4
REMARK VINA RESULT:      -9.2      4.450      7.389
REMARK  3 active torsions:
REMARK  status: ('A' for Active; 'I' for Inactive)
REMARK    1  A    between atoms: C_10  and  C_11 
REMARK    2  A    between atoms: C_13  and  C_14 
REMARK    3  A    between atoms: C_22  and  O_23 
ROOT
HETATM    1  C   UNL     1     -39.371  50.076 -53.491  1.00  0.00     0.001 A 
HETATM    2  C   UNL     1     -39.753  51.339 -53.954  1.00  0.00     0.015 A 
HETATM    3  C   UNL     1     -40.170  52.322 -53.051  1.00  0.00     0.013 A 
HETATM    4  C   UNL     1     -40.199  52.023 -51.681  1.00  0.00     0.046 A 
HETATM    5  C   UNL     1     -40.622  53.076 -50.716  1.00  0.00     0.271 A 
HETATM    6  O   UNL     1     -40.553  52.892 -49.505  1.00  0.00    -0.266 OA
HETATM    7  N   UNL     1     -41.085  54.270 -51.217  1.00  0.00    -0.257 N 
HETATM    8  N   UNL     1     -41.053  54.543 -52.540  1.00  0.00    -0.229 N 
HETATM    9  C   UNL     1     -40.584  53.650 -53.461  1.00  0.00     0.122 A 
HETATM   10  C   UNL     1     -41.441  55.709 -53.163  1.00  0.00     0.162 A 
HETATM   11  N   UNL     1     -41.148  55.623 -54.453  1.00  0.00    -0.202 NA
HETATM   12  C   UNL     1     -40.648  54.366 -54.633  1.00  0.00     0.194 A 
HETATM   13  C   UNL     1     -39.813  50.761 -51.217  1.00  0.00     0.018 A 
HETATM   14  C   UNL     1     -39.402  49.787 -52.125  1.00  0.00     0.001 A 
HETATM   15  H   UNL     1     -41.192  55.042 -50.573  1.00  0.00     0.191 HD
ENDROOT
BRANCH  10  16
HETATM   16  C   UNL     1     -42.048  56.880 -52.522  1.00  0.00     0.013 A 
HETATM   17  C   UNL     1     -41.239  57.735 -51.757  1.00  0.00     0.031 A 
HETATM   18  C   UNL     1     -41.767  58.882 -51.143  1.00  0.00     0.048 A 
HETATM   19  C   UNL     1     -43.132  59.165 -51.298  1.00  0.00     0.016 A 
HETATM   20  C   UNL     1     -43.942  58.334 -52.072  1.00  0.00     0.002 A 
HETATM   21  C   UNL     1     -43.400  57.204 -52.688  1.00  0.00     0.015 A 
BRANCH  18  22
HETATM   22  C   UNL     1     -40.896  59.793 -50.313  1.00  0.00     0.417 C 
HETATM   23  F   UNL     1     -39.615  59.885 -50.766  1.00  0.00    -0.166 F 
HETATM   24  F   UNL     1     -41.367  61.071 -50.269  1.00  0.00    -0.166 F 
HETATM   25  F   UNL     1     -40.806  59.383 -49.019  1.00  0.00    -0.166 F 
ENDBRANCH  18  22
ENDBRANCH  10  16
BRANCH  12  26
HETATM   26  O   UNL     1     -40.265  53.909 -55.826  1.00  0.00    -0.343 OA
HETATM   27  H   UNL     1     -39.998  54.692 -56.339  1.00  0.00     0.219 HD
ENDBRANCH  12  26
TORSDOF 3
ENDMDL
MODEL 5
REMARK VINA RESULT:      -8.8      4.438      7.859
REMARK  3 active torsions:
REMARK  status: ('A' for Active; 'I' for Inactive)
REMARK    1  A    between atoms: C_10  and  C_11 
REMARK    2  A    between atoms: C_13  and  C_14 
REMARK    3  A    between atoms: C_22  and  O_23 
ROOT
HETATM    1  C   UNL     1     -39.507  50.154 -51.744  1.00  0.00     0.001 A 
HETATM    2  C   UNL     1     -39.859  51.253 -50.953  1.00  0.00     0.015 A 
HETATM    3  C   UNL     1     -40.265  52.448 -51.553  1.00  0.00     0.013 A 
HETATM    4  C   UNL     1     -40.312  52.529 -52.953  1.00  0.00     0.046 A 
HETATM    5  C   UNL     1     -40.765  53.795 -53.593  1.00  0.00     0.271 A 
HETATM    6  O   UNL     1     -40.928  53.871 -54.806  1.00  0.00    -0.266 OA
HETATM    7  N   UNL     1     -41.006  54.883 -52.786  1.00  0.00    -0.257 N 
HETATM    8  N   UNL     1     -40.955  54.790 -51.438  1.00  0.00    -0.229 N 
HETATM    9  C   UNL     1     -40.640  53.627 -50.795  1.00  0.00     0.122 A 
HETATM   10  C   UNL     1     -41.218  55.784 -50.522  1.00  0.00     0.162 A 
HETATM   11  N   UNL     1     -41.169  55.265 -49.302  1.00  0.00    -0.202 NA
HETATM   12  C   UNL     1     -40.799  53.963 -49.472  1.00  0.00     0.194 A 
HETATM   13  C   UNL     1     -39.963  51.430 -53.744  1.00  0.00     0.018 A 
HETATM   14  C   UNL     1     -39.557  50.243 -53.136  1.00  0.00     0.001 A 
HETATM   15  H   UNL     1     -41.487  55.674 -53.191  1.00  0.00     0.191 HD
ENDROOT
BRANCH  10  16
HETATM   16  C   UNL     1     -41.537  57.184 -50.820  1.00  0.00     0.013 A 
HETATM   17  C   UNL     1     -42.855  57.527 -51.160  1.00  0.00     0.031 A 
HETATM   18  C   UNL     1     -43.215  58.856 -51.432  1.00  0.00     0.048 A 
HETATM   19  C   UNL     1     -42.230  59.852 -51.364  1.00  0.00     0.016 A 
HETATM   20  C   UNL     1     -40.922  59.527 -51.008  1.00  0.00     0.002 A 
HETATM   21  C   UNL     1     -40.579  58.203 -50.728  1.00  0.00     0.015 A 
BRANCH  18  22
HETATM   22  C   UNL     1     -44.632  59.218 -51.806  1.00  0.00     0.417 C 
HETATM   23  F   UNL     1     -45.559  58.803 -50.900  1.00  0.00    -0.166 F 
HETATM   24  F   UNL     1     -44.813  60.563 -51.934  1.00  0.00    -0.166 F 
HETATM   25  F   UNL     1     -45.004  58.677 -52.998  1.00  0.00    -0.166 F 
ENDBRANCH  18  22
ENDBRANCH  10  16
BRANCH  12  26
HETATM   26  O   UNL     1     -40.622  53.127 -48.448  1.00  0.00    -0.343 OA
HETATM   27  H   UNL     1     -40.182  52.341 -48.818  1.00  0.00     0.219 HD
ENDBRANCH  12  26
TORSDOF 3
ENDMDL
MODEL 6
REMARK VINA RESULT:      -8.6      2.553      3.667
REMARK  3 active torsions:
REMARK  status: ('A' for Active; 'I' for Inactive)
REMARK    1  A    between atoms: C_10  and  C_11 
REMARK    2  A    between atoms: C_13  and  C_14 
REMARK    3  A    between atoms: C_22  and  O_23 
ROOT
HETATM    1  C   UNL     1     -44.064  61.168 -50.233  1.00  0.00     0.001 A 
HETATM    2  C   UNL     1     -44.212  59.818 -50.570  1.00  0.00     0.015 A 
HETATM    3  C   UNL     1     -43.131  59.101 -51.090  1.00  0.00     0.013 A 
HETATM    4  C   UNL     1     -41.902  59.753 -51.270  1.00  0.00     0.046 A 
HETATM    5  C   UNL     1     -40.743  58.985 -51.804  1.00  0.00     0.271 A 
HETATM    6  O   UNL     1     -39.625  59.485 -51.869  1.00  0.00    -0.266 OA
HETATM    7  N   UNL     1     -40.955  57.690 -52.217  1.00  0.00    -0.257 N 
HETATM    8  N   UNL     1     -42.145  57.076 -52.040  1.00  0.00    -0.229 N 
HETATM    9  C   UNL     1     -43.215  57.703 -51.466  1.00  0.00     0.122 A 
HETATM   10  C   UNL     1     -42.473  55.778 -52.364  1.00  0.00     0.162 A 
HETATM   11  N   UNL     1     -43.700  55.525 -51.929  1.00  0.00    -0.202 NA
HETATM   12  C   UNL     1     -44.153  56.699 -51.403  1.00  0.00     0.194 A 
HETATM   13  C   UNL     1     -41.752  61.101 -50.930  1.00  0.00     0.018 A 
HETATM   14  C   UNL     1     -42.837  61.808 -50.414  1.00  0.00     0.001 A 
HETATM   15  H   UNL     1     -40.144  57.115 -52.400  1.00  0.00     0.191 HD
ENDROOT
BRANCH  10  16
HETATM   16  C   UNL     1     -41.613  54.805 -53.046  1.00  0.00     0.013 A 
HETATM   17  C   UNL     1     -41.096  53.723 -52.316  1.00  0.00     0.031 A 
HETATM   18  C   UNL     1     -40.286  52.753 -52.928  1.00  0.00     0.048 A 
HETATM   19  C   UNL     1     -39.991  52.880 -54.294  1.00  0.00     0.016 A 
HETATM   20  C   UNL     1     -40.515  53.939 -55.033  1.00  0.00     0.002 A 
HETATM   21  C   UNL     1     -41.330  54.891 -54.415  1.00  0.00     0.015 A 
BRANCH  18  22
HETATM   22  C   UNL     1     -39.724  51.596 -52.138  1.00  0.00     0.417 C 
HETATM   23  F   UNL     1     -38.386  51.693 -51.906  1.00  0.00    -0.166 F 
HETATM   24  F   UNL     1     -40.305  51.466 -50.913  1.00  0.00    -0.166 F 
HETATM   25  F   UNL     1     -39.908  50.404 -52.768  1.00  0.00    -0.166 F 
ENDBRANCH  18  22
ENDBRANCH  10  16
BRANCH  12  26
HETATM   26  O   UNL     1     -45.376  56.832 -50.887  1.00  0.00    -0.343 OA
HETATM   27  H   UNL     1     -45.975  56.946 -51.646  1.00  0.00     0.219 HD
ENDBRANCH  12  26
TORSDOF 3
ENDMDL
MODEL 7
REMARK VINA RESULT:      -8.5      4.640      7.545
REMARK  3 active torsions:
REMARK  status: ('A' for Active; 'I' for Inactive)
REMARK    1  A    between atoms: C_10  and  C_11 
REMARK    2  A    between atoms: C_13  and  C_14 
REMARK    3  A    between atoms: C_22  and  O_23 
ROOT
HETATM    1  C   UNL     1     -39.568  51.396 -53.745  1.00  0.00     0.001 A 
HETATM    2  C   UNL     1     -40.221  52.579 -54.106  1.00  0.00     0.015 A 
HETATM    3  C   UNL     1     -40.721  53.434 -53.120  1.00  0.00     0.013 A 
HETATM    4  C   UNL     1     -40.561  53.088 -51.770  1.00  0.00     0.046 A 
HETATM    5  C   UNL     1     -41.074  54.009 -50.718  1.00  0.00     0.271 A 
HETATM    6  O   UNL     1     -40.854  53.801 -49.529  1.00  0.00    -0.266 OA
HETATM    7  N   UNL     1     -41.797  55.111 -51.113  1.00  0.00    -0.257 N 
HETATM    8  N   UNL     1     -41.945  55.430 -52.417  1.00  0.00    -0.229 N 
HETATM    9  C   UNL     1     -41.412  54.673 -53.422  1.00  0.00     0.122 A 
HETATM   10  C   UNL     1     -42.601  56.522 -52.941  1.00  0.00     0.162 A 
HETATM   11  N   UNL     1     -42.425  56.537 -54.256  1.00  0.00    -0.202 NA
HETATM   12  C   UNL     1     -41.721  55.404 -54.544  1.00  0.00     0.194 A 
HETATM   13  C   UNL     1     -39.905  51.907 -51.408  1.00  0.00     0.018 A 
HETATM   14  C   UNL     1     -39.412  51.060 -52.400  1.00  0.00     0.001 A 
HETATM   15  H   UNL     1     -41.981  55.826 -50.423  1.00  0.00     0.191 HD
ENDROOT
BRANCH  10  16
HETATM   16  C   UNL     1     -43.348  57.535 -52.189  1.00  0.00     0.013 A 
HETATM   17  C   UNL     1     -42.685  58.699 -51.768  1.00  0.00     0.031 A 
HETATM   18  C   UNL     1     -43.361  59.708 -51.065  1.00  0.00     0.048 A 
HETATM   19  C   UNL     1     -44.724  59.537 -50.778  1.00  0.00     0.016 A 
HETATM   20  C   UNL     1     -45.398  58.395 -51.208  1.00  0.00     0.002 A 
HETATM   21  C   UNL     1     -44.716  57.404 -51.917  1.00  0.00     0.015 A 
BRANCH  18  22
HETATM   22  C   UNL     1     -42.643  60.954 -50.606  1.00  0.00     0.417 C 
HETATM   23  F   UNL     1     -41.334  60.746 -50.297  1.00  0.00    -0.166 F 
HETATM   24  F   UNL     1     -42.650  61.940 -51.547  1.00  0.00    -0.166 F 
HETATM   25  F   UNL     1     -43.209  61.495 -49.493  1.00  0.00    -0.166 F 
ENDBRANCH  18  22
ENDBRANCH  10  16
BRANCH  12  26
HETATM   26  O   UNL     1     -41.378  55.068 -55.789  1.00  0.00    -0.343 OA
HETATM   27  H   UNL     1     -40.407  55.008 -55.792  1.00  0.00     0.219 HD
ENDBRANCH  12  26
TORSDOF 3
ENDMDL
MODEL 8
REMARK VINA RESULT:      -8.4      4.422      7.775
REMARK  3 active torsions:
REMARK  status: ('A' for Active; 'I' for Inactive)
REMARK    1  A    between atoms: C_10  and  C_11 
REMARK    2  A    between atoms: C_13  and  C_14 
REMARK    3  A    between atoms: C_22  and  O_23 
ROOT
HETATM    1  C   UNL     1     -39.315  51.325 -52.572  1.00  0.00     0.001 A 
HETATM    2  C   UNL     1     -39.769  52.380 -51.773  1.00  0.00     0.015 A 
HETATM    3  C   UNL     1     -40.727  53.271 -52.265  1.00  0.00     0.013 A 
HETATM    4  C   UNL     1     -41.223  53.093 -53.565  1.00  0.00     0.046 A 
HETATM    5  C   UNL     1     -42.260  54.028 -54.082  1.00  0.00     0.271 A 
HETATM    6  O   UNL     1     -42.801  53.840 -55.167  1.00  0.00    -0.266 OA
HETATM    7  N   UNL     1     -42.606  55.110 -53.306  1.00  0.00    -0.257 N 
HETATM    8  N   UNL     1     -42.118  55.270 -52.056  1.00  0.00    -0.229 N 
HETATM    9  C   UNL     1     -41.238  54.389 -51.495  1.00  0.00     0.122 A 
HETATM   10  C   UNL     1     -42.417  56.277 -51.165  1.00  0.00     0.162 A 
HETATM   11  N   UNL     1     -41.822  56.015 -50.009  1.00  0.00    -0.202 NA
HETATM   12  C   UNL     1     -41.093  54.882 -50.220  1.00  0.00     0.194 A 
HETATM   13  C   UNL     1     -40.773  52.035 -54.363  1.00  0.00     0.018 A 
HETATM   14  C   UNL     1     -39.815  51.154 -53.864  1.00  0.00     0.001 A 
HETATM   15  H   UNL     1     -43.431  55.632 -53.567  1.00  0.00     0.191 HD
ENDROOT
BRANCH  10  16
HETATM   16  C   UNL     1     -43.277  57.437 -51.416  1.00  0.00     0.013 A 
HETATM   17  C   UNL     1     -42.760  58.529 -52.131  1.00  0.00     0.031 A 
HETATM   18  C   UNL     1     -43.549  59.654 -52.417  1.00  0.00     0.048 A 
HETATM   19  C   UNL     1     -44.878  59.679 -51.968  1.00  0.00     0.016 A 
HETATM   20  C   UNL     1     -45.410  58.593 -51.274  1.00  0.00     0.002 A 
HETATM   21  C   UNL     1     -44.617  57.475 -51.008  1.00  0.00     0.015 A 
BRANCH  18  22
HETATM   22  C   UNL     1     -42.986  60.829 -53.178  1.00  0.00     0.417 C 
HETATM   23  F   UNL     1     -41.768  60.585 -53.735  1.00  0.00    -0.166 F 
HETATM   24  F   UNL     1     -43.791  61.224 -54.203  1.00  0.00    -0.166 F 
HETATM   25  F   UNL     1     -42.822  61.925 -52.387  1.00  0.00    -0.166 F 
ENDBRANCH  18  22
ENDBRANCH  10  16
BRANCH  12  26
HETATM   26  O   UNL     1     -40.333  54.329 -49.273  1.00  0.00    -0.343 OA
HETATM   27  H   UNL     1     -39.749  53.700 -49.733  1.00  0.00     0.219 HD
ENDBRANCH  12  26
TORSDOF 3
ENDMDL
MODEL 9
REMARK VINA RESULT:      -8.4      3.869      6.779
REMARK  3 active torsions:
REMARK  status: ('A' for Active; 'I' for Inactive)
REMARK    1  A    between atoms: C_10  and  C_11 
REMARK    2  A    between atoms: C_13  and  C_14 
REMARK    3  A    between atoms: C_22  and  O_23 
ROOT
HETATM    1  C   UNL     1     -40.609  54.550 -50.410  1.00  0.00     0.001 A 
HETATM    2  C   UNL     1     -41.271  55.408 -51.294  1.00  0.00     0.015 A 
HETATM    3  C   UNL     1     -41.322  55.109 -52.658  1.00  0.00     0.013 A 
HETATM    4  C   UNL     1     -40.700  53.941 -53.126  1.00  0.00     0.046 A 
HETATM    5  C   UNL     1     -40.772  53.610 -54.575  1.00  0.00     0.271 A 
HETATM    6  O   UNL     1     -40.341  52.545 -55.006  1.00  0.00    -0.266 OA
HETATM    7  N   UNL     1     -41.344  54.528 -55.426  1.00  0.00    -0.257 N 
HETATM    8  N   UNL     1     -41.937  55.650 -54.961  1.00  0.00    -0.229 N 
HETATM    9  C   UNL     1     -41.986  55.955 -53.631  1.00  0.00     0.122 A 
HETATM   10  C   UNL     1     -42.582  56.620 -55.696  1.00  0.00     0.162 A 
HETATM   11  N   UNL     1     -43.125  57.497 -54.863  1.00  0.00    -0.202 NA
HETATM   12  C   UNL     1     -42.745  57.102 -53.615  1.00  0.00     0.194 A 
HETATM   13  C   UNL     1     -40.041  53.081 -52.242  1.00  0.00     0.018 A 
HETATM   14  C   UNL     1     -39.994  53.390 -50.883  1.00  0.00     0.001 A 
HETATM   15  H   UNL     1     -41.560  54.228 -56.366  1.00  0.00     0.191 HD
ENDROOT
BRANCH  10  16
HETATM   16  C   UNL     1     -42.694  56.677 -57.157  1.00  0.00     0.013 A 
HETATM   17  C   UNL     1     -43.582  55.806 -57.808  1.00  0.00     0.031 A 
HETATM   18  C   UNL     1     -43.742  55.838 -59.203  1.00  0.00     0.048 A 
HETATM   19  C   UNL     1     -42.991  56.758 -59.950  1.00  0.00     0.016 A 
HETATM   20  C   UNL     1     -42.121  57.641 -59.313  1.00  0.00     0.002 A 
HETATM   21  C   UNL     1     -41.981  57.608 -57.924  1.00  0.00     0.015 A 
BRANCH  18  22
HETATM   22  C   UNL     1     -44.691  54.893 -59.900  1.00  0.00     0.417 C 
HETATM   23  F   UNL     1     -44.448  54.761 -61.233  1.00  0.00    -0.166 F 
HETATM   24  F   UNL     1     -44.645  53.632 -59.387  1.00  0.00    -0.166 F 
HETATM   25  F   UNL     1     -45.987  55.293 -59.794  1.00  0.00    -0.166 F 
ENDBRANCH  18  22
ENDBRANCH  10  16
BRANCH  12  26
HETATM   26  O   UNL     1     -43.089  57.770 -52.512  1.00  0.00    -0.343 OA
HETATM   27  H   UNL     1     -43.119  58.709 -52.768  1.00  0.00     0.219 HD
ENDBRANCH  12  26
TORSDOF 3
ENDMDL
MODEL 10
REMARK VINA RESULT:      -8.4      4.795      7.465
REMARK  3 active torsions:
REMARK  status: ('A' for Active; 'I' for Inactive)
REMARK    1  A    between atoms: C_10  and  C_11 
REMARK    2  A    between atoms: C_13  and  C_14 
REMARK    3  A    between atoms: C_22  and  O_23 
ROOT
HETATM    1  C   UNL     1     -41.695  54.159 -50.515  1.00  0.00     0.001 A 
HETATM    2  C   UNL     1     -42.404  54.927 -51.445  1.00  0.00     0.015 A 
HETATM    3  C   UNL     1     -42.085  54.856 -52.803  1.00  0.00     0.013 A 
HETATM    4  C   UNL     1     -41.046  54.009 -53.218  1.00  0.00     0.046 A 
HETATM    5  C   UNL     1     -40.719  53.916 -54.668  1.00  0.00     0.271 A 
HETATM    6  O   UNL     1     -39.898  53.105 -55.083  1.00  0.00    -0.266 OA
HETATM    7  N   UNL     1     -41.370  54.760 -55.538  1.00  0.00    -0.257 N 
HETATM    8  N   UNL     1     -42.366  55.573 -55.123  1.00  0.00    -0.229 N 
HETATM    9  C   UNL     1     -42.774  55.627 -53.820  1.00  0.00     0.122 A 
HETATM   10  C   UNL     1     -43.124  56.426 -55.894  1.00  0.00     0.162 A 
HETATM   11  N   UNL     1     -44.071  56.962 -55.136  1.00  0.00    -0.202 NA
HETATM   12  C   UNL     1     -43.842  56.490 -53.876  1.00  0.00     0.194 A 
HETATM   13  C   UNL     1     -40.339  53.238 -52.290  1.00  0.00     0.018 A 
HETATM   14  C   UNL     1     -40.664  53.317 -50.936  1.00  0.00     0.001 A 
HETATM   15  H   UNL     1     -41.288  54.571 -56.527  1.00  0.00     0.191 HD
ENDROOT
BRANCH  10  16
HETATM   16  C   UNL     1     -42.955  56.691 -57.327  1.00  0.00     0.013 A 
HETATM   17  C   UNL     1     -42.652  57.995 -57.749  1.00  0.00     0.031 A 
HETATM   18  C   UNL     1     -42.458  58.295 -59.107  1.00  0.00     0.048 A 
HETATM   19  C   UNL     1     -42.578  57.264 -60.051  1.00  0.00     0.016 A 
HETATM   20  C   UNL     1     -42.859  55.962 -59.643  1.00  0.00     0.002 A 
HETATM   21  C   UNL     1     -43.037  55.675 -58.287  1.00  0.00     0.015 A 
BRANCH  18  22
HETATM   22  C   UNL     1     -42.142  59.700 -59.557  1.00  0.00     0.417 C 
HETATM   23  F   UNL     1     -41.509  59.758 -60.761  1.00  0.00    -0.166 F 
HETATM   24  F   UNL     1     -43.257  60.472 -59.686  1.00  0.00    -0.166 F 
HETATM   25  F   UNL     1     -41.334  60.354 -58.678  1.00  0.00    -0.166 F 
ENDBRANCH  18  22
ENDBRANCH  10  16
BRANCH  12  26
HETATM   26  O   UNL     1     -44.592  56.840 -52.830  1.00  0.00    -0.343 OA
HETATM   27  H   UNL     1     -45.424  57.185 -53.201  1.00  0.00     0.219 HD
ENDBRANCH  12  26
TORSDOF 3
ENDMDL
