MODEL 1
REMARK VINA RESULT:      -9.1      0.000      0.000
REMARK  6 active torsions:
REMARK  status: ('A' for Active; 'I' for Inactive)
REMARK    1  A    between atoms: C_5  and  C_6 
REMARK    2  A    between atoms: C_12  and  C_13 
REMARK       I    between atoms: C_13  and  N_14 
REMARK    3  A    between atoms: N_14  and  C_15 
REMARK    4  A    between atoms: C_18  and  C_19 
REMARK    5  A    between atoms: C_19  and  O_20 
REMARK    6  A    between atoms: C_25  and  C_26 
ROOT
HETATM    1  C   UNL     1     -43.653  55.856 -53.691  1.00  0.00     0.118 C 
HETATM    2  N   UNL     1     -43.947  56.314 -55.061  1.00  0.00    -0.365 N 
HETATM    3  C   UNL     1     -43.247  57.358 -55.594  1.00  0.00     0.138 A 
HETATM    4  N   UNL     1     -42.443  58.154 -54.812  1.00  0.00    -0.240 N 
HETATM    5  N   UNL     1     -41.939  59.214 -55.460  1.00  0.00    -0.181 NA
HETATM    6  C   UNL     1     -42.344  59.023 -56.720  1.00  0.00     0.160 A 
HETATM    7  C   UNL     1     -43.164  57.878 -56.873  1.00  0.00     0.096 A 
HETATM    8  C   UNL     1     -42.287  58.019 -53.377  1.00  0.00     0.221 C 
HETATM    9  C   UNL     1     -43.365  57.081 -52.805  1.00  0.00     0.066 C 
HETATM   10  H   UNL     1     -44.947  56.268 -55.271  1.00  0.00     0.161 HD
ENDROOT
BRANCH   7  11
HETATM   11  C   UNL     1     -43.759  57.414 -58.119  1.00  0.00     0.261 C 
HETATM   12  N   UNL     1     -45.132  57.561 -58.169  1.00  0.00    -0.323 N 
HETATM   13  H   UNL     1     -45.561  57.910 -57.319  1.00  0.00     0.169 HD
HETATM   14  O   UNL     1     -43.052  56.957 -59.009  1.00  0.00    -0.267 OA
BRANCH  12  15
HETATM   15  C   UNL     1     -45.989  57.327 -59.260  1.00  0.00     0.035 A 
HETATM   16  C   UNL     1     -46.110  56.099 -59.908  1.00  0.00     0.030 A 
HETATM   17  C   UNL     1     -46.953  55.956 -61.020  1.00  0.00     0.012 A 
HETATM   18  C   UNL     1     -47.699  57.035 -61.511  1.00  0.00    -0.030 A 
HETATM   19  C   UNL     1     -47.571  58.266 -60.848  1.00  0.00     0.012 A 
HETATM   20  C   UNL     1     -46.741  58.407 -59.729  1.00  0.00     0.030 A 
BRANCH  18  21
HETATM   21  C   UNL     1     -48.553  56.934 -62.763  1.00  0.00     0.147 C 
HETATM   22  C   UNL     1     -49.202  58.235 -63.233  1.00  0.00     0.044 C 
BRANCH  21  23
HETATM   23  O   UNL     1     -47.755  56.434 -63.840  1.00  0.00    -0.391 OA
HETATM   24  H   UNL     1     -47.389  57.204 -64.307  1.00  0.00     0.210 HD
ENDBRANCH  21  23
ENDBRANCH  18  21
ENDBRANCH  12  15
ENDBRANCH   7  11
BRANCH   1  25
HETATM   25  C   UNL     1     -42.595  54.762 -53.654  1.00  0.00    -0.035 A 
HETATM   26  C   UNL     1     -42.019  54.228 -54.819  1.00  0.00     0.010 A 
HETATM   27  C   UNL     1     -41.028  53.243 -54.754  1.00  0.00     0.007 A 
HETATM   28  C   UNL     1     -40.588  52.761 -53.520  1.00  0.00    -0.062 A 
HETATM   29  C   UNL     1     -39.523  51.707 -53.447  1.00  0.00     0.048 C 
HETATM   30  C   UNL     1     -41.190  53.242 -52.355  1.00  0.00     0.007 A 
HETATM   31  C   UNL     1     -42.184  54.225 -52.421  1.00  0.00     0.010 A 
ENDBRANCH   1  25
BRANCH   8  32
HETATM   32  C   UNL     1     -40.866  57.623 -53.038  1.00  0.00     0.409 C 
HETATM   33  F   UNL     1     -40.304  56.781 -53.923  1.00  0.00    -0.169 F 
HETATM   34  F   UNL     1     -40.053  58.700 -52.929  1.00  0.00    -0.169 F 
HETATM   35  F   UNL     1     -40.836  57.009 -51.825  1.00  0.00    -0.169 F 
ENDBRANCH   8  32
TORSDOF 6
ENDMDL
MODEL 2
REMARK VINA RESULT:      -8.5      3.977      8.521
REMARK  6 active torsions:
REMARK  status: ('A' for Active; 'I' for Inactive)
REMARK    1  A    between atoms: C_5  and  C_6 
REMARK    2  A    between atoms: C_12  and  C_13 
REMARK       I    between atoms: C_13  and  N_14 
REMARK    3  A    between atoms: N_14  and  C_15 
REMARK    4  A    between atoms: C_18  and  C_19 
REMARK    5  A    between atoms: C_19  and  O_20 
REMARK    6  A    between atoms: C_25  and  C_26 
ROOT
HETATM    1  C   UNL     1     -42.138  57.758 -57.097  1.00  0.00     0.118 C 
HETATM    2  N   UNL     1     -42.164  57.043 -55.808  1.00  0.00    -0.365 N 
HETATM    3  C   UNL     1     -43.172  57.278 -54.919  1.00  0.00     0.138 A 
HETATM    4  N   UNL     1     -44.035  58.338 -55.080  1.00  0.00    -0.240 N 
HETATM    5  N   UNL     1     -44.876  58.510 -54.050  1.00  0.00    -0.181 NA
HETATM    6  C   UNL     1     -44.615  57.460 -53.264  1.00  0.00     0.160 A 
HETATM    7  C   UNL     1     -43.562  56.648 -53.751  1.00  0.00     0.096 A 
HETATM    8  C   UNL     1     -43.951  59.322 -56.141  1.00  0.00     0.221 C 
HETATM    9  C   UNL     1     -42.601  59.208 -56.872  1.00  0.00     0.066 C 
HETATM   10  H   UNL     1     -41.224  56.917 -55.424  1.00  0.00     0.161 HD
ENDROOT
BRANCH   7  11
HETATM   11  C   UNL     1     -43.048  55.442 -53.114  1.00  0.00     0.261 C 
HETATM   12  N   UNL     1     -42.143  54.746 -53.891  1.00  0.00    -0.323 N 
HETATM   13  H   UNL     1     -41.997  55.117 -54.823  1.00  0.00     0.169 HD
HETATM   14  O   UNL     1     -43.414  55.136 -51.986  1.00  0.00    -0.267 OA
BRANCH  12  15
HETATM   15  C   UNL     1     -41.379  53.620 -53.532  1.00  0.00     0.035 A 
HETATM   16  C   UNL     1     -41.140  52.537 -54.376  1.00  0.00     0.030 A 
HETATM   17  C   UNL     1     -40.406  51.429 -53.928  1.00  0.00     0.012 A 
HETATM   18  C   UNL     1     -39.890  51.375 -52.626  1.00  0.00    -0.030 A 
HETATM   19  C   UNL     1     -40.136  52.473 -51.787  1.00  0.00     0.012 A 
HETATM   20  C   UNL     1     -40.855  53.586 -52.237  1.00  0.00     0.030 A 
BRANCH  18  21
HETATM   21  C   UNL     1     -39.166  50.154 -52.085  1.00  0.00     0.147 C 
HETATM   22  C   UNL     1     -39.554  49.723 -50.672  1.00  0.00     0.044 C 
BRANCH  21  23
HETATM   23  O   UNL     1     -39.399  49.043 -52.957  1.00  0.00    -0.391 OA
HETATM   24  H   UNL     1     -38.533  48.756 -53.292  1.00  0.00     0.210 HD
ENDBRANCH  21  23
ENDBRANCH  18  21
ENDBRANCH  12  15
ENDBRANCH   7  11
BRANCH   1  25
HETATM   25  C   UNL     1     -42.869  57.004 -58.200  1.00  0.00    -0.035 A 
HETATM   26  C   UNL     1     -43.322  55.684 -58.040  1.00  0.00     0.010 A 
HETATM   27  C   UNL     1     -44.016  55.026 -59.060  1.00  0.00     0.007 A 
HETATM   28  C   UNL     1     -44.272  55.669 -60.273  1.00  0.00    -0.062 A 
HETATM   29  C   UNL     1     -45.018  54.966 -61.368  1.00  0.00     0.048 C 
HETATM   30  C   UNL     1     -43.779  56.962 -60.467  1.00  0.00     0.007 A 
HETATM   31  C   UNL     1     -43.082  57.618 -59.447  1.00  0.00     0.010 A 
ENDBRANCH   1  25
BRANCH   8  32
HETATM   32  C   UNL     1     -45.163  59.229 -57.042  1.00  0.00     0.409 C 
HETATM   33  F   UNL     1     -44.950  59.657 -58.298  1.00  0.00    -0.169 F 
HETATM   34  F   UNL     1     -45.638  57.963 -57.120  1.00  0.00    -0.169 F 
HETATM   35  F   UNL     1     -46.177  59.976 -56.529  1.00  0.00    -0.169 F 
ENDBRANCH   8  32
TORSDOF 6
ENDMDL
MODEL 3
REMARK VINA RESULT:      -8.0      3.992      8.302
REMARK  6 active torsions:
REMARK  status: ('A' for Active; 'I' for Inactive)
REMARK    1  A    between atoms: C_5  and  C_6 
REMARK    2  A    between atoms: C_12  and  C_13 
REMARK       I    between atoms: C_13  and  N_14 
REMARK    3  A    between atoms: N_14  and  C_15 
REMARK    4  A    between atoms: C_18  and  C_19 
REMARK    5  A    between atoms: C_19  and  O_20 
REMARK    6  A    between atoms: C_25  and  C_26 
ROOT
HETATM    1  C   UNL     1     -45.360  58.268 -54.592  1.00  0.00     0.118 C 
HETATM    2  N   UNL     1     -44.693  56.983 -54.871  1.00  0.00    -0.365 N 
HETATM    3  C   UNL     1     -43.715  56.917 -55.820  1.00  0.00     0.138 A 
HETATM    4  N   UNL     1     -43.495  57.955 -56.696  1.00  0.00    -0.240 N 
HETATM    5  N   UNL     1     -42.596  57.674 -57.651  1.00  0.00    -0.181 NA
HETATM    6  C   UNL     1     -42.148  56.464 -57.302  1.00  0.00     0.160 A 
HETATM    7  C   UNL     1     -42.804  55.934 -56.164  1.00  0.00     0.096 A 
HETATM    8  C   UNL     1     -44.278  59.174 -56.750  1.00  0.00     0.221 C 
HETATM    9  C   UNL     1     -45.565  59.023 -55.918  1.00  0.00     0.066 C 
HETATM   10  H   UNL     1     -45.345  56.197 -54.818  1.00  0.00     0.161 HD
ENDROOT
BRANCH   7  11
HETATM   11  C   UNL     1     -42.539  54.639 -55.551  1.00  0.00     0.261 C 
HETATM   12  N   UNL     1     -41.265  54.518 -55.033  1.00  0.00    -0.323 N 
HETATM   13  H   UNL     1     -40.655  55.311 -55.195  1.00  0.00     0.169 HD
HETATM   14  O   UNL     1     -43.414  53.781 -55.520  1.00  0.00    -0.267 OA
BRANCH  12  15
HETATM   15  C   UNL     1     -40.734  53.456 -54.278  1.00  0.00     0.035 A 
HETATM   16  C   UNL     1     -40.331  52.237 -54.822  1.00  0.00     0.030 A 
HETATM   17  C   UNL     1     -39.854  51.208 -53.997  1.00  0.00     0.012 A 
HETATM   18  C   UNL     1     -39.765  51.370 -52.608  1.00  0.00    -0.030 A 
HETATM   19  C   UNL     1     -40.172  52.603 -52.073  1.00  0.00     0.012 A 
HETATM   20  C   UNL     1     -40.634  53.636 -52.896  1.00  0.00     0.030 A 
BRANCH  18  21
HETATM   21  C   UNL     1     -39.335  50.246 -51.681  1.00  0.00     0.147 C 
HETATM   22  C   UNL     1     -40.111  50.132 -50.370  1.00  0.00     0.044 C 
BRANCH  21  23
HETATM   23  O   UNL     1     -39.456  48.996 -52.367  1.00  0.00    -0.391 OA
HETATM   24  H   UNL     1     -38.983  48.332 -51.837  1.00  0.00     0.210 HD
ENDBRANCH  21  23
ENDBRANCH  18  21
ENDBRANCH  12  15
ENDBRANCH   7  11
BRANCH   1  25
HETATM   25  C   UNL     1     -44.669  59.061 -53.492  1.00  0.00    -0.035 A 
HETATM   26  C   UNL     1     -43.503  58.607 -52.852  1.00  0.00     0.010 A 
HETATM   27  C   UNL     1     -42.873  59.369 -51.864  1.00  0.00     0.007 A 
HETATM   28  C   UNL     1     -43.395  60.606 -51.483  1.00  0.00    -0.062 A 
HETATM   29  C   UNL     1     -42.720  61.428 -50.424  1.00  0.00     0.048 C 
HETATM   30  C   UNL     1     -44.584  61.046 -52.071  1.00  0.00     0.007 A 
HETATM   31  C   UNL     1     -45.215  60.281 -53.057  1.00  0.00     0.010 A 
ENDBRANCH   1  25
BRANCH   8  32
HETATM   32  C   UNL     1     -43.423  60.364 -56.373  1.00  0.00     0.409 C 
HETATM   33  F   UNL     1     -44.098  61.358 -55.770  1.00  0.00    -0.169 F 
HETATM   34  F   UNL     1     -42.401  60.013 -55.556  1.00  0.00    -0.169 F 
HETATM   35  F   UNL     1     -42.845  60.888 -57.487  1.00  0.00    -0.169 F 
ENDBRANCH   8  32
TORSDOF 6
ENDMDL
MODEL 4
REMARK VINA RESULT:      -7.9      3.334      8.825
REMARK  6 active torsions:
REMARK  status: ('A' for Active; 'I' for Inactive)
REMARK    1  A    between atoms: C_5  and  C_6 
REMARK    2  A    between atoms: C_12  and  C_13 
REMARK       I    between atoms: C_13  and  N_14 
REMARK    3  A    between atoms: N_14  and  C_15 
REMARK    4  A    between atoms: C_18  and  C_19 
REMARK    5  A    between atoms: C_19  and  O_20 
REMARK    6  A    between atoms: C_25  and  C_26 
ROOT
HETATM    1  C   UNL     1     -43.183  58.748 -58.558  1.00  0.00     0.118 C 
HETATM    2  N   UNL     1     -42.632  57.768 -57.605  1.00  0.00    -0.365 N 
HETATM    3  C   UNL     1     -43.042  57.780 -56.303  1.00  0.00     0.138 A 
HETATM    4  N   UNL     1     -43.771  58.828 -55.792  1.00  0.00    -0.240 N 
HETATM    5  N   UNL     1     -43.972  58.751 -54.468  1.00  0.00    -0.181 NA
HETATM    6  C   UNL     1     -43.454  57.561 -54.149  1.00  0.00     0.160 A 
HETATM    7  C   UNL     1     -42.858  56.900 -55.251  1.00  0.00     0.096 A 
HETATM    8  C   UNL     1     -44.133  60.023 -56.529  1.00  0.00     0.221 C 
HETATM    9  C   UNL     1     -43.339  60.104 -57.845  1.00  0.00     0.066 C 
HETATM   10  H   UNL     1     -41.642  57.582 -57.780  1.00  0.00     0.161 HD
ENDROOT
BRANCH   7  11
HETATM   11  C   UNL     1     -42.209  55.596 -55.217  1.00  0.00     0.261 C 
HETATM   12  N   UNL     1     -41.572  55.323 -54.022  1.00  0.00    -0.323 N 
HETATM   13  H   UNL     1     -41.578  56.078 -53.346  1.00  0.00     0.169 HD
HETATM   14  O   UNL     1     -42.269  54.850 -56.187  1.00  0.00    -0.267 OA
BRANCH  12  15
HETATM   15  C   UNL     1     -40.960  54.121 -53.622  1.00  0.00     0.035 A 
HETATM   16  C   UNL     1     -40.458  53.168 -54.507  1.00  0.00     0.030 A 
HETATM   17  C   UNL     1     -39.902  51.972 -54.032  1.00  0.00     0.012 A 
HETATM   18  C   UNL     1     -39.831  51.697 -52.659  1.00  0.00    -0.030 A 
HETATM   19  C   UNL     1     -40.337  52.665 -51.778  1.00  0.00     0.012 A 
HETATM   20  C   UNL     1     -40.879  53.867 -52.250  1.00  0.00     0.030 A 
BRANCH  18  21
HETATM   21  C   UNL     1     -39.315  50.375 -52.118  1.00  0.00     0.147 C 
HETATM   22  C   UNL     1     -39.796  49.996 -50.718  1.00  0.00     0.044 C 
BRANCH  21  23
HETATM   23  O   UNL     1     -39.695  49.320 -53.006  1.00  0.00    -0.391 OA
HETATM   24  H   UNL     1     -38.939  48.712 -53.069  1.00  0.00     0.210 HD
ENDBRANCH  21  23
ENDBRANCH  18  21
ENDBRANCH  12  15
ENDBRANCH   7  11
BRANCH   1  25
HETATM   25  C   UNL     1     -44.429  58.239 -59.269  1.00  0.00    -0.035 A 
HETATM   26  C   UNL     1     -45.210  59.055 -60.104  1.00  0.00     0.010 A 
HETATM   27  C   UNL     1     -46.334  58.553 -60.767  1.00  0.00     0.007 A 
HETATM   28  C   UNL     1     -46.711  57.218 -60.609  1.00  0.00    -0.062 A 
HETATM   29  C   UNL     1     -47.914  56.675 -61.322  1.00  0.00     0.048 C 
HETATM   30  C   UNL     1     -45.976  56.408 -59.740  1.00  0.00     0.007 A 
HETATM   31  C   UNL     1     -44.854  56.913 -59.075  1.00  0.00     0.010 A 
ENDBRANCH   1  25
BRANCH   8  32
HETATM   32  C   UNL     1     -45.635  60.102 -56.695  1.00  0.00     0.409 C 
HETATM   33  F   UNL     1     -46.237  58.908 -56.831  1.00  0.00    -0.169 F 
HETATM   34  F   UNL     1     -46.226  60.738 -55.657  1.00  0.00    -0.169 F 
HETATM   35  F   UNL     1     -45.938  60.833 -57.801  1.00  0.00    -0.169 F 
ENDBRANCH   8  32
TORSDOF 6
ENDMDL
MODEL 5
REMARK VINA RESULT:      -7.7     16.866     21.163
REMARK  6 active torsions:
REMARK  status: ('A' for Active; 'I' for Inactive)
REMARK    1  A    between atoms: C_5  and  C_6 
REMARK    2  A    between atoms: C_12  and  C_13 
REMARK       I    between atoms: C_13  and  N_14 
REMARK    3  A    between atoms: N_14  and  C_15 
REMARK    4  A    between atoms: C_18  and  C_19 
REMARK    5  A    between atoms: C_19  and  O_20 
REMARK    6  A    between atoms: C_25  and  C_26 
ROOT
HETATM    1  C   UNL     1     -34.379  40.265 -56.774  1.00  0.00     0.118 C 
HETATM    2  N   UNL     1     -34.051  40.092 -55.347  1.00  0.00    -0.365 N 
HETATM    3  C   UNL     1     -34.720  40.815 -54.403  1.00  0.00     0.138 A 
HETATM    4  N   UNL     1     -35.522  41.877 -54.751  1.00  0.00    -0.240 N 
HETATM    5  N   UNL     1     -35.993  42.565 -53.700  1.00  0.00    -0.181 NA
HETATM    6  C   UNL     1     -35.569  41.850 -52.652  1.00  0.00     0.160 A 
HETATM    7  C   UNL     1     -34.770  40.741 -53.022  1.00  0.00     0.096 A 
HETATM    8  C   UNL     1     -35.708  42.369 -56.102  1.00  0.00     0.221 C 
HETATM    9  C   UNL     1     -34.658  41.754 -57.045  1.00  0.00     0.066 C 
HETATM   10  H   UNL     1     -33.049  39.950 -55.202  1.00  0.00     0.161 HD
ENDROOT
BRANCH   7  11
HETATM   11  C   UNL     1     -34.161  39.783 -52.108  1.00  0.00     0.261 C 
HETATM   12  N   UNL     1     -33.857  40.313 -50.869  1.00  0.00    -0.323 N 
HETATM   13  H   UNL     1     -34.033  41.306 -50.768  1.00  0.00     0.169 HD
HETATM   14  O   UNL     1     -33.974  38.625 -52.462  1.00  0.00    -0.267 OA
BRANCH  12  15
HETATM   15  C   UNL     1     -33.378  39.636 -49.732  1.00  0.00     0.035 A 
HETATM   16  C   UNL     1     -34.095  38.656 -49.047  1.00  0.00     0.030 A 
HETATM   17  C   UNL     1     -33.569  38.059 -47.893  1.00  0.00     0.012 A 
HETATM   18  C   UNL     1     -32.310  38.422 -47.394  1.00  0.00    -0.030 A 
HETATM   19  C   UNL     1     -31.597  39.408 -48.094  1.00  0.00     0.012 A 
HETATM   20  C   UNL     1     -32.115  39.995 -49.255  1.00  0.00     0.030 A 
BRANCH  18  21
HETATM   21  C   UNL     1     -31.751  37.857 -46.100  1.00  0.00     0.147 C 
HETATM   22  C   UNL     1     -31.214  38.883 -45.104  1.00  0.00     0.044 C 
BRANCH  21  23
HETATM   23  O   UNL     1     -32.768  37.100 -45.437  1.00  0.00    -0.391 OA
HETATM   24  H   UNL     1     -33.493  36.976 -46.073  1.00  0.00     0.210 HD
ENDBRANCH  21  23
ENDBRANCH  18  21
ENDBRANCH  12  15
ENDBRANCH   7  11
BRANCH   1  25
HETATM   25  C   UNL     1     -35.460  39.302 -57.248  1.00  0.00    -0.035 A 
HETATM   26  C   UNL     1     -36.049  38.350 -56.399  1.00  0.00     0.010 A 
HETATM   27  C   UNL     1     -37.059  37.498 -56.853  1.00  0.00     0.007 A 
HETATM   28  C   UNL     1     -37.507  37.570 -58.173  1.00  0.00    -0.062 A 
HETATM   29  C   UNL     1     -38.593  36.659 -58.664  1.00  0.00     0.048 C 
HETATM   30  C   UNL     1     -36.893  38.474 -59.045  1.00  0.00     0.007 A 
HETATM   31  C   UNL     1     -35.879  39.324 -58.589  1.00  0.00     0.010 A 
ENDBRANCH   1  25
BRANCH   8  32
HETATM   32  C   UNL     1     -37.141  42.170 -56.541  1.00  0.00     0.409 C 
HETATM   33  F   UNL     1     -37.712  41.048 -56.068  1.00  0.00    -0.169 F 
HETATM   34  F   UNL     1     -37.930  43.209 -56.180  1.00  0.00    -0.169 F 
HETATM   35  F   UNL     1     -37.203  42.110 -57.899  1.00  0.00    -0.169 F 
ENDBRANCH   8  32
TORSDOF 6
ENDMDL
MODEL 6
REMARK VINA RESULT:      -7.7      5.499      8.979
REMARK  6 active torsions:
REMARK  status: ('A' for Active; 'I' for Inactive)
REMARK    1  A    between atoms: C_5  and  C_6 
REMARK    2  A    between atoms: C_12  and  C_13 
REMARK       I    between atoms: C_13  and  N_14 
REMARK    3  A    between atoms: N_14  and  C_15 
REMARK    4  A    between atoms: C_18  and  C_19 
REMARK    5  A    between atoms: C_19  and  O_20 
REMARK    6  A    between atoms: C_25  and  C_26 
ROOT
HETATM    1  C   UNL     1     -45.763  60.012 -52.818  1.00  0.00     0.118 C 
HETATM    2  N   UNL     1     -44.931  58.802 -52.950  1.00  0.00    -0.365 N 
HETATM    3  C   UNL     1     -43.626  58.912 -53.333  1.00  0.00     0.138 A 
HETATM    4  N   UNL     1     -43.125  60.090 -53.835  1.00  0.00    -0.240 N 
HETATM    5  N   UNL     1     -41.868  59.991 -54.293  1.00  0.00    -0.181 NA
HETATM    6  C   UNL     1     -41.523  58.741 -53.968  1.00  0.00     0.160 A 
HETATM    7  C   UNL     1     -42.576  58.012 -53.362  1.00  0.00     0.096 A 
HETATM    8  C   UNL     1     -43.901  61.295 -54.057  1.00  0.00     0.221 C 
HETATM    9  C   UNL     1     -45.406  60.989 -53.953  1.00  0.00     0.066 C 
HETATM   10  H   UNL     1     -45.463  58.015 -53.327  1.00  0.00     0.161 HD
ENDROOT
BRANCH   7  11
HETATM   11  C   UNL     1     -42.507  56.630 -52.905  1.00  0.00     0.261 C 
HETATM   12  N   UNL     1     -41.357  55.972 -53.296  1.00  0.00    -0.323 N 
HETATM   13  H   UNL     1     -40.739  56.501 -53.900  1.00  0.00     0.169 HD
HETATM   14  O   UNL     1     -43.412  56.158 -52.227  1.00  0.00    -0.267 OA
BRANCH  12  15
HETATM   15  C   UNL     1     -40.929  54.683 -52.926  1.00  0.00     0.035 A 
HETATM   16  C   UNL     1     -40.653  54.299 -51.615  1.00  0.00     0.030 A 
HETATM   17  C   UNL     1     -40.185  53.008 -51.330  1.00  0.00     0.012 A 
HETATM   18  C   UNL     1     -39.983  52.066 -52.348  1.00  0.00    -0.030 A 
HETATM   19  C   UNL     1     -40.267  52.464 -53.664  1.00  0.00     0.012 A 
HETATM   20  C   UNL     1     -40.749  53.748 -53.948  1.00  0.00     0.030 A 
BRANCH  18  21
HETATM   21  C   UNL     1     -39.396  50.691 -52.082  1.00  0.00     0.147 C 
HETATM   22  C   UNL     1     -39.783  50.049 -50.751  1.00  0.00     0.044 C 
BRANCH  21  23
HETATM   23  O   UNL     1     -39.794  49.797 -53.126  1.00  0.00    -0.391 OA
HETATM   24  H   UNL     1     -40.430  50.276 -53.685  1.00  0.00     0.210 HD
ENDBRANCH  21  23
ENDBRANCH  18  21
ENDBRANCH  12  15
ENDBRANCH   7  11
BRANCH   1  25
HETATM   25  C   UNL     1     -45.723  60.601 -51.415  1.00  0.00    -0.035 A 
HETATM   26  C   UNL     1     -44.931  60.057 -50.389  1.00  0.00     0.010 A 
HETATM   27  C   UNL     1     -44.892  60.635 -49.117  1.00  0.00     0.007 A 
HETATM   28  C   UNL     1     -45.649  61.773 -48.833  1.00  0.00    -0.062 A 
HETATM   29  C   UNL     1     -45.606  62.398 -47.469  1.00  0.00     0.048 C 
HETATM   30  C   UNL     1     -46.483  62.294 -49.825  1.00  0.00     0.007 A 
HETATM   31  C   UNL     1     -46.524  61.712 -51.097  1.00  0.00     0.010 A 
ENDBRANCH   1  25
BRANCH   8  32
HETATM   32  C   UNL     1     -43.421  62.404 -53.147  1.00  0.00     0.409 C 
HETATM   33  F   UNL     1     -42.869  61.974 -51.999  1.00  0.00    -0.169 F 
HETATM   34  F   UNL     1     -42.514  63.202 -53.759  1.00  0.00    -0.169 F 
HETATM   35  F   UNL     1     -44.464  63.211 -52.815  1.00  0.00    -0.169 F 
ENDBRANCH   8  32
TORSDOF 6
ENDMDL
MODEL 7
REMARK VINA RESULT:      -7.6     17.363     19.299
REMARK  6 active torsions:
REMARK  status: ('A' for Active; 'I' for Inactive)
REMARK    1  A    between atoms: C_5  and  C_6 
REMARK    2  A    between atoms: C_12  and  C_13 
REMARK       I    between atoms: C_13  and  N_14 
REMARK    3  A    between atoms: N_14  and  C_15 
REMARK    4  A    between atoms: C_18  and  C_19 
REMARK    5  A    between atoms: C_19  and  O_20 
REMARK    6  A    between atoms: C_25  and  C_26 
ROOT
HETATM    1  C   UNL     1     -34.955  38.911 -55.413  1.00  0.00     0.118 C 
HETATM    2  N   UNL     1     -35.772  38.840 -54.188  1.00  0.00    -0.365 N 
HETATM    3  C   UNL     1     -36.157  39.989 -53.560  1.00  0.00     0.138 A 
HETATM    4  N   UNL     1     -35.607  41.205 -53.892  1.00  0.00    -0.240 N 
HETATM    5  N   UNL     1     -35.990  42.208 -53.089  1.00  0.00    -0.181 NA
HETATM    6  C   UNL     1     -36.897  41.633 -52.293  1.00  0.00     0.160 A 
HETATM    7  C   UNL     1     -37.052  40.247 -52.537  1.00  0.00     0.096 A 
HETATM    8  C   UNL     1     -34.558  41.401 -54.874  1.00  0.00     0.221 C 
HETATM    9  C   UNL     1     -33.931  40.050 -55.265  1.00  0.00     0.066 C 
HETATM   10  H   UNL     1     -35.500  38.053 -53.594  1.00  0.00     0.161 HD
ENDROOT
BRANCH   7  11
HETATM   11  C   UNL     1     -37.958  39.351 -51.830  1.00  0.00     0.261 C 
HETATM   12  N   UNL     1     -39.224  39.871 -51.646  1.00  0.00    -0.323 N 
HETATM   13  H   UNL     1     -39.350  40.825 -51.963  1.00  0.00     0.169 HD
HETATM   14  O   UNL     1     -37.575  38.244 -51.469  1.00  0.00    -0.267 OA
BRANCH  12  15
HETATM   15  C   UNL     1     -40.357  39.226 -51.115  1.00  0.00     0.035 A 
HETATM   16  C   UNL     1     -40.301  38.206 -50.166  1.00  0.00     0.030 A 
HETATM   17  C   UNL     1     -41.473  37.580 -49.718  1.00  0.00     0.012 A 
HETATM   18  C   UNL     1     -42.732  37.957 -50.205  1.00  0.00    -0.030 A 
HETATM   19  C   UNL     1     -42.775  38.987 -51.158  1.00  0.00     0.012 A 
HETATM   20  C   UNL     1     -41.607  39.623 -51.595  1.00  0.00     0.030 A 
BRANCH  18  21
HETATM   21  C   UNL     1     -44.009  37.240 -49.805  1.00  0.00     0.147 C 
HETATM   22  C   UNL     1     -44.548  37.568 -48.413  1.00  0.00     0.044 C 
BRANCH  21  23
HETATM   23  O   UNL     1     -45.038  37.546 -50.751  1.00  0.00    -0.391 OA
HETATM   24  H   UNL     1     -45.154  36.760 -51.312  1.00  0.00     0.210 HD
ENDBRANCH  21  23
ENDBRANCH  18  21
ENDBRANCH  12  15
ENDBRANCH   7  11
BRANCH   1  25
HETATM   25  C   UNL     1     -35.799  38.954 -56.679  1.00  0.00    -0.035 A 
HETATM   26  C   UNL     1     -37.201  39.049 -56.650  1.00  0.00     0.010 A 
HETATM   27  C   UNL     1     -37.949  39.115 -57.829  1.00  0.00     0.007 A 
HETATM   28  C   UNL     1     -37.316  39.084 -59.073  1.00  0.00    -0.062 A 
HETATM   29  C   UNL     1     -38.116  39.158 -60.340  1.00  0.00     0.048 C 
HETATM   30  C   UNL     1     -35.928  38.935 -59.119  1.00  0.00     0.007 A 
HETATM   31  C   UNL     1     -35.180  38.865 -57.938  1.00  0.00     0.010 A 
ENDBRANCH   1  25
BRANCH   8  32
HETATM   32  C   UNL     1     -35.076  42.213 -56.041  1.00  0.00     0.409 C 
HETATM   33  F   UNL     1     -34.525  41.891 -57.224  1.00  0.00    -0.169 F 
HETATM   34  F   UNL     1     -36.419  42.105 -56.176  1.00  0.00    -0.169 F 
HETATM   35  F   UNL     1     -34.829  43.534 -55.829  1.00  0.00    -0.169 F 
ENDBRANCH   8  32
TORSDOF 6
ENDMDL
MODEL 8
REMARK VINA RESULT:      -7.6      5.541      8.960
REMARK  6 active torsions:
REMARK  status: ('A' for Active; 'I' for Inactive)
REMARK    1  A    between atoms: C_5  and  C_6 
REMARK    2  A    between atoms: C_12  and  C_13 
REMARK       I    between atoms: C_13  and  N_14 
REMARK    3  A    between atoms: N_14  and  C_15 
REMARK    4  A    between atoms: C_18  and  C_19 
REMARK    5  A    between atoms: C_19  and  O_20 
REMARK    6  A    between atoms: C_25  and  C_26 
ROOT
HETATM    1  C   UNL     1     -40.765  56.300 -53.340  1.00  0.00     0.118 C 
HETATM    2  N   UNL     1     -41.400  57.474 -52.712  1.00  0.00    -0.365 N 
HETATM    3  C   UNL     1     -42.748  57.657 -52.822  1.00  0.00     0.138 A 
HETATM    4  N   UNL     1     -43.503  56.916 -53.702  1.00  0.00    -0.240 N 
HETATM    5  N   UNL     1     -44.780  57.315 -53.786  1.00  0.00    -0.181 NA
HETATM    6  C   UNL     1     -44.867  58.264 -52.849  1.00  0.00     0.160 A 
HETATM    7  C   UNL     1     -43.632  58.526 -52.206  1.00  0.00     0.096 A 
HETATM    8  C   UNL     1     -42.973  55.926 -54.619  1.00  0.00     0.221 C 
HETATM    9  C   UNL     1     -41.439  56.036 -54.699  1.00  0.00     0.066 C 
HETATM   10  H   UNL     1     -40.810  58.306 -52.777  1.00  0.00     0.161 HD
ENDROOT
BRANCH   7  11
HETATM   11  C   UNL     1     -43.408  59.505 -51.150  1.00  0.00     0.261 C 
HETATM   12  N   UNL     1     -44.538  60.224 -50.811  1.00  0.00    -0.323 N 
HETATM   13  H   UNL     1     -45.359  60.032 -51.373  1.00  0.00     0.169 HD
HETATM   14  O   UNL     1     -42.300  59.623 -50.642  1.00  0.00    -0.267 OA
BRANCH  12  15
HETATM   15  C   UNL     1     -44.691  61.150 -49.762  1.00  0.00     0.035 A 
HETATM   16  C   UNL     1     -44.188  62.450 -49.788  1.00  0.00     0.030 A 
HETATM   17  C   UNL     1     -44.342  63.300 -48.684  1.00  0.00     0.012 A 
HETATM   18  C   UNL     1     -45.006  62.875 -47.525  1.00  0.00    -0.030 A 
HETATM   19  C   UNL     1     -45.511  61.565 -47.512  1.00  0.00     0.012 A 
HETATM   20  C   UNL     1     -45.370  60.720 -48.620  1.00  0.00     0.030 A 
BRANCH  18  21
HETATM   21  C   UNL     1     -45.113  63.741 -46.282  1.00  0.00     0.147 C 
HETATM   22  C   UNL     1     -46.375  64.595 -46.173  1.00  0.00     0.044 C 
BRANCH  21  23
HETATM   23  O   UNL     1     -45.051  62.909 -45.119  1.00  0.00    -0.391 OA
HETATM   24  H   UNL     1     -45.967  62.722 -44.852  1.00  0.00     0.210 HD
ENDBRANCH  21  23
ENDBRANCH  18  21
ENDBRANCH  12  15
ENDBRANCH   7  11
BRANCH   1  25
HETATM   25  C   UNL     1     -40.692  55.102 -52.404  1.00  0.00    -0.035 A 
HETATM   26  C   UNL     1     -41.006  55.191 -51.037  1.00  0.00     0.010 A 
HETATM   27  C   UNL     1     -40.958  54.068 -50.207  1.00  0.00     0.007 A 
HETATM   28  C   UNL     1     -40.589  52.823 -50.719  1.00  0.00    -0.062 A 
HETATM   29  C   UNL     1     -40.539  51.615 -49.830  1.00  0.00     0.048 C 
HETATM   30  C   UNL     1     -40.221  52.729 -52.064  1.00  0.00     0.007 A 
HETATM   31  C   UNL     1     -40.267  53.855 -52.893  1.00  0.00     0.010 A 
ENDBRANCH   1  25
BRANCH   8  32
HETATM   32  C   UNL     1     -43.486  54.549 -54.259  1.00  0.00     0.409 C 
HETATM   33  F   UNL     1     -43.583  54.326 -52.937  1.00  0.00    -0.169 F 
HETATM   34  F   UNL     1     -44.703  54.306 -54.801  1.00  0.00    -0.169 F 
HETATM   35  F   UNL     1     -42.655  53.600 -54.767  1.00  0.00    -0.169 F 
ENDBRANCH   8  32
TORSDOF 6
ENDMDL
MODEL 9
REMARK VINA RESULT:      -7.5      1.938      4.080
REMARK  6 active torsions:
REMARK  status: ('A' for Active; 'I' for Inactive)
REMARK    1  A    between atoms: C_5  and  C_6 
REMARK    2  A    between atoms: C_12  and  C_13 
REMARK       I    between atoms: C_13  and  N_14 
REMARK    3  A    between atoms: N_14  and  C_15 
REMARK    4  A    between atoms: C_18  and  C_19 
REMARK    5  A    between atoms: C_19  and  O_20 
REMARK    6  A    between atoms: C_25  and  C_26 
ROOT
HETATM    1  C   UNL     1     -41.494  59.073 -54.055  1.00  0.00     0.118 C 
HETATM    2  N   UNL     1     -41.997  58.680 -55.384  1.00  0.00    -0.365 N 
HETATM    3  C   UNL     1     -42.235  57.364 -55.660  1.00  0.00     0.138 A 
HETATM    4  N   UNL     1     -41.793  56.366 -54.822  1.00  0.00    -0.240 N 
HETATM    5  N   UNL     1     -41.986  55.131 -55.306  1.00  0.00    -0.181 NA
HETATM    6  C   UNL     1     -42.673  55.347 -56.432  1.00  0.00     0.160 A 
HETATM    7  C   UNL     1     -42.865  56.723 -56.711  1.00  0.00     0.096 A 
HETATM    8  C   UNL     1     -41.010  56.578 -53.621  1.00  0.00     0.221 C 
HETATM    9  C   UNL     1     -40.477  58.022 -53.576  1.00  0.00     0.066 C 
HETATM   10  H   UNL     1     -41.584  59.244 -56.130  1.00  0.00     0.161 HD
ENDROOT
BRANCH   7  11
HETATM   11  C   UNL     1     -43.567  57.271 -57.864  1.00  0.00     0.261 C 
HETATM   12  N   UNL     1     -44.666  56.529 -58.251  1.00  0.00    -0.323 N 
HETATM   13  H   UNL     1     -44.812  55.669 -57.734  1.00  0.00     0.169 HD
HETATM   14  O   UNL     1     -43.177  58.307 -58.390  1.00  0.00    -0.267 OA
BRANCH  12  15
HETATM   15  C   UNL     1     -45.619  56.842 -59.239  1.00  0.00     0.035 A 
HETATM   16  C   UNL     1     -46.309  58.051 -59.301  1.00  0.00     0.030 A 
HETATM   17  C   UNL     1     -47.279  58.272 -60.290  1.00  0.00     0.012 A 
HETATM   18  C   UNL     1     -47.582  57.291 -61.244  1.00  0.00    -0.030 A 
HETATM   19  C   UNL     1     -46.878  56.079 -61.172  1.00  0.00     0.012 A 
HETATM   20  C   UNL     1     -45.899  55.863 -60.194  1.00  0.00     0.030 A 
BRANCH  18  21
HETATM   21  C   UNL     1     -48.686  57.467 -62.272  1.00  0.00     0.147 C 
HETATM   22  C   UNL     1     -48.578  58.706 -63.159  1.00  0.00     0.044 C 
BRANCH  21  23
HETATM   23  O   UNL     1     -48.720  56.322 -63.129  1.00  0.00    -0.391 OA
HETATM   24  H   UNL     1     -47.994  55.737 -62.854  1.00  0.00     0.210 HD
ENDBRANCH  21  23
ENDBRANCH  18  21
ENDBRANCH  12  15
ENDBRANCH   7  11
BRANCH   1  25
HETATM   25  C   UNL     1     -42.615  59.390 -53.075  1.00  0.00    -0.035 A 
HETATM   26  C   UNL     1     -43.973  59.238 -53.404  1.00  0.00     0.010 A 
HETATM   27  C   UNL     1     -44.980  59.510 -52.475  1.00  0.00     0.007 A 
HETATM   28  C   UNL     1     -44.659  59.948 -51.189  1.00  0.00    -0.062 A 
HETATM   29  C   UNL     1     -45.738  60.238 -50.188  1.00  0.00     0.048 C 
HETATM   30  C   UNL     1     -43.316  60.157 -50.864  1.00  0.00     0.007 A 
HETATM   31  C   UNL     1     -42.309  59.888 -51.796  1.00  0.00     0.010 A 
ENDBRANCH   1  25
BRANCH   8  32
HETATM   32  C   UNL     1     -41.798  56.161 -52.399  1.00  0.00     0.409 C 
HETATM   33  F   UNL     1     -41.503  56.860 -51.288  1.00  0.00    -0.169 F 
HETATM   34  F   UNL     1     -43.133  56.264 -52.599  1.00  0.00    -0.169 F 
HETATM   35  F   UNL     1     -41.563  54.850 -52.123  1.00  0.00    -0.169 F 
ENDBRANCH   8  32
TORSDOF 6
ENDMDL
MODEL 10
REMARK VINA RESULT:      -7.5      4.955      8.370
REMARK  6 active torsions:
REMARK  status: ('A' for Active; 'I' for Inactive)
REMARK    1  A    between atoms: C_5  and  C_6 
REMARK    2  A    between atoms: C_12  and  C_13 
REMARK       I    between atoms: C_13  and  N_14 
REMARK    3  A    between atoms: N_14  and  C_15 
REMARK    4  A    between atoms: C_18  and  C_19 
REMARK    5  A    between atoms: C_19  and  O_20 
REMARK    6  A    between atoms: C_25  and  C_26 
ROOT
HETATM    1  C   UNL     1     -44.151  56.212 -54.427  1.00  0.00     0.118 C 
HETATM    2  N   UNL     1     -44.098  57.234 -53.365  1.00  0.00    -0.365 N 
HETATM    3  C   UNL     1     -43.034  57.272 -52.511  1.00  0.00     0.138 A 
HETATM    4  N   UNL     1     -42.125  56.240 -52.453  1.00  0.00    -0.240 N 
HETATM    5  N   UNL     1     -41.224  56.370 -51.468  1.00  0.00    -0.181 NA
HETATM    6  C   UNL     1     -41.499  57.575 -50.959  1.00  0.00     0.160 A 
HETATM    7  C   UNL     1     -42.618  58.194 -51.568  1.00  0.00     0.096 A 
HETATM    8  C   UNL     1     -42.212  55.015 -53.222  1.00  0.00     0.221 C 
HETATM    9  C   UNL     1     -43.602  54.886 -53.872  1.00  0.00     0.066 C 
HETATM   10  H   UNL     1     -45.021  57.417 -52.967  1.00  0.00     0.161 HD
ENDROOT
BRANCH   7  11
HETATM   11  C   UNL     1     -43.162  59.502 -51.226  1.00  0.00     0.261 C 
HETATM   12  N   UNL     1     -44.391  59.447 -50.598  1.00  0.00    -0.323 N 
HETATM   13  H   UNL     1     -44.790  58.520 -50.510  1.00  0.00     0.169 HD
HETATM   14  O   UNL     1     -42.532  60.520 -51.487  1.00  0.00    -0.267 OA
BRANCH  12  15
HETATM   15  C   UNL     1     -45.125  60.508 -50.036  1.00  0.00     0.035 A 
HETATM   16  C   UNL     1     -45.138  60.814 -48.677  1.00  0.00     0.030 A 
HETATM   17  C   UNL     1     -45.933  61.860 -48.186  1.00  0.00     0.012 A 
HETATM   18  C   UNL     1     -46.732  62.630 -49.041  1.00  0.00    -0.030 A 
HETATM   19  C   UNL     1     -46.708  62.314 -50.409  1.00  0.00     0.012 A 
HETATM   20  C   UNL     1     -45.904  61.279 -50.902  1.00  0.00     0.030 A 
BRANCH  18  21
HETATM   21  C   UNL     1     -47.668  63.712 -48.530  1.00  0.00     0.147 C 
HETATM   22  C   UNL     1     -48.866  64.030 -49.421  1.00  0.00     0.044 C 
BRANCH  21  23
HETATM   23  O   UNL     1     -48.171  63.333 -47.245  1.00  0.00    -0.391 OA
HETATM   24  H   UNL     1     -48.650  62.495 -47.362  1.00  0.00     0.210 HD
ENDBRANCH  21  23
ENDBRANCH  18  21
ENDBRANCH  12  15
ENDBRANCH   7  11
BRANCH   1  25
HETATM   25  C   UNL     1     -43.520  56.686 -55.728  1.00  0.00    -0.035 A 
HETATM   26  C   UNL     1     -43.402  55.857 -56.857  1.00  0.00     0.010 A 
HETATM   27  C   UNL     1     -42.843  56.327 -58.049  1.00  0.00     0.007 A 
HETATM   28  C   UNL     1     -42.380  57.641 -58.144  1.00  0.00    -0.062 A 
HETATM   29  C   UNL     1     -41.782  58.150 -59.423  1.00  0.00     0.048 C 
HETATM   30  C   UNL     1     -42.440  58.460 -57.014  1.00  0.00     0.007 A 
HETATM   31  C   UNL     1     -42.997  57.987 -55.821  1.00  0.00     0.010 A 
ENDBRANCH   1  25
BRANCH   8  32
HETATM   32  C   UNL     1     -41.054  54.921 -54.192  1.00  0.00     0.409 C 
HETATM   33  F   UNL     1     -41.336  54.250 -55.323  1.00  0.00    -0.169 F 
HETATM   34  F   UNL     1     -40.594  56.143 -54.550  1.00  0.00    -0.169 F 
HETATM   35  F   UNL     1     -40.006  54.287 -53.600  1.00  0.00    -0.169 F 
ENDBRANCH   8  32
TORSDOF 6
ENDMDL
