MODEL 1
REMARK VINA RESULT:      -7.2      0.000      0.000
REMARK  10 active torsions:
REMARK  status: ('A' for Active; 'I' for Inactive)
REMARK    1  A    between atoms: C_2  and  C_3 
REMARK    2  A    between atoms: C_3  and  C_4 
REMARK       I    between atoms: C_4  and  N_5 
REMARK    3  A    between atoms: N_5  and  C_6 
REMARK    4  A    between atoms: C_6  and  N_7 
REMARK    5  A    between atoms: C_6  and  C_21 
REMARK    6  A    between atoms: N_7  and  C_8 
REMARK    7  A    between atoms: C_8  and  N_9 
REMARK    8  A    between atoms: N_9  and  N_10 
REMARK       I    between atoms: N_10  and  C_11 
REMARK    9  A    between atoms: C_11  and  C_12 
REMARK   10  A    between atoms: C_13  and  O_14 
ROOT
HETATM    1  C   UNL     1     -44.395  57.222 -54.616  1.00  0.00     0.188 C 
HETATM    2  S   UNL     1     -44.595  58.876 -54.591  1.00  0.00    -0.039 SA
ENDROOT
BRANCH   1   3
HETATM    3  N   UNL     1     -43.884  56.485 -55.644  1.00  0.00    -0.341 N 
HETATM    4  H   UNL     1     -44.474  55.739 -55.991  1.00  0.00     0.164 HD
BRANCH   3   5
HETATM    5  C   UNL     1     -42.682  56.729 -56.434  1.00  0.00     0.241 C 
BRANCH   5   6
HETATM    6  N   UNL     1     -41.736  55.644 -56.194  1.00  0.00    -0.336 N 
HETATM    7  C   UNL     1     -41.033  55.468 -55.029  1.00  0.00     0.219 C 
HETATM    8  O   UNL     1     -41.036  56.288 -54.121  1.00  0.00    -0.274 OA
HETATM    9  H   UNL     1     -41.669  54.933 -56.911  1.00  0.00     0.164 HD
BRANCH   7  10
HETATM   10  C   UNL     1     -40.240  54.171 -55.017  1.00  0.00     0.102 C 
BRANCH  10  11
HETATM   11  C   UNL     1     -41.028  52.963 -54.517  1.00  0.00     0.005 C 
HETATM   12  C   UNL     1     -40.137  51.785 -54.153  1.00  0.00     0.005 C 
ENDBRANCH  10  11
ENDBRANCH   7  10
ENDBRANCH   5   6
BRANCH   5  13
HETATM   13  C   UNL     1     -42.976  57.108 -57.952  1.00  0.00     0.226 C 
HETATM   14 CL   UNL     1     -41.888  58.434 -58.507  1.00  0.00    -0.080 Cl
HETATM   15 CL   UNL     1     -42.812  55.718 -59.081  1.00  0.00    -0.080 Cl
HETATM   16 CL   UNL     1     -44.673  57.709 -58.115  1.00  0.00    -0.080 Cl
ENDBRANCH   5  13
ENDBRANCH   3   5
ENDBRANCH   1   3
BRANCH   1  17
HETATM   17  N   UNL     1     -44.745  56.490 -53.506  1.00  0.00    -0.274 N 
HETATM   18  H   UNL     1     -45.716  56.173 -53.483  1.00  0.00     0.189 HD
BRANCH  17  19
HETATM   19  N   UNL     1     -43.814  55.613 -52.911  1.00  0.00    -0.264 N 
HETATM   20  C   UNL     1     -43.441  55.904 -51.607  1.00  0.00     0.272 C 
HETATM   21  O   UNL     1     -43.969  56.799 -50.946  1.00  0.00    -0.266 OA
HETATM   22  H   UNL     1     -43.156  55.166 -53.545  1.00  0.00     0.190 HD
BRANCH  20  23
HETATM   23  C   UNL     1     -42.302  55.141 -51.030  1.00  0.00     0.066 A 
HETATM   24  C   UNL     1     -41.391  55.796 -50.185  1.00  0.00     0.081 A 
HETATM   25  C   UNL     1     -40.297  55.117 -49.655  1.00  0.00     0.037 A 
HETATM   26  C   UNL     1     -40.109  53.767 -49.946  1.00  0.00     0.003 A 
HETATM   27  C   UNL     1     -41.021  53.097 -50.760  1.00  0.00     0.001 A 
HETATM   28  C   UNL     1     -42.118  53.776 -51.299  1.00  0.00     0.020 A 
BRANCH  24  29
HETATM   29  O   UNL     1     -41.506  57.116 -49.833  1.00  0.00    -0.360 OA
HETATM   30  H   UNL     1     -40.677  57.383 -49.376  1.00  0.00     0.217 HD
ENDBRANCH  24  29
ENDBRANCH  20  23
ENDBRANCH  17  19
ENDBRANCH   1  17
TORSDOF 10
ENDMDL
MODEL 2
REMARK VINA RESULT:      -6.7      1.348      1.968
REMARK  10 active torsions:
REMARK  status: ('A' for Active; 'I' for Inactive)
REMARK    1  A    between atoms: C_2  and  C_3 
REMARK    2  A    between atoms: C_3  and  C_4 
REMARK       I    between atoms: C_4  and  N_5 
REMARK    3  A    between atoms: N_5  and  C_6 
REMARK    4  A    between atoms: C_6  and  N_7 
REMARK    5  A    between atoms: C_6  and  C_21 
REMARK    6  A    between atoms: N_7  and  C_8 
REMARK    7  A    between atoms: C_8  and  N_9 
REMARK    8  A    between atoms: N_9  and  N_10 
REMARK       I    between atoms: N_10  and  C_11 
REMARK    9  A    between atoms: C_11  and  C_12 
REMARK   10  A    between atoms: C_13  and  O_14 
ROOT
HETATM    1  C   UNL     1     -44.871  57.571 -55.414  1.00  0.00     0.188 C 
HETATM    2  S   UNL     1     -44.987  59.230 -55.321  1.00  0.00    -0.039 SA
ENDROOT
BRANCH   1   3
HETATM    3  N   UNL     1     -44.336  56.855 -56.444  1.00  0.00    -0.341 N 
HETATM    4  H   UNL     1     -44.965  56.213 -56.912  1.00  0.00     0.164 HD
BRANCH   3   5
HETATM    5  C   UNL     1     -43.034  57.008 -57.084  1.00  0.00     0.241 C 
BRANCH   5   6
HETATM    6  N   UNL     1     -42.130  55.990 -56.557  1.00  0.00    -0.336 N 
HETATM    7  C   UNL     1     -41.535  56.044 -55.321  1.00  0.00     0.219 C 
HETATM    8  O   UNL     1     -41.605  57.024 -54.592  1.00  0.00    -0.274 OA
HETATM    9  H   UNL     1     -42.011  55.154 -57.114  1.00  0.00     0.164 HD
BRANCH   7  10
HETATM   10  C   UNL     1     -40.767  54.775 -54.990  1.00  0.00     0.102 C 
BRANCH  10  11
HETATM   11  C   UNL     1     -41.482  53.852 -54.006  1.00  0.00     0.005 C 
HETATM   12  C   UNL     1     -40.528  53.153 -53.049  1.00  0.00     0.005 C 
ENDBRANCH  10  11
ENDBRANCH   7  10
ENDBRANCH   5   6
BRANCH   5  13
HETATM   13  C   UNL     1     -43.110  57.155 -58.668  1.00  0.00     0.226 C 
HETATM   14 CL   UNL     1     -44.636  57.977 -59.165  1.00  0.00    -0.080 Cl
HETATM   15 CL   UNL     1     -41.718  58.052 -59.370  1.00  0.00    -0.080 Cl
HETATM   16 CL   UNL     1     -43.112  55.520 -59.435  1.00  0.00    -0.080 Cl
ENDBRANCH   5  13
ENDBRANCH   3   5
ENDBRANCH   1   3
BRANCH   1  17
HETATM   17  N   UNL     1     -45.327  56.809 -54.364  1.00  0.00    -0.274 N 
HETATM   18  H   UNL     1     -46.177  56.274 -54.551  1.00  0.00     0.189 HD
BRANCH  17  19
HETATM   19  N   UNL     1     -44.413  56.192 -53.484  1.00  0.00    -0.264 N 
HETATM   20  C   UNL     1     -44.206  56.827 -52.268  1.00  0.00     0.272 C 
HETATM   21  O   UNL     1     -44.860  57.805 -51.906  1.00  0.00    -0.266 OA
HETATM   22  H   UNL     1     -43.662  55.664 -53.922  1.00  0.00     0.190 HD
BRANCH  20  23
HETATM   23  C   UNL     1     -43.091  56.333 -51.416  1.00  0.00     0.066 A 
HETATM   24  C   UNL     1     -43.173  55.051 -50.848  1.00  0.00     0.081 A 
HETATM   25  C   UNL     1     -42.159  54.572 -50.021  1.00  0.00     0.037 A 
HETATM   26  C   UNL     1     -41.039  55.362 -49.767  1.00  0.00     0.003 A 
HETATM   27  C   UNL     1     -40.930  56.624 -50.349  1.00  0.00     0.001 A 
HETATM   28  C   UNL     1     -41.948  57.111 -51.174  1.00  0.00     0.020 A 
BRANCH  24  29
HETATM   29  O   UNL     1     -44.229  54.202 -51.055  1.00  0.00    -0.360 OA
HETATM   30  H   UNL     1     -45.033  54.614 -50.666  1.00  0.00     0.217 HD
ENDBRANCH  24  29
ENDBRANCH  20  23
ENDBRANCH  17  19
ENDBRANCH   1  17
TORSDOF 10
ENDMDL
MODEL 3
REMARK VINA RESULT:      -6.7      2.396      3.998
REMARK  10 active torsions:
REMARK  status: ('A' for Active; 'I' for Inactive)
REMARK    1  A    between atoms: C_2  and  C_3 
REMARK    2  A    between atoms: C_3  and  C_4 
REMARK       I    between atoms: C_4  and  N_5 
REMARK    3  A    between atoms: N_5  and  C_6 
REMARK    4  A    between atoms: C_6  and  N_7 
REMARK    5  A    between atoms: C_6  and  C_21 
REMARK    6  A    between atoms: N_7  and  C_8 
REMARK    7  A    between atoms: C_8  and  N_9 
REMARK    8  A    between atoms: N_9  and  N_10 
REMARK       I    between atoms: N_10  and  C_11 
REMARK    9  A    between atoms: C_11  and  C_12 
REMARK   10  A    between atoms: C_13  and  O_14 
ROOT
HETATM    1  C   UNL     1     -44.311  56.540 -54.398  1.00  0.00     0.188 C 
HETATM    2  S   UNL     1     -44.405  57.469 -53.018  1.00  0.00    -0.039 SA
ENDROOT
BRANCH   1   3
HETATM    3  N   UNL     1     -44.177  57.001 -55.674  1.00  0.00    -0.341 N 
HETATM    4  H   UNL     1     -45.039  57.193 -56.170  1.00  0.00     0.164 HD
BRANCH   3   5
HETATM    5  C   UNL     1     -42.967  57.426 -56.370  1.00  0.00     0.241 C 
BRANCH   5   6
HETATM    6  N   UNL     1     -42.901  56.739 -57.656  1.00  0.00    -0.336 N 
HETATM    7  C   UNL     1     -43.872  56.806 -58.624  1.00  0.00     0.219 C 
HETATM    8  O   UNL     1     -44.954  57.347 -58.443  1.00  0.00    -0.274 OA
HETATM    9  H   UNL     1     -42.038  56.256 -57.870  1.00  0.00     0.164 HD
BRANCH   7  10
HETATM   10  C   UNL     1     -43.459  56.110 -59.911  1.00  0.00     0.102 C 
BRANCH  10  11
HETATM   11  C   UNL     1     -44.516  55.165 -60.475  1.00  0.00     0.005 C 
HETATM   12  C   UNL     1     -44.705  53.915 -59.629  1.00  0.00     0.005 C 
ENDBRANCH  10  11
ENDBRANCH   7  10
ENDBRANCH   5   6
BRANCH   5  13
HETATM   13  C   UNL     1     -42.753  59.003 -56.382  1.00  0.00     0.226 C 
HETATM   14 CL   UNL     1     -41.783  59.510 -57.815  1.00  0.00    -0.080 Cl
HETATM   15 CL   UNL     1     -44.291  59.934 -56.369  1.00  0.00    -0.080 Cl
HETATM   16 CL   UNL     1     -41.830  59.507 -54.912  1.00  0.00    -0.080 Cl
ENDBRANCH   5  13
ENDBRANCH   3   5
ENDBRANCH   1   3
BRANCH   1  17
HETATM   17  N   UNL     1     -44.347  55.171 -54.285  1.00  0.00    -0.274 N 
HETATM   18  H   UNL     1     -44.716  54.677 -55.100  1.00  0.00     0.189 HD
BRANCH  17  19
HETATM   19  N   UNL     1     -43.334  54.488 -53.579  1.00  0.00    -0.264 N 
HETATM   20  C   UNL     1     -42.232  54.085 -54.319  1.00  0.00     0.272 C 
HETATM   21  O   UNL     1     -42.070  54.399 -55.498  1.00  0.00    -0.266 OA
HETATM   22  H   UNL     1     -43.642  53.943 -52.777  1.00  0.00     0.190 HD
BRANCH  20  23
HETATM   23  C   UNL     1     -41.259  53.173 -53.661  1.00  0.00     0.066 A 
HETATM   24  C   UNL     1     -40.818  53.460 -52.359  1.00  0.00     0.081 A 
HETATM   25  C   UNL     1     -39.883  52.642 -51.727  1.00  0.00     0.037 A 
HETATM   26  C   UNL     1     -39.391  51.515 -52.382  1.00  0.00     0.003 A 
HETATM   27  C   UNL     1     -39.843  51.202 -53.664  1.00  0.00     0.001 A 
HETATM   28  C   UNL     1     -40.776  52.023 -54.304  1.00  0.00     0.020 A 
BRANCH  24  29
HETATM   29  O   UNL     1     -41.258  54.537 -51.635  1.00  0.00    -0.360 OA
HETATM   30  H   UNL     1     -41.834  54.204 -50.911  1.00  0.00     0.217 HD
ENDBRANCH  24  29
ENDBRANCH  20  23
ENDBRANCH  17  19
ENDBRANCH   1  17
TORSDOF 10
ENDMDL
MODEL 4
REMARK VINA RESULT:      -6.6      3.521      6.246
REMARK  10 active torsions:
REMARK  status: ('A' for Active; 'I' for Inactive)
REMARK    1  A    between atoms: C_2  and  C_3 
REMARK    2  A    between atoms: C_3  and  C_4 
REMARK       I    between atoms: C_4  and  N_5 
REMARK    3  A    between atoms: N_5  and  C_6 
REMARK    4  A    between atoms: C_6  and  N_7 
REMARK    5  A    between atoms: C_6  and  C_21 
REMARK    6  A    between atoms: N_7  and  C_8 
REMARK    7  A    between atoms: C_8  and  N_9 
REMARK    8  A    between atoms: N_9  and  N_10 
REMARK       I    between atoms: N_10  and  C_11 
REMARK    9  A    between atoms: C_11  and  C_12 
REMARK   10  A    between atoms: C_13  and  O_14 
ROOT
HETATM    1  C   UNL     1     -44.072  56.712 -53.558  1.00  0.00     0.188 C 
HETATM    2  S   UNL     1     -44.593  58.029 -52.682  1.00  0.00    -0.039 SA
ENDROOT
BRANCH   1   3
HETATM    3  N   UNL     1     -42.990  55.930 -53.275  1.00  0.00    -0.341 N 
HETATM    4  H   UNL     1     -42.084  56.365 -53.401  1.00  0.00     0.164 HD
BRANCH   3   5
HETATM    5  C   UNL     1     -42.953  54.614 -52.647  1.00  0.00     0.241 C 
BRANCH   5   6
HETATM    6  N   UNL     1     -42.105  53.737 -53.448  1.00  0.00    -0.336 N 
HETATM    7  C   UNL     1     -40.841  54.057 -53.878  1.00  0.00     0.219 C 
HETATM    8  O   UNL     1     -40.354  55.170 -53.738  1.00  0.00    -0.274 OA
HETATM    9  H   UNL     1     -42.451  52.801 -53.618  1.00  0.00     0.164 HD
BRANCH   7  10
HETATM   10  C   UNL     1     -40.147  52.891 -54.564  1.00  0.00     0.102 C 
BRANCH  10  11
HETATM   11  C   UNL     1     -40.726  51.524 -54.208  1.00  0.00     0.005 C 
HETATM   12  C   UNL     1     -39.682  50.417 -54.223  1.00  0.00     0.005 C 
ENDBRANCH  10  11
ENDBRANCH   7  10
ENDBRANCH   5   6
BRANCH   5  13
HETATM   13  C   UNL     1     -42.671  54.657 -51.081  1.00  0.00     0.226 C 
HETATM   14 CL   UNL     1     -41.532  53.346 -50.596  1.00  0.00    -0.080 Cl
HETATM   15 CL   UNL     1     -42.010  56.231 -50.516  1.00  0.00    -0.080 Cl
HETATM   16 CL   UNL     1     -44.210  54.387 -50.174  1.00  0.00    -0.080 Cl
ENDBRANCH   5  13
ENDBRANCH   3   5
ENDBRANCH   1   3
BRANCH   1  17
HETATM   17  N   UNL     1     -44.782  56.325 -54.669  1.00  0.00    -0.274 N 
HETATM   18  H   UNL     1     -45.784  56.188 -54.519  1.00  0.00     0.189 HD
BRANCH  17  19
HETATM   19  N   UNL     1     -44.428  56.812 -55.945  1.00  0.00    -0.264 N 
HETATM   20  C   UNL     1     -43.469  56.087 -56.637  1.00  0.00     0.272 C 
HETATM   21  O   UNL     1     -43.027  55.012 -56.234  1.00  0.00    -0.266 OA
HETATM   22  H   UNL     1     -44.501  57.819 -56.072  1.00  0.00     0.190 HD
BRANCH  20  23
HETATM   23  C   UNL     1     -42.911  56.692 -57.876  1.00  0.00     0.066 A 
HETATM   24  C   UNL     1     -42.355  57.981 -57.822  1.00  0.00     0.081 A 
HETATM   25  C   UNL     1     -41.853  58.588 -58.971  1.00  0.00     0.037 A 
HETATM   26  C   UNL     1     -41.881  57.906 -60.187  1.00  0.00     0.003 A 
HETATM   27  C   UNL     1     -42.404  56.615 -60.248  1.00  0.00     0.001 A 
HETATM   28  C   UNL     1     -42.915  56.004 -59.099  1.00  0.00     0.020 A 
BRANCH  24  29
HETATM   29  O   UNL     1     -42.272  58.718 -56.670  1.00  0.00    -0.360 OA
HETATM   30  H   UNL     1     -41.322  58.806 -56.432  1.00  0.00     0.217 HD
ENDBRANCH  24  29
ENDBRANCH  20  23
ENDBRANCH  17  19
ENDBRANCH   1  17
TORSDOF 10
ENDMDL
MODEL 5
REMARK VINA RESULT:      -6.5      3.777      6.896
REMARK  10 active torsions:
REMARK  status: ('A' for Active; 'I' for Inactive)
REMARK    1  A    between atoms: C_2  and  C_3 
REMARK    2  A    between atoms: C_3  and  C_4 
REMARK       I    between atoms: C_4  and  N_5 
REMARK    3  A    between atoms: N_5  and  C_6 
REMARK    4  A    between atoms: C_6  and  N_7 
REMARK    5  A    between atoms: C_6  and  C_21 
REMARK    6  A    between atoms: N_7  and  C_8 
REMARK    7  A    between atoms: C_8  and  N_9 
REMARK    8  A    between atoms: N_9  and  N_10 
REMARK       I    between atoms: N_10  and  C_11 
REMARK    9  A    between atoms: C_11  and  C_12 
REMARK   10  A    between atoms: C_13  and  O_14 
ROOT
HETATM    1  C   UNL     1     -42.157  56.797 -54.642  1.00  0.00     0.188 C 
HETATM    2  S   UNL     1     -43.374  57.934 -54.623  1.00  0.00    -0.039 SA
ENDROOT
BRANCH   1   3
HETATM    3  N   UNL     1     -41.568  56.226 -53.552  1.00  0.00    -0.341 N 
HETATM    4  H   UNL     1     -40.666  56.605 -53.287  1.00  0.00     0.164 HD
BRANCH   3   5
HETATM    5  C   UNL     1     -42.128  55.266 -52.608  1.00  0.00     0.241 C 
BRANCH   5   6
HETATM    6  N   UNL     1     -41.336  54.041 -52.660  1.00  0.00    -0.336 N 
HETATM    7  C   UNL     1     -41.196  53.253 -53.774  1.00  0.00     0.219 C 
HETATM    8  O   UNL     1     -41.833  53.436 -54.803  1.00  0.00    -0.274 OA
HETATM    9  H   UNL     1     -40.792  53.817 -51.837  1.00  0.00     0.164 HD
BRANCH   7  10
HETATM   10  C   UNL     1     -40.194  52.128 -53.568  1.00  0.00     0.102 C 
BRANCH  10  11
HETATM   11  C   UNL     1     -40.537  50.843 -54.318  1.00  0.00     0.005 C 
HETATM   12  C   UNL     1     -39.398  49.835 -54.316  1.00  0.00     0.005 C 
ENDBRANCH  10  11
ENDBRANCH   7  10
ENDBRANCH   5   6
BRANCH   5  13
HETATM   13  C   UNL     1     -42.419  55.878 -51.167  1.00  0.00     0.226 C 
HETATM   14 CL   UNL     1     -41.224  57.166 -50.762  1.00  0.00    -0.080 Cl
HETATM   15 CL   UNL     1     -44.075  56.556 -50.998  1.00  0.00    -0.080 Cl
HETATM   16 CL   UNL     1     -42.256  54.589 -49.911  1.00  0.00    -0.080 Cl
ENDBRANCH   5  13
ENDBRANCH   3   5
ENDBRANCH   1   3
BRANCH   1  17
HETATM   17  N   UNL     1     -41.685  56.343 -55.851  1.00  0.00    -0.274 N 
HETATM   18  H   UNL     1     -40.786  55.859 -55.813  1.00  0.00     0.189 HD
BRANCH  17  19
HETATM   19  N   UNL     1     -42.581  55.866 -56.831  1.00  0.00    -0.264 N 
HETATM   20  C   UNL     1     -42.802  56.696 -57.920  1.00  0.00     0.272 C 
HETATM   21  O   UNL     1     -42.173  57.738 -58.102  1.00  0.00    -0.266 OA
HETATM   22  H   UNL     1     -43.319  55.251 -56.496  1.00  0.00     0.190 HD
BRANCH  20  23
HETATM   23  C   UNL     1     -43.903  56.331 -58.851  1.00  0.00     0.066 A 
HETATM   24  C   UNL     1     -45.051  57.138 -58.909  1.00  0.00     0.081 A 
HETATM   25  C   UNL     1     -46.113  56.805 -59.748  1.00  0.00     0.037 A 
HETATM   26  C   UNL     1     -46.032  55.672 -60.556  1.00  0.00     0.003 A 
HETATM   27  C   UNL     1     -44.885  54.879 -60.529  1.00  0.00     0.001 A 
HETATM   28  C   UNL     1     -43.820  55.205 -59.684  1.00  0.00     0.020 A 
BRANCH  24  29
HETATM   29  O   UNL     1     -45.211  58.276 -58.164  1.00  0.00    -0.360 OA
HETATM   30  H   UNL     1     -44.815  59.026 -58.662  1.00  0.00     0.217 HD
ENDBRANCH  24  29
ENDBRANCH  20  23
ENDBRANCH  17  19
ENDBRANCH   1  17
TORSDOF 10
ENDMDL
MODEL 6
REMARK VINA RESULT:      -6.4      3.848      6.559
REMARK  10 active torsions:
REMARK  status: ('A' for Active; 'I' for Inactive)
REMARK    1  A    between atoms: C_2  and  C_3 
REMARK    2  A    between atoms: C_3  and  C_4 
REMARK       I    between atoms: C_4  and  N_5 
REMARK    3  A    between atoms: N_5  and  C_6 
REMARK    4  A    between atoms: C_6  and  N_7 
REMARK    5  A    between atoms: C_6  and  C_21 
REMARK    6  A    between atoms: N_7  and  C_8 
REMARK    7  A    between atoms: C_8  and  N_9 
REMARK    8  A    between atoms: N_9  and  N_10 
REMARK       I    between atoms: N_10  and  C_11 
REMARK    9  A    between atoms: C_11  and  C_12 
REMARK   10  A    between atoms: C_13  and  O_14 
ROOT
HETATM    1  C   UNL     1     -41.594  57.392 -52.901  1.00  0.00     0.188 C 
HETATM    2  S   UNL     1     -41.248  58.917 -52.327  1.00  0.00    -0.039 SA
ENDROOT
BRANCH   1   3
HETATM    3  N   UNL     1     -41.023  56.224 -52.488  1.00  0.00    -0.341 N 
HETATM    4  H   UNL     1     -40.039  56.271 -52.252  1.00  0.00     0.164 HD
BRANCH   3   5
HETATM    5  C   UNL     1     -41.666  54.955 -52.169  1.00  0.00     0.241 C 
BRANCH   5   6
HETATM    6  N   UNL     1     -40.988  53.889 -52.899  1.00  0.00    -0.336 N 
HETATM    7  C   UNL     1     -41.105  53.676 -54.251  1.00  0.00     0.219 C 
HETATM    8  O   UNL     1     -41.899  54.287 -54.953  1.00  0.00    -0.274 OA
HETATM    9  H   UNL     1     -40.325  53.331 -52.378  1.00  0.00     0.164 HD
BRANCH   7  10
HETATM   10  C   UNL     1     -40.168  52.589 -54.751  1.00  0.00     0.102 C 
BRANCH  10  11
HETATM   11  C   UNL     1     -39.924  51.465 -53.747  1.00  0.00     0.005 C 
HETATM   12  C   UNL     1     -39.944  50.085 -54.387  1.00  0.00     0.005 C 
ENDBRANCH  10  11
ENDBRANCH   7  10
ENDBRANCH   5   6
BRANCH   5  13
HETATM   13  C   UNL     1     -41.899  54.727 -50.610  1.00  0.00     0.226 C 
HETATM   14 CL   UNL     1     -41.051  53.240 -50.044  1.00  0.00    -0.080 Cl
HETATM   15 CL   UNL     1     -41.367  56.114 -49.597  1.00  0.00    -0.080 Cl
HETATM   16 CL   UNL     1     -43.660  54.491 -50.282  1.00  0.00    -0.080 Cl
ENDBRANCH   5  13
ENDBRANCH   3   5
ENDBRANCH   1   3
BRANCH   1  17
HETATM   17  N   UNL     1     -42.558  57.245 -53.871  1.00  0.00    -0.274 N 
HETATM   18  H   UNL     1     -43.409  57.792 -53.724  1.00  0.00     0.189 HD
BRANCH  17  19
HETATM   19  N   UNL     1     -42.188  57.063 -55.220  1.00  0.00    -0.264 N 
HETATM   20  C   UNL     1     -42.856  57.844 -56.152  1.00  0.00     0.272 C 
HETATM   21  O   UNL     1     -43.642  58.736 -55.834  1.00  0.00    -0.266 OA
HETATM   22  H   UNL     1     -41.862  56.133 -55.469  1.00  0.00     0.190 HD
BRANCH  20  23
HETATM   23  C   UNL     1     -42.656  57.520 -57.590  1.00  0.00     0.066 A 
HETATM   24  C   UNL     1     -43.009  56.245 -58.064  1.00  0.00     0.081 A 
HETATM   25  C   UNL     1     -42.805  55.901 -59.398  1.00  0.00     0.037 A 
HETATM   26  C   UNL     1     -42.264  56.832 -60.282  1.00  0.00     0.003 A 
HETATM   27  C   UNL     1     -41.937  58.111 -59.831  1.00  0.00     0.001 A 
HETATM   28  C   UNL     1     -42.134  58.459 -58.492  1.00  0.00     0.020 A 
BRANCH  24  29
HETATM   29  O   UNL     1     -43.559  55.273 -57.270  1.00  0.00    -0.360 OA
HETATM   30  H   UNL     1     -44.430  55.023 -57.653  1.00  0.00     0.217 HD
ENDBRANCH  24  29
ENDBRANCH  20  23
ENDBRANCH  17  19
ENDBRANCH   1  17
TORSDOF 10
ENDMDL
MODEL 7
REMARK VINA RESULT:      -6.4      2.437      4.150
REMARK  10 active torsions:
REMARK  status: ('A' for Active; 'I' for Inactive)
REMARK    1  A    between atoms: C_2  and  C_3 
REMARK    2  A    between atoms: C_3  and  C_4 
REMARK       I    between atoms: C_4  and  N_5 
REMARK    3  A    between atoms: N_5  and  C_6 
REMARK    4  A    between atoms: C_6  and  N_7 
REMARK    5  A    between atoms: C_6  and  C_21 
REMARK    6  A    between atoms: N_7  and  C_8 
REMARK    7  A    between atoms: C_8  and  N_9 
REMARK    8  A    between atoms: N_9  and  N_10 
REMARK       I    between atoms: N_10  and  C_11 
REMARK    9  A    between atoms: C_11  and  C_12 
REMARK   10  A    between atoms: C_13  and  O_14 
ROOT
HETATM    1  C   UNL     1     -44.942  57.554 -54.908  1.00  0.00     0.188 C 
HETATM    2  S   UNL     1     -44.988  58.861 -53.876  1.00  0.00    -0.039 SA
ENDROOT
BRANCH   1   3
HETATM    3  N   UNL     1     -44.664  57.588 -56.243  1.00  0.00    -0.341 N 
HETATM    4  H   UNL     1     -45.466  57.593 -56.862  1.00  0.00     0.164 HD
BRANCH   3   5
HETATM    5  C   UNL     1     -43.381  57.796 -56.903  1.00  0.00     0.241 C 
BRANCH   5   6
HETATM    6  N   UNL     1     -43.298  56.905 -58.057  1.00  0.00    -0.336 N 
HETATM    7  C   UNL     1     -44.263  56.798 -59.028  1.00  0.00     0.219 C 
HETATM    8  O   UNL     1     -45.351  57.350 -58.946  1.00  0.00    -0.274 OA
HETATM    9  H   UNL     1     -42.429  56.402 -58.182  1.00  0.00     0.164 HD
BRANCH   7  10
HETATM   10  C   UNL     1     -43.833  55.902 -60.178  1.00  0.00     0.102 C 
BRANCH  10  11
HETATM   11  C   UNL     1     -44.795  54.752 -60.465  1.00  0.00     0.005 C 
HETATM   12  C   UNL     1     -44.703  53.633 -59.439  1.00  0.00     0.005 C 
ENDBRANCH  10  11
ENDBRANCH   7  10
ENDBRANCH   5   6
BRANCH   5  13
HETATM   13  C   UNL     1     -43.025  59.328 -57.148  1.00  0.00     0.226 C 
HETATM   14 CL   UNL     1     -44.521  60.304 -57.397  1.00  0.00    -0.080 Cl
HETATM   15 CL   UNL     1     -42.073  60.064 -55.812  1.00  0.00    -0.080 Cl
HETATM   16 CL   UNL     1     -42.028  59.493 -58.646  1.00  0.00    -0.080 Cl
ENDBRANCH   5  13
ENDBRANCH   3   5
ENDBRANCH   1   3
BRANCH   1  17
HETATM   17  N   UNL     1     -45.180  56.297 -54.404  1.00  0.00    -0.274 N 
HETATM   18  H   UNL     1     -46.142  55.966 -54.497  1.00  0.00     0.189 HD
BRANCH  17  19
HETATM   19  N   UNL     1     -44.191  55.295 -54.496  1.00  0.00    -0.264 N 
HETATM   20  C   UNL     1     -43.255  55.259 -53.473  1.00  0.00     0.272 C 
HETATM   21  O   UNL     1     -43.333  55.971 -52.472  1.00  0.00    -0.266 OA
HETATM   22  H   UNL     1     -43.933  55.011 -55.438  1.00  0.00     0.190 HD
BRANCH  20  23
HETATM   23  C   UNL     1     -42.075  54.371 -53.652  1.00  0.00     0.066 A 
HETATM   24  C   UNL     1     -41.403  54.360 -54.886  1.00  0.00     0.081 A 
HETATM   25  C   UNL     1     -40.313  53.517 -55.095  1.00  0.00     0.037 A 
HETATM   26  C   UNL     1     -39.869  52.687 -54.067  1.00  0.00     0.003 A 
HETATM   27  C   UNL     1     -40.508  52.710 -52.828  1.00  0.00     0.001 A 
HETATM   28  C   UNL     1     -41.605  53.550 -52.616  1.00  0.00     0.020 A 
BRANCH  24  29
HETATM   29  O   UNL     1     -41.761  55.151 -55.946  1.00  0.00    -0.360 OA
HETATM   30  H   UNL     1     -41.742  56.088 -55.648  1.00  0.00     0.217 HD
ENDBRANCH  24  29
ENDBRANCH  20  23
ENDBRANCH  17  19
ENDBRANCH   1  17
TORSDOF 10
ENDMDL
MODEL 8
REMARK VINA RESULT:      -6.4      2.746      4.415
REMARK  10 active torsions:
REMARK  status: ('A' for Active; 'I' for Inactive)
REMARK    1  A    between atoms: C_2  and  C_3 
REMARK    2  A    between atoms: C_3  and  C_4 
REMARK       I    between atoms: C_4  and  N_5 
REMARK    3  A    between atoms: N_5  and  C_6 
REMARK    4  A    between atoms: C_6  and  N_7 
REMARK    5  A    between atoms: C_6  and  C_21 
REMARK    6  A    between atoms: N_7  and  C_8 
REMARK    7  A    between atoms: C_8  and  N_9 
REMARK    8  A    between atoms: N_9  and  N_10 
REMARK       I    between atoms: N_10  and  C_11 
REMARK    9  A    between atoms: C_11  and  C_12 
REMARK   10  A    between atoms: C_13  and  O_14 
ROOT
HETATM    1  C   UNL     1     -42.373  57.220 -56.776  1.00  0.00     0.188 C 
HETATM    2  S   UNL     1     -42.841  58.139 -58.084  1.00  0.00    -0.039 SA
ENDROOT
BRANCH   1   3
HETATM    3  N   UNL     1     -42.093  57.681 -55.523  1.00  0.00    -0.341 N 
HETATM    4  H   UNL     1     -41.169  58.077 -55.392  1.00  0.00     0.164 HD
BRANCH   3   5
HETATM    5  C   UNL     1     -42.994  57.847 -54.388  1.00  0.00     0.241 C 
BRANCH   5   6
HETATM    6  N   UNL     1     -42.226  57.702 -53.155  1.00  0.00    -0.336 N 
HETATM    7  C   UNL     1     -41.131  58.461 -52.827  1.00  0.00     0.219 C 
HETATM    8  O   UNL     1     -40.612  59.251 -53.605  1.00  0.00    -0.274 OA
HETATM    9  H   UNL     1     -42.588  57.054 -52.468  1.00  0.00     0.164 HD
BRANCH   7  10
HETATM   10  C   UNL     1     -40.631  58.184 -51.419  1.00  0.00     0.102 C 
BRANCH  10  11
HETATM   11  C   UNL     1     -40.319  59.439 -50.609  1.00  0.00     0.005 C 
HETATM   12  C   UNL     1     -38.827  59.657 -50.406  1.00  0.00     0.005 C 
ENDBRANCH  10  11
ENDBRANCH   7  10
ENDBRANCH   5   6
BRANCH   5  13
HETATM   13  C   UNL     1     -43.942  59.121 -54.502  1.00  0.00     0.226 C 
HETATM   14 CL   UNL     1     -44.522  59.639 -52.876  1.00  0.00    -0.080 Cl
HETATM   15 CL   UNL     1     -43.160  60.525 -55.309  1.00  0.00    -0.080 Cl
HETATM   16 CL   UNL     1     -45.405  58.710 -55.481  1.00  0.00    -0.080 Cl
ENDBRANCH   5  13
ENDBRANCH   3   5
ENDBRANCH   1   3
BRANCH   1  17
HETATM   17  N   UNL     1     -42.265  55.857 -56.921  1.00  0.00    -0.274 N 
HETATM   18  H   UNL     1     -42.243  55.523 -57.887  1.00  0.00     0.189 HD
BRANCH  17  19
HETATM   19  N   UNL     1     -41.499  55.102 -56.008  1.00  0.00    -0.264 N 
HETATM   20  C   UNL     1     -42.200  54.221 -55.197  1.00  0.00     0.272 C 
HETATM   21  O   UNL     1     -43.404  54.005 -55.332  1.00  0.00    -0.266 OA
HETATM   22  H   UNL     1     -40.648  55.545 -55.670  1.00  0.00     0.190 HD
BRANCH  20  23
HETATM   23  C   UNL     1     -41.460  53.582 -54.077  1.00  0.00     0.066 A 
HETATM   24  C   UNL     1     -41.722  53.987 -52.758  1.00  0.00     0.081 A 
HETATM   25  C   UNL     1     -41.024  53.429 -51.689  1.00  0.00     0.037 A 
HETATM   26  C   UNL     1     -40.067  52.444 -51.923  1.00  0.00     0.003 A 
HETATM   27  C   UNL     1     -39.817  52.011 -53.225  1.00  0.00     0.001 A 
HETATM   28  C   UNL     1     -40.511  52.572 -54.301  1.00  0.00     0.020 A 
BRANCH  24  29
HETATM   29  O   UNL     1     -42.655  54.938 -52.433  1.00  0.00    -0.360 OA
HETATM   30  H   UNL     1     -42.522  55.711 -53.026  1.00  0.00     0.217 HD
ENDBRANCH  24  29
ENDBRANCH  20  23
ENDBRANCH  17  19
ENDBRANCH   1  17
TORSDOF 10
ENDMDL
MODEL 9
REMARK VINA RESULT:      -6.3      2.429      4.058
REMARK  10 active torsions:
REMARK  status: ('A' for Active; 'I' for Inactive)
REMARK    1  A    between atoms: C_2  and  C_3 
REMARK    2  A    between atoms: C_3  and  C_4 
REMARK       I    between atoms: C_4  and  N_5 
REMARK    3  A    between atoms: N_5  and  C_6 
REMARK    4  A    between atoms: C_6  and  N_7 
REMARK    5  A    between atoms: C_6  and  C_21 
REMARK    6  A    between atoms: N_7  and  C_8 
REMARK    7  A    between atoms: C_8  and  N_9 
REMARK    8  A    between atoms: N_9  and  N_10 
REMARK       I    between atoms: N_10  and  C_11 
REMARK    9  A    between atoms: C_11  and  C_12 
REMARK   10  A    between atoms: C_13  and  O_14 
ROOT
HETATM    1  C   UNL     1     -44.954  57.420 -54.932  1.00  0.00     0.188 C 
HETATM    2  S   UNL     1     -44.229  58.673 -54.108  1.00  0.00    -0.039 SA
ENDROOT
BRANCH   1   3
HETATM    3  N   UNL     1     -45.418  57.457 -56.214  1.00  0.00    -0.341 N 
HETATM    4  H   UNL     1     -46.312  57.009 -56.375  1.00  0.00     0.164 HD
BRANCH   3   5
HETATM    5  C   UNL     1     -44.896  58.204 -57.353  1.00  0.00     0.241 C 
BRANCH   5   6
HETATM    6  N   UNL     1     -44.451  57.256 -58.370  1.00  0.00    -0.336 N 
HETATM    7  C   UNL     1     -43.482  56.303 -58.175  1.00  0.00     0.219 C 
HETATM    8  O   UNL     1     -42.803  56.245 -57.159  1.00  0.00    -0.274 OA
HETATM    9  H   UNL     1     -44.959  57.255 -59.245  1.00  0.00     0.164 HD
BRANCH   7  10
HETATM   10  C   UNL     1     -43.338  55.367 -59.364  1.00  0.00     0.102 C 
BRANCH  10  11
HETATM   11  C   UNL     1     -44.633  54.667 -59.767  1.00  0.00     0.005 C 
HETATM   12  C   UNL     1     -45.028  54.940 -61.211  1.00  0.00     0.005 C 
ENDBRANCH  10  11
ENDBRANCH   7  10
ENDBRANCH   5   6
BRANCH   5  13
HETATM   13  C   UNL     1     -45.845  59.387 -57.836  1.00  0.00     0.226 C 
HETATM   14 CL   UNL     1     -47.546  58.814 -58.016  1.00  0.00    -0.080 Cl
HETATM   15 CL   UNL     1     -45.831  60.810 -56.736  1.00  0.00    -0.080 Cl
HETATM   16 CL   UNL     1     -45.310  59.980 -59.457  1.00  0.00    -0.080 Cl
ENDBRANCH   5  13
ENDBRANCH   3   5
ENDBRANCH   1   3
BRANCH   1  17
HETATM   17  N   UNL     1     -45.099  56.204 -54.306  1.00  0.00    -0.274 N 
HETATM   18  H   UNL     1     -46.058  55.855 -54.253  1.00  0.00     0.189 HD
BRANCH  17  19
HETATM   19  N   UNL     1     -44.106  55.212 -54.441  1.00  0.00    -0.264 N 
HETATM   20  C   UNL     1     -43.262  55.035 -53.354  1.00  0.00     0.272 C 
HETATM   21  O   UNL     1     -43.426  55.614 -52.281  1.00  0.00    -0.266 OA
HETATM   22  H   UNL     1     -43.768  55.046 -55.386  1.00  0.00     0.190 HD
BRANCH  20  23
HETATM   23  C   UNL     1     -42.071  54.164 -53.544  1.00  0.00     0.066 A 
HETATM   24  C   UNL     1     -41.523  53.496 -52.436  1.00  0.00     0.081 A 
HETATM   25  C   UNL     1     -40.390  52.697 -52.575  1.00  0.00     0.037 A 
HETATM   26  C   UNL     1     -39.801  52.539 -53.828  1.00  0.00     0.003 A 
HETATM   27  C   UNL     1     -40.352  53.173 -54.942  1.00  0.00     0.001 A 
HETATM   28  C   UNL     1     -41.485  53.980 -54.805  1.00  0.00     0.020 A 
BRANCH  24  29
HETATM   29  O   UNL     1     -42.045  53.581 -51.172  1.00  0.00    -0.360 OA
HETATM   30  H   UNL     1     -41.526  54.250 -50.672  1.00  0.00     0.217 HD
ENDBRANCH  24  29
ENDBRANCH  20  23
ENDBRANCH  17  19
ENDBRANCH   1  17
TORSDOF 10
ENDMDL
MODEL 10
REMARK VINA RESULT:      -6.2      3.152      4.728
REMARK  10 active torsions:
REMARK  status: ('A' for Active; 'I' for Inactive)
REMARK    1  A    between atoms: C_2  and  C_3 
REMARK    2  A    between atoms: C_3  and  C_4 
REMARK       I    between atoms: C_4  and  N_5 
REMARK    3  A    between atoms: N_5  and  C_6 
REMARK    4  A    between atoms: C_6  and  N_7 
REMARK    5  A    between atoms: C_6  and  C_21 
REMARK    6  A    between atoms: N_7  and  C_8 
REMARK    7  A    between atoms: C_8  and  N_9 
REMARK    8  A    between atoms: N_9  and  N_10 
REMARK       I    between atoms: N_10  and  C_11 
REMARK    9  A    between atoms: C_11  and  C_12 
REMARK   10  A    between atoms: C_13  and  O_14 
ROOT
HETATM    1  C   UNL     1     -41.527  56.721 -51.174  1.00  0.00     0.188 C 
HETATM    2  S   UNL     1     -40.902  58.151 -50.591  1.00  0.00    -0.039 SA
ENDROOT
BRANCH   1   3
HETATM    3  N   UNL     1     -42.543  56.591 -52.076  1.00  0.00    -0.341 N 
HETATM    4  H   UNL     1     -43.287  55.954 -51.817  1.00  0.00     0.164 HD
BRANCH   3   5
HETATM    5  C   UNL     1     -42.799  57.371 -53.282  1.00  0.00     0.241 C 
BRANCH   5   6
HETATM    6  N   UNL     1     -42.757  56.478 -54.435  1.00  0.00    -0.336 N 
HETATM    7  C   UNL     1     -41.650  55.767 -54.828  1.00  0.00     0.219 C 
HETATM    8  O   UNL     1     -40.548  55.919 -54.319  1.00  0.00    -0.274 OA
HETATM    9  H   UNL     1     -43.631  56.314 -54.917  1.00  0.00     0.164 HD
BRANCH   7  10
HETATM   10  C   UNL     1     -41.948  54.811 -55.971  1.00  0.00     0.102 C 
BRANCH  10  11
HETATM   11  C   UNL     1     -43.221  55.142 -56.745  1.00  0.00     0.005 C 
HETATM   12  C   UNL     1     -42.951  55.916 -58.027  1.00  0.00     0.005 C 
ENDBRANCH  10  11
ENDBRANCH   7  10
ENDBRANCH   5   6
BRANCH   5  13
HETATM   13  C   UNL     1     -44.058  58.339 -53.165  1.00  0.00     0.226 C 
HETATM   14 CL   UNL     1     -45.056  57.925 -51.721  1.00  0.00    -0.080 Cl
HETATM   15 CL   UNL     1     -43.615  60.080 -53.078  1.00  0.00    -0.080 Cl
HETATM   16 CL   UNL     1     -45.116  58.146 -54.616  1.00  0.00    -0.080 Cl
ENDBRANCH   5  13
ENDBRANCH   3   5
ENDBRANCH   1   3
BRANCH   1  17
HETATM   17  N   UNL     1     -40.983  55.532 -50.750  1.00  0.00    -0.274 N 
HETATM   18  H   UNL     1     -41.062  55.350 -49.748  1.00  0.00     0.189 HD
BRANCH  17  19
HETATM   19  N   UNL     1     -41.046  54.387 -51.573  1.00  0.00    -0.264 N 
HETATM   20  C   UNL     1     -40.174  53.355 -51.259  1.00  0.00     0.272 C 
HETATM   21  O   UNL     1     -39.463  53.365 -50.255  1.00  0.00    -0.266 OA
HETATM   22  H   UNL     1     -41.325  54.549 -52.537  1.00  0.00     0.190 HD
BRANCH  20  23
HETATM   23  C   UNL     1     -40.055  52.237 -52.232  1.00  0.00     0.066 A 
HETATM   24  C   UNL     1     -39.843  50.931 -51.759  1.00  0.00     0.081 A 
HETATM   25  C   UNL     1     -39.696  49.867 -52.646  1.00  0.00     0.037 A 
HETATM   26  C   UNL     1     -39.779  50.091 -54.019  1.00  0.00     0.003 A 
HETATM   27  C   UNL     1     -40.018  51.377 -54.502  1.00  0.00     0.001 A 
HETATM   28  C   UNL     1     -40.160  52.449 -53.616  1.00  0.00     0.020 A 
BRANCH  24  29
HETATM   29  O   UNL     1     -39.763  50.617 -50.427  1.00  0.00    -0.360 OA
HETATM   30  H   UNL     1     -40.343  51.237 -49.932  1.00  0.00     0.217 HD
ENDBRANCH  24  29
ENDBRANCH  20  23
ENDBRANCH  17  19
ENDBRANCH   1  17
TORSDOF 10
ENDMDL
