MODEL 1
REMARK VINA RESULT:      -8.7      0.000      0.000
REMARK  7 active torsions:
REMARK  status: ('A' for Active; 'I' for Inactive)
REMARK    1  A    between atoms: C_6  and  O_7 
REMARK    2  A    between atoms: O_7  and  C_8 
REMARK    3  A    between atoms: C_8  and  C_9 
REMARK       I    between atoms: C_9  and  N_10 
REMARK    4  A    between atoms: N_10  and  C_11 
REMARK    5  A    between atoms: C_14  and  N_15 
REMARK    6  A    between atoms: N_18  and  C_20 
REMARK    7  A    between atoms: C_20  and  C_21 
ROOT
HETATM    1  C   UNL     1     -44.826  60.128 -50.613  1.00  0.00     0.034 A 
HETATM    2  C   UNL     1     -43.493  60.133 -51.026  1.00  0.00     0.032 A 
HETATM    3  C   UNL     1     -42.902  58.972 -51.548  1.00  0.00     0.031 A 
HETATM    4  C   UNL     1     -43.616  57.770 -51.661  1.00  0.00     0.030 A 
HETATM    5  C   UNL     1     -44.965  57.800 -51.301  1.00  0.00     0.031 A 
HETATM    6  C   UNL     1     -45.566  58.959 -50.788  1.00  0.00     0.032 A 
ENDROOT
BRANCH   1   7
HETATM    7  N   UNL     1     -45.324  61.281 -49.977  1.00  0.00    -0.325 N 
HETATM    8  C   UNL     1     -46.384  62.071 -50.388  1.00  0.00     0.246 C 
HETATM    9  O   UNL     1     -46.959  62.004 -51.471  1.00  0.00    -0.271 OA
HETATM   10  H   UNL     1     -44.912  61.546 -49.086  1.00  0.00     0.169 HD
BRANCH   8  11
HETATM   11  C   UNL     1     -46.896  63.017 -49.301  1.00  0.00     0.278 C 
BRANCH  11  12
HETATM   12  O   UNL     1     -47.343  62.339 -48.130  1.00  0.00    -0.342 OA
BRANCH  12  13
HETATM   13  C   UNL     1     -46.609  62.612 -47.003  1.00  0.00     0.069 A 
HETATM   14  C   UNL     1     -45.733  61.719 -46.379  1.00  0.00     0.044 A 
HETATM   15  C   UNL     1     -45.021  62.087 -45.221  1.00  0.00    -0.053 A 
HETATM   16  C   UNL     1     -45.215  63.366 -44.670  1.00  0.00    -0.056 A 
HETATM   17  C   UNL     1     -44.110  61.077 -44.577  1.00  0.00     0.049 C 
HETATM   18  C   UNL     1     -44.505  63.800 -43.416  1.00  0.00     0.049 C 
HETATM   19  C   UNL     1     -46.067  64.270 -45.324  1.00  0.00     0.010 A 
HETATM   20  C   UNL     1     -46.751  63.896 -46.485  1.00  0.00     0.037 A 
ENDBRANCH  12  13
ENDBRANCH  11  12
ENDBRANCH   8  11
ENDBRANCH   1   7
BRANCH   4  21
HETATM   21  N   UNL     1     -42.956  56.601 -52.023  1.00  0.00    -0.378 N 
HETATM   22  C   UNL     1     -42.120  55.905 -51.037  1.00  0.00     0.150 C 
HETATM   23  C   UNL     1     -40.976  55.182 -51.773  1.00  0.00     0.255 C 
HETATM   24  N   UNL     1     -41.514  54.250 -52.868  1.00  0.00    -0.064 N 
HETATM   25  H   UNL     1     -42.022  53.498 -52.389  1.00  0.00     0.280 HD
HETATM   26  C   UNL     1     -42.498  54.970 -53.798  1.00  0.00     0.255 C 
HETATM   27  C   UNL     1     -43.593  55.724 -53.015  1.00  0.00     0.150 C 
BRANCH  24  28
HETATM   28  C   UNL     1     -40.405  53.612 -53.676  1.00  0.00     0.273 C 
BRANCH  28  29
HETATM   29  C   UNL     1     -40.105  52.188 -53.295  1.00  0.00    -0.033 A 
HETATM   30  C   UNL     1     -40.107  51.170 -54.260  1.00  0.00     0.009 A 
HETATM   31  C   UNL     1     -39.850  49.849 -53.889  1.00  0.00     0.001 A 
HETATM   32  C   UNL     1     -39.592  49.532 -52.557  1.00  0.00     0.000 A 
HETATM   33  C   UNL     1     -39.586  50.534 -51.591  1.00  0.00     0.001 A 
HETATM   34  C   UNL     1     -39.839  51.856 -51.955  1.00  0.00     0.009 A 
ENDBRANCH  28  29
ENDBRANCH  24  28
ENDBRANCH   4  21
TORSDOF 7
ENDMDL
MODEL 2
REMARK VINA RESULT:      -8.7      4.320     11.605
REMARK  7 active torsions:
REMARK  status: ('A' for Active; 'I' for Inactive)
REMARK    1  A    between atoms: C_6  and  O_7 
REMARK    2  A    between atoms: O_7  and  C_8 
REMARK    3  A    between atoms: C_8  and  C_9 
REMARK       I    between atoms: C_9  and  N_10 
REMARK    4  A    between atoms: N_10  and  C_11 
REMARK    5  A    between atoms: C_14  and  N_15 
REMARK    6  A    between atoms: N_18  and  C_20 
REMARK    7  A    between atoms: C_20  and  C_21 
ROOT
HETATM    1  C   UNL     1     -41.541  56.981 -51.242  1.00  0.00     0.034 A 
HETATM    2  C   UNL     1     -42.531  56.522 -52.111  1.00  0.00     0.032 A 
HETATM    3  C   UNL     1     -43.555  57.377 -52.546  1.00  0.00     0.031 A 
HETATM    4  C   UNL     1     -43.631  58.710 -52.116  1.00  0.00     0.030 A 
HETATM    5  C   UNL     1     -42.598  59.170 -51.296  1.00  0.00     0.031 A 
HETATM    6  C   UNL     1     -41.566  58.324 -50.866  1.00  0.00     0.032 A 
ENDROOT
BRANCH   1   7
HETATM    7  N   UNL     1     -40.619  56.045 -50.737  1.00  0.00    -0.325 N 
HETATM    8  C   UNL     1     -40.805  55.178 -49.674  1.00  0.00     0.246 C 
HETATM    9  O   UNL     1     -41.740  55.199 -48.877  1.00  0.00    -0.271 OA
HETATM   10  H   UNL     1     -39.736  55.936 -51.230  1.00  0.00     0.169 HD
BRANCH   8  11
HETATM   11  C   UNL     1     -39.768  54.055 -49.615  1.00  0.00     0.278 C 
BRANCH  11  12
HETATM   12  O   UNL     1     -40.341  52.754 -49.718  1.00  0.00    -0.342 OA
BRANCH  12  13
HETATM   13  C   UNL     1     -40.162  52.153 -50.939  1.00  0.00     0.069 A 
HETATM   14  C   UNL     1     -40.287  52.792 -52.175  1.00  0.00     0.044 A 
HETATM   15  C   UNL     1     -40.087  52.093 -53.380  1.00  0.00    -0.053 A 
HETATM   16  C   UNL     1     -39.783  50.720 -53.339  1.00  0.00    -0.056 A 
HETATM   17  C   UNL     1     -40.257  52.826 -54.684  1.00  0.00     0.049 C 
HETATM   18  C   UNL     1     -39.591  49.916 -54.596  1.00  0.00     0.049 C 
HETATM   19  C   UNL     1     -39.622  50.094 -52.092  1.00  0.00     0.010 A 
HETATM   20  C   UNL     1     -39.804  50.808 -50.904  1.00  0.00     0.037 A 
ENDBRANCH  12  13
ENDBRANCH  11  12
ENDBRANCH   8  11
ENDBRANCH   1   7
BRANCH   4  21
HETATM   21  N   UNL     1     -44.746  59.479 -52.431  1.00  0.00    -0.378 N 
HETATM   22  C   UNL     1     -45.180  59.587 -53.829  1.00  0.00     0.150 C 
HETATM   23  C   UNL     1     -45.849  60.959 -54.040  1.00  0.00     0.255 C 
HETATM   24  N   UNL     1     -46.989  61.188 -53.038  1.00  0.00    -0.064 N 
HETATM   25  H   UNL     1     -47.723  60.511 -53.271  1.00  0.00     0.280 HD
HETATM   26  C   UNL     1     -46.541  60.928 -51.595  1.00  0.00     0.255 C 
HETATM   27  C   UNL     1     -45.830  59.566 -51.443  1.00  0.00     0.150 C 
BRANCH  24  28
HETATM   28  C   UNL     1     -47.589  62.572 -53.156  1.00  0.00     0.273 C 
BRANCH  28  29
HETATM   29  C   UNL     1     -49.045  62.648 -52.787  1.00  0.00    -0.033 A 
HETATM   30  C   UNL     1     -49.471  63.412 -51.691  1.00  0.00     0.009 A 
HETATM   31  C   UNL     1     -50.822  63.454 -51.345  1.00  0.00     0.001 A 
HETATM   32  C   UNL     1     -51.758  62.735 -52.086  1.00  0.00     0.000 A 
HETATM   33  C   UNL     1     -51.348  61.974 -53.177  1.00  0.00     0.001 A 
HETATM   34  C   UNL     1     -49.999  61.930 -53.529  1.00  0.00     0.009 A 
ENDBRANCH  28  29
ENDBRANCH  24  28
ENDBRANCH   4  21
TORSDOF 7
ENDMDL
MODEL 3
REMARK VINA RESULT:      -8.4      3.383      4.900
REMARK  7 active torsions:
REMARK  status: ('A' for Active; 'I' for Inactive)
REMARK    1  A    between atoms: C_6  and  O_7 
REMARK    2  A    between atoms: O_7  and  C_8 
REMARK    3  A    between atoms: C_8  and  C_9 
REMARK       I    between atoms: C_9  and  N_10 
REMARK    4  A    between atoms: N_10  and  C_11 
REMARK    5  A    between atoms: C_14  and  N_15 
REMARK    6  A    between atoms: N_18  and  C_20 
REMARK    7  A    between atoms: C_20  and  C_21 
ROOT
HETATM    1  C   UNL     1     -45.682  59.707 -52.121  1.00  0.00     0.034 A 
HETATM    2  C   UNL     1     -45.114  59.481 -53.374  1.00  0.00     0.032 A 
HETATM    3  C   UNL     1     -44.271  58.380 -53.590  1.00  0.00     0.031 A 
HETATM    4  C   UNL     1     -43.958  57.481 -52.561  1.00  0.00     0.030 A 
HETATM    5  C   UNL     1     -44.585  57.686 -51.329  1.00  0.00     0.031 A 
HETATM    6  C   UNL     1     -45.437  58.778 -51.110  1.00  0.00     0.032 A 
ENDROOT
BRANCH   1   7
HETATM    7  N   UNL     1     -46.410  60.897 -51.930  1.00  0.00    -0.325 N 
HETATM    8  C   UNL     1     -45.968  62.058 -51.321  1.00  0.00     0.246 C 
HETATM    9  O   UNL     1     -44.925  62.191 -50.684  1.00  0.00    -0.271 OA
HETATM   10  H   UNL     1     -47.344  60.950 -52.328  1.00  0.00     0.169 HD
BRANCH   8  11
HETATM   11  C   UNL     1     -46.860  63.270 -51.598  1.00  0.00     0.278 C 
BRANCH  11  12
HETATM   12  O   UNL     1     -47.667  63.118 -52.763  1.00  0.00    -0.342 OA
BRANCH  12  13
HETATM   13  C   UNL     1     -49.010  62.990 -52.507  1.00  0.00     0.069 A 
HETATM   14  C   UNL     1     -49.913  62.273 -53.296  1.00  0.00     0.044 A 
HETATM   15  C   UNL     1     -51.277  62.198 -52.957  1.00  0.00    -0.053 A 
HETATM   16  C   UNL     1     -51.743  62.880 -51.818  1.00  0.00    -0.056 A 
HETATM   17  C   UNL     1     -52.209  61.431 -53.857  1.00  0.00     0.049 C 
HETATM   18  C   UNL     1     -53.196  62.861 -51.427  1.00  0.00     0.049 C 
HETATM   19  C   UNL     1     -50.823  63.567 -51.010  1.00  0.00     0.010 A 
HETATM   20  C   UNL     1     -49.468  63.614 -51.350  1.00  0.00     0.037 A 
ENDBRANCH  12  13
ENDBRANCH  11  12
ENDBRANCH   8  11
ENDBRANCH   1   7
BRANCH   4  21
HETATM   21  N   UNL     1     -42.992  56.501 -52.762  1.00  0.00    -0.378 N 
HETATM   22  C   UNL     1     -41.583  56.891 -52.897  1.00  0.00     0.150 C 
HETATM   23  C   UNL     1     -40.869  55.876 -53.812  1.00  0.00     0.255 C 
HETATM   24  N   UNL     1     -41.048  54.439 -53.303  1.00  0.00    -0.064 N 
HETATM   25  H   UNL     1     -40.541  54.378 -52.413  1.00  0.00     0.280 HD
HETATM   26  C   UNL     1     -42.522  54.109 -53.035  1.00  0.00     0.255 C 
HETATM   27  C   UNL     1     -43.208  55.179 -52.160  1.00  0.00     0.150 C 
BRANCH  24  28
HETATM   28  C   UNL     1     -40.448  53.417 -54.244  1.00  0.00     0.273 C 
BRANCH  28  29
HETATM   29  C   UNL     1     -40.135  52.095 -53.600  1.00  0.00    -0.033 A 
HETATM   30  C   UNL     1     -39.810  52.016 -52.238  1.00  0.00     0.009 A 
HETATM   31  C   UNL     1     -39.497  50.786 -51.659  1.00  0.00     0.001 A 
HETATM   32  C   UNL     1     -39.504  49.626 -52.431  1.00  0.00     0.000 A 
HETATM   33  C   UNL     1     -39.826  49.690 -53.783  1.00  0.00     0.001 A 
HETATM   34  C   UNL     1     -40.142  50.917 -54.367  1.00  0.00     0.009 A 
ENDBRANCH  28  29
ENDBRANCH  24  28
ENDBRANCH   4  21
TORSDOF 7
ENDMDL
MODEL 4
REMARK VINA RESULT:      -8.1      5.457     10.326
REMARK  7 active torsions:
REMARK  status: ('A' for Active; 'I' for Inactive)
REMARK    1  A    between atoms: C_6  and  O_7 
REMARK    2  A    between atoms: O_7  and  C_8 
REMARK    3  A    between atoms: C_8  and  C_9 
REMARK       I    between atoms: C_9  and  N_10 
REMARK    4  A    between atoms: N_10  and  C_11 
REMARK    5  A    between atoms: C_14  and  N_15 
REMARK    6  A    between atoms: N_18  and  C_20 
REMARK    7  A    between atoms: C_20  and  C_21 
ROOT
HETATM    1  C   UNL     1     -41.387  56.548 -51.686  1.00  0.00     0.034 A 
HETATM    2  C   UNL     1     -41.451  56.079 -52.998  1.00  0.00     0.032 A 
HETATM    3  C   UNL     1     -42.200  56.763 -53.967  1.00  0.00     0.031 A 
HETATM    4  C   UNL     1     -42.920  57.925 -53.655  1.00  0.00     0.030 A 
HETATM    5  C   UNL     1     -42.795  58.415 -52.352  1.00  0.00     0.031 A 
HETATM    6  C   UNL     1     -42.039  57.743 -51.382  1.00  0.00     0.032 A 
ENDROOT
BRANCH   1   7
HETATM    7  N   UNL     1     -40.730  55.750 -50.730  1.00  0.00    -0.325 N 
HETATM    8  C   UNL     1     -41.277  54.721 -49.983  1.00  0.00     0.246 C 
HETATM    9  O   UNL     1     -42.471  54.444 -49.895  1.00  0.00    -0.271 OA
HETATM   10  H   UNL     1     -39.731  55.889 -50.603  1.00  0.00     0.169 HD
BRANCH   8  11
HETATM   11  C   UNL     1     -40.229  53.828 -49.316  1.00  0.00     0.278 C 
BRANCH  11  12
HETATM   12  O   UNL     1     -40.518  52.438 -49.436  1.00  0.00    -0.342 OA
BRANCH  12  13
HETATM   13  C   UNL     1     -40.258  51.911 -50.677  1.00  0.00     0.069 A 
HETATM   14  C   UNL     1     -40.295  52.627 -51.877  1.00  0.00     0.044 A 
HETATM   15  C   UNL     1     -40.016  52.002 -53.107  1.00  0.00    -0.053 A 
HETATM   16  C   UNL     1     -39.721  50.626 -53.130  1.00  0.00    -0.056 A 
HETATM   17  C   UNL     1     -40.093  52.816 -54.370  1.00  0.00     0.049 C 
HETATM   18  C   UNL     1     -39.448  49.900 -54.419  1.00  0.00     0.049 C 
HETATM   19  C   UNL     1     -39.650  49.923 -51.917  1.00  0.00     0.010 A 
HETATM   20  C   UNL     1     -39.910  50.564 -50.702  1.00  0.00     0.037 A 
ENDBRANCH  12  13
ENDBRANCH  11  12
ENDBRANCH   8  11
ENDBRANCH   1   7
BRANCH   4  21
HETATM   21  N   UNL     1     -43.783  58.482 -54.592  1.00  0.00    -0.378 N 
HETATM   22  C   UNL     1     -45.158  57.978 -54.699  1.00  0.00     0.150 C 
HETATM   23  C   UNL     1     -45.637  58.139 -56.155  1.00  0.00     0.255 C 
HETATM   24  N   UNL     1     -45.490  59.589 -56.637  1.00  0.00    -0.064 N 
HETATM   25  H   UNL     1     -46.153  60.148 -56.089  1.00  0.00     0.280 HD
HETATM   26  C   UNL     1     -44.080  60.135 -56.380  1.00  0.00     0.255 C 
HETATM   27  C   UNL     1     -43.623  59.904 -54.924  1.00  0.00     0.150 C 
BRANCH  24  28
HETATM   28  C   UNL     1     -45.852  59.749 -58.098  1.00  0.00     0.273 C 
BRANCH  28  29
HETATM   29  C   UNL     1     -45.713  58.491 -58.909  1.00  0.00    -0.033 A 
HETATM   30  C   UNL     1     -46.837  57.718 -59.238  1.00  0.00     0.009 A 
HETATM   31  C   UNL     1     -46.690  56.540 -59.971  1.00  0.00     0.001 A 
HETATM   32  C   UNL     1     -45.427  56.121 -60.381  1.00  0.00     0.000 A 
HETATM   33  C   UNL     1     -44.304  56.880 -60.063  1.00  0.00     0.001 A 
HETATM   34  C   UNL     1     -44.443  58.059 -59.332  1.00  0.00     0.009 A 
ENDBRANCH  28  29
ENDBRANCH  24  28
ENDBRANCH   4  21
TORSDOF 7
ENDMDL
MODEL 5
REMARK VINA RESULT:      -8.1      3.787      6.017
REMARK  7 active torsions:
REMARK  status: ('A' for Active; 'I' for Inactive)
REMARK    1  A    between atoms: C_6  and  O_7 
REMARK    2  A    between atoms: O_7  and  C_8 
REMARK    3  A    between atoms: C_8  and  C_9 
REMARK       I    between atoms: C_9  and  N_10 
REMARK    4  A    between atoms: N_10  and  C_11 
REMARK    5  A    between atoms: C_14  and  N_15 
REMARK    6  A    between atoms: N_18  and  C_20 
REMARK    7  A    between atoms: C_20  and  C_21 
ROOT
HETATM    1  C   UNL     1     -45.873  59.849 -52.203  1.00  0.00     0.034 A 
HETATM    2  C   UNL     1     -45.900  59.057 -51.055  1.00  0.00     0.032 A 
HETATM    3  C   UNL     1     -44.893  58.109 -50.817  1.00  0.00     0.031 A 
HETATM    4  C   UNL     1     -43.840  57.912 -51.721  1.00  0.00     0.030 A 
HETATM    5  C   UNL     1     -43.795  58.756 -52.833  1.00  0.00     0.031 A 
HETATM    6  C   UNL     1     -44.791  59.714 -53.072  1.00  0.00     0.032 A 
ENDROOT
BRANCH   1   7
HETATM    7  N   UNL     1     -46.977  60.687 -52.452  1.00  0.00    -0.325 N 
HETATM    8  C   UNL     1     -47.080  62.039 -52.172  1.00  0.00     0.246 C 
HETATM    9  O   UNL     1     -46.295  62.701 -51.498  1.00  0.00    -0.271 OA
HETATM   10  H   UNL     1     -47.772  60.289 -52.945  1.00  0.00     0.169 HD
BRANCH   8  11
HETATM   11  C   UNL     1     -48.246  62.723 -52.889  1.00  0.00     0.278 C 
BRANCH  11  12
HETATM   12  O   UNL     1     -49.416  62.828 -52.084  1.00  0.00    -0.342 OA
BRANCH  12  13
HETATM   13  C   UNL     1     -50.593  62.667 -52.773  1.00  0.00     0.069 A 
HETATM   14  C   UNL     1     -50.757  61.869 -53.908  1.00  0.00     0.044 A 
HETATM   15  C   UNL     1     -52.004  61.765 -54.552  1.00  0.00    -0.053 A 
HETATM   16  C   UNL     1     -53.098  62.500 -54.060  1.00  0.00    -0.056 A 
HETATM   17  C   UNL     1     -52.116  60.909 -55.785  1.00  0.00     0.049 C 
HETATM   18  C   UNL     1     -54.444  62.453 -54.728  1.00  0.00     0.049 C 
HETATM   19  C   UNL     1     -52.934  63.270 -52.897  1.00  0.00     0.010 A 
HETATM   20  C   UNL     1     -51.694  63.346 -52.257  1.00  0.00     0.037 A 
ENDBRANCH  12  13
ENDBRANCH  11  12
ENDBRANCH   8  11
ENDBRANCH   1   7
BRANCH   4  21
HETATM   21  N   UNL     1     -42.955  56.854 -51.540  1.00  0.00    -0.378 N 
HETATM   22  C   UNL     1     -43.163  55.602 -52.279  1.00  0.00     0.150 C 
HETATM   23  C   UNL     1     -42.627  54.429 -51.435  1.00  0.00     0.255 C 
HETATM   24  N   UNL     1     -41.163  54.652 -51.030  1.00  0.00    -0.064 N 
HETATM   25  H   UNL     1     -40.611  54.615 -51.894  1.00  0.00     0.280 HD
HETATM   26  C   UNL     1     -40.951  56.030 -50.389  1.00  0.00     0.255 C 
HETATM   27  C   UNL     1     -41.551  57.167 -51.244  1.00  0.00     0.150 C 
BRANCH  24  28
HETATM   28  C   UNL     1     -40.649  53.566 -50.110  1.00  0.00     0.273 C 
BRANCH  28  29
HETATM   29  C   UNL     1     -40.280  52.287 -50.811  1.00  0.00    -0.033 A 
HETATM   30  C   UNL     1     -40.268  51.066 -50.121  1.00  0.00     0.009 A 
HETATM   31  C   UNL     1     -39.900  49.891 -50.778  1.00  0.00     0.001 A 
HETATM   32  C   UNL     1     -39.541  49.922 -52.123  1.00  0.00     0.000 A 
HETATM   33  C   UNL     1     -39.551  51.128 -52.820  1.00  0.00     0.001 A 
HETATM   34  C   UNL     1     -39.920  52.305 -52.170  1.00  0.00     0.009 A 
ENDBRANCH  28  29
ENDBRANCH  24  28
ENDBRANCH   4  21
TORSDOF 7
ENDMDL
MODEL 6
REMARK VINA RESULT:      -7.9      3.853      5.240
REMARK  7 active torsions:
REMARK  status: ('A' for Active; 'I' for Inactive)
REMARK    1  A    between atoms: C_6  and  O_7 
REMARK    2  A    between atoms: O_7  and  C_8 
REMARK    3  A    between atoms: C_8  and  C_9 
REMARK       I    between atoms: C_9  and  N_10 
REMARK    4  A    between atoms: N_10  and  C_11 
REMARK    5  A    between atoms: C_14  and  N_15 
REMARK    6  A    between atoms: N_18  and  C_20 
REMARK    7  A    between atoms: C_20  and  C_21 
ROOT
HETATM    1  C   UNL     1     -45.668  59.776 -52.113  1.00  0.00     0.034 A 
HETATM    2  C   UNL     1     -45.170  59.214 -53.289  1.00  0.00     0.032 A 
HETATM    3  C   UNL     1     -44.459  58.005 -53.258  1.00  0.00     0.031 A 
HETATM    4  C   UNL     1     -44.212  57.328 -52.055  1.00  0.00     0.030 A 
HETATM    5  C   UNL     1     -44.771  57.872 -50.896  1.00  0.00     0.031 A 
HETATM    6  C   UNL     1     -45.491  59.075 -50.921  1.00  0.00     0.032 A 
ENDROOT
BRANCH   1   7
HETATM    7  N   UNL     1     -46.256  61.054 -52.189  1.00  0.00    -0.325 N 
HETATM    8  C   UNL     1     -45.846  62.116 -52.977  1.00  0.00     0.246 C 
HETATM    9  O   UNL     1     -44.796  62.186 -53.610  1.00  0.00    -0.271 OA
HETATM   10  H   UNL     1     -47.109  61.215 -51.661  1.00  0.00     0.169 HD
BRANCH   8  11
HETATM   11  C   UNL     1     -46.896  63.221 -53.103  1.00  0.00     0.278 C 
BRANCH  11  12
HETATM   12  O   UNL     1     -47.931  62.910 -54.032  1.00  0.00    -0.342 OA
BRANCH  12  13
HETATM   13  C   UNL     1     -49.191  62.887 -53.488  1.00  0.00     0.069 A 
HETATM   14  C   UNL     1     -50.342  62.447 -54.146  1.00  0.00     0.044 A 
HETATM   15  C   UNL     1     -51.597  62.461 -53.508  1.00  0.00    -0.053 A 
HETATM   16  C   UNL     1     -51.697  62.953 -52.194  1.00  0.00    -0.056 A 
HETATM   17  C   UNL     1     -52.807  61.997 -54.274  1.00  0.00     0.049 C 
HETATM   18  C   UNL     1     -53.017  63.022 -51.476  1.00  0.00     0.049 C 
HETATM   19  C   UNL     1     -50.530  63.358 -51.527  1.00  0.00     0.010 A 
HETATM   20  C   UNL     1     -49.288  63.318 -52.168  1.00  0.00     0.037 A 
ENDBRANCH  12  13
ENDBRANCH  11  12
ENDBRANCH   8  11
ENDBRANCH   1   7
BRANCH   4  21
HETATM   21  N   UNL     1     -43.365  56.224 -52.039  1.00  0.00    -0.378 N 
HETATM   22  C   UNL     1     -43.602  55.144 -51.073  1.00  0.00     0.150 C 
HETATM   23  C   UNL     1     -42.252  54.492 -50.713  1.00  0.00     0.255 C 
HETATM   24  N   UNL     1     -41.504  54.022 -51.968  1.00  0.00    -0.064 N 
HETATM   25  H   UNL     1     -42.057  53.256 -52.369  1.00  0.00     0.280 HD
HETATM   26  C   UNL     1     -41.399  55.133 -53.020  1.00  0.00     0.255 C 
HETATM   27  C   UNL     1     -42.764  55.793 -53.308  1.00  0.00     0.150 C 
BRANCH  24  28
HETATM   28  C   UNL     1     -40.130  53.476 -51.647  1.00  0.00     0.273 C 
BRANCH  28  29
HETATM   29  C   UNL     1     -39.924  52.042 -52.052  1.00  0.00    -0.033 A 
HETATM   30  C   UNL     1     -39.813  51.031 -51.087  1.00  0.00     0.009 A 
HETATM   31  C   UNL     1     -39.598  49.708 -51.475  1.00  0.00     0.001 A 
HETATM   32  C   UNL     1     -39.492  49.382 -52.825  1.00  0.00     0.000 A 
HETATM   33  C   UNL     1     -39.603  50.377 -53.793  1.00  0.00     0.001 A 
HETATM   34  C   UNL     1     -39.819  51.700 -53.412  1.00  0.00     0.009 A 
ENDBRANCH  28  29
ENDBRANCH  24  28
ENDBRANCH   4  21
TORSDOF 7
ENDMDL
MODEL 7
REMARK VINA RESULT:      -7.9      5.595      9.871
REMARK  7 active torsions:
REMARK  status: ('A' for Active; 'I' for Inactive)
REMARK    1  A    between atoms: C_6  and  O_7 
REMARK    2  A    between atoms: O_7  and  C_8 
REMARK    3  A    between atoms: C_8  and  C_9 
REMARK       I    between atoms: C_9  and  N_10 
REMARK    4  A    between atoms: N_10  and  C_11 
REMARK    5  A    between atoms: C_14  and  N_15 
REMARK    6  A    between atoms: N_18  and  C_20 
REMARK    7  A    between atoms: C_20  and  C_21 
ROOT
HETATM    1  C   UNL     1     -41.331  57.775 -52.779  1.00  0.00     0.034 A 
HETATM    2  C   UNL     1     -41.537  56.945 -53.881  1.00  0.00     0.032 A 
HETATM    3  C   UNL     1     -41.950  57.478 -55.111  1.00  0.00     0.031 A 
HETATM    4  C   UNL     1     -42.183  58.852 -55.276  1.00  0.00     0.030 A 
HETATM    5  C   UNL     1     -41.911  59.675 -54.180  1.00  0.00     0.031 A 
HETATM    6  C   UNL     1     -41.488  59.149 -52.951  1.00  0.00     0.032 A 
ENDROOT
BRANCH   1   7
HETATM    7  N   UNL     1     -41.047  57.169 -51.540  1.00  0.00    -0.325 N 
HETATM    8  C   UNL     1     -41.950  56.582 -50.670  1.00  0.00     0.246 C 
HETATM    9  O   UNL     1     -43.174  56.646 -50.745  1.00  0.00    -0.271 OA
HETATM   10  H   UNL     1     -40.071  57.091 -51.263  1.00  0.00     0.169 HD
BRANCH   8  11
HETATM   11  C   UNL     1     -41.289  55.705 -49.605  1.00  0.00     0.278 C 
BRANCH  11  12
HETATM   12  O   UNL     1     -41.712  54.345 -49.655  1.00  0.00    -0.342 OA
BRANCH  12  13
HETATM   13  C   UNL     1     -41.209  53.635 -50.718  1.00  0.00     0.069 A 
HETATM   14  C   UNL     1     -41.628  53.769 -52.044  1.00  0.00     0.044 A 
HETATM   15  C   UNL     1     -41.055  52.995 -53.071  1.00  0.00    -0.053 A 
HETATM   16  C   UNL     1     -40.062  52.052 -52.751  1.00  0.00    -0.056 A 
HETATM   17  C   UNL     1     -41.563  53.164 -54.478  1.00  0.00     0.049 C 
HETATM   18  C   UNL     1     -39.438  51.176 -53.803  1.00  0.00     0.049 C 
HETATM   19  C   UNL     1     -39.620  51.951 -51.422  1.00  0.00     0.010 A 
HETATM   20  C   UNL     1     -40.184  52.742 -50.417  1.00  0.00     0.037 A 
ENDBRANCH  12  13
ENDBRANCH  11  12
ENDBRANCH   8  11
ENDBRANCH   1   7
BRANCH   4  21
HETATM   21  N   UNL     1     -42.750  59.325 -56.455  1.00  0.00    -0.378 N 
HETATM   22  C   UNL     1     -44.057  59.991 -56.412  1.00  0.00     0.150 C 
HETATM   23  C   UNL     1     -44.788  59.741 -57.746  1.00  0.00     0.255 C 
HETATM   24  N   UNL     1     -43.933  60.174 -58.945  1.00  0.00    -0.064 N 
HETATM   25  H   UNL     1     -43.847  61.195 -58.890  1.00  0.00     0.280 HD
HETATM   26  C   UNL     1     -42.522  59.575 -58.884  1.00  0.00     0.255 C 
HETATM   27  C   UNL     1     -41.851  59.803 -57.513  1.00  0.00     0.150 C 
BRANCH  24  28
HETATM   28  C   UNL     1     -44.585  59.838 -60.268  1.00  0.00     0.273 C 
BRANCH  28  29
HETATM   29  C   UNL     1     -45.107  58.431 -60.360  1.00  0.00    -0.033 A 
HETATM   30  C   UNL     1     -46.485  58.173 -60.354  1.00  0.00     0.009 A 
HETATM   31  C   UNL     1     -46.956  56.861 -60.415  1.00  0.00     0.001 A 
HETATM   32  C   UNL     1     -46.059  55.797 -60.480  1.00  0.00     0.000 A 
HETATM   33  C   UNL     1     -44.688  56.040 -60.488  1.00  0.00     0.001 A 
HETATM   34  C   UNL     1     -44.212  57.349 -60.429  1.00  0.00     0.009 A 
ENDBRANCH  28  29
ENDBRANCH  24  28
ENDBRANCH   4  21
TORSDOF 7
ENDMDL
MODEL 8
REMARK VINA RESULT:      -7.8      2.527     11.694
REMARK  7 active torsions:
REMARK  status: ('A' for Active; 'I' for Inactive)
REMARK    1  A    between atoms: C_6  and  O_7 
REMARK    2  A    between atoms: O_7  and  C_8 
REMARK    3  A    between atoms: C_8  and  C_9 
REMARK       I    between atoms: C_9  and  N_10 
REMARK    4  A    between atoms: N_10  and  C_11 
REMARK    5  A    between atoms: C_14  and  N_15 
REMARK    6  A    between atoms: N_18  and  C_20 
REMARK    7  A    between atoms: C_20  and  C_21 
ROOT
HETATM    1  C   UNL     1     -42.983  59.389 -51.414  1.00  0.00     0.034 A 
HETATM    2  C   UNL     1     -44.318  59.262 -51.032  1.00  0.00     0.032 A 
HETATM    3  C   UNL     1     -44.933  60.244 -50.242  1.00  0.00     0.031 A 
HETATM    4  C   UNL     1     -44.233  61.375 -49.797  1.00  0.00     0.030 A 
HETATM    5  C   UNL     1     -42.915  61.517 -50.241  1.00  0.00     0.031 A 
HETATM    6  C   UNL     1     -42.298  60.545 -51.040  1.00  0.00     0.032 A 
ENDROOT
BRANCH   1   7
HETATM    7  N   UNL     1     -42.384  58.311 -52.094  1.00  0.00    -0.325 N 
HETATM    8  C   UNL     1     -41.360  57.500 -51.636  1.00  0.00     0.246 C 
HETATM    9  O   UNL     1     -40.677  57.692 -50.633  1.00  0.00    -0.271 OA
HETATM   10  H   UNL     1     -42.772  58.045 -52.995  1.00  0.00     0.169 HD
BRANCH   8  11
HETATM   11  C   UNL     1     -41.192  56.214 -52.447  1.00  0.00     0.278 C 
BRANCH  11  12
HETATM   12  O   UNL     1     -41.524  55.039 -51.711  1.00  0.00    -0.342 OA
BRANCH  12  13
HETATM   13  C   UNL     1     -41.032  53.876 -52.251  1.00  0.00     0.069 A 
HETATM   14  C   UNL     1     -40.447  52.837 -51.523  1.00  0.00     0.044 A 
HETATM   15  C   UNL     1     -39.967  51.679 -52.164  1.00  0.00    -0.053 A 
HETATM   16  C   UNL     1     -40.055  51.579 -53.564  1.00  0.00    -0.056 A 
HETATM   17  C   UNL     1     -39.326  50.601 -51.332  1.00  0.00     0.049 C 
HETATM   18  C   UNL     1     -39.528  50.379 -54.303  1.00  0.00     0.049 C 
HETATM   19  C   UNL     1     -40.677  52.611 -54.284  1.00  0.00     0.010 A 
HETATM   20  C   UNL     1     -41.167  53.745 -53.631  1.00  0.00     0.037 A 
ENDBRANCH  12  13
ENDBRANCH  11  12
ENDBRANCH   8  11
ENDBRANCH   1   7
BRANCH   4  21
HETATM   21  N   UNL     1     -44.819  62.242 -48.881  1.00  0.00    -0.378 N 
HETATM   22  C   UNL     1     -44.306  63.611 -48.749  1.00  0.00     0.150 C 
HETATM   23  C   UNL     1     -44.523  64.087 -47.299  1.00  0.00     0.255 C 
HETATM   24  N   UNL     1     -45.993  63.954 -46.879  1.00  0.00    -0.064 N 
HETATM   25  H   UNL     1     -46.522  64.624 -47.448  1.00  0.00     0.280 HD
HETATM   26  C   UNL     1     -46.543  62.551 -47.163  1.00  0.00     0.255 C 
HETATM   27  C   UNL     1     -46.255  62.095 -48.610  1.00  0.00     0.150 C 
BRANCH  24  28
HETATM   28  C   UNL     1     -46.210  64.314 -45.425  1.00  0.00     0.273 C 
BRANCH  28  29
HETATM   29  C   UNL     1     -45.112  63.857 -44.505  1.00  0.00    -0.033 A 
HETATM   30  C   UNL     1     -44.356  64.783 -43.771  1.00  0.00     0.009 A 
HETATM   31  C   UNL     1     -43.324  64.347 -42.940  1.00  0.00     0.001 A 
HETATM   32  C   UNL     1     -43.035  62.988 -42.834  1.00  0.00     0.000 A 
HETATM   33  C   UNL     1     -43.778  62.059 -43.557  1.00  0.00     0.001 A 
HETATM   34  C   UNL     1     -44.812  62.488 -44.388  1.00  0.00     0.009 A 
ENDBRANCH  28  29
ENDBRANCH  24  28
ENDBRANCH   4  21
TORSDOF 7
ENDMDL
MODEL 9
REMARK VINA RESULT:      -7.6      5.699     10.629
REMARK  7 active torsions:
REMARK  status: ('A' for Active; 'I' for Inactive)
REMARK    1  A    between atoms: C_6  and  O_7 
REMARK    2  A    between atoms: O_7  and  C_8 
REMARK    3  A    between atoms: C_8  and  C_9 
REMARK       I    between atoms: C_9  and  N_10 
REMARK    4  A    between atoms: N_10  and  C_11 
REMARK    5  A    between atoms: C_14  and  N_15 
REMARK    6  A    between atoms: N_18  and  C_20 
REMARK    7  A    between atoms: C_20  and  C_21 
ROOT
HETATM    1  C   UNL     1     -41.205  58.098 -52.160  1.00  0.00     0.034 A 
HETATM    2  C   UNL     1     -41.072  57.533 -53.429  1.00  0.00     0.032 A 
HETATM    3  C   UNL     1     -41.383  58.275 -54.579  1.00  0.00     0.031 A 
HETATM    4  C   UNL     1     -41.848  59.596 -54.497  1.00  0.00     0.030 A 
HETATM    5  C   UNL     1     -41.915  60.166 -53.223  1.00  0.00     0.031 A 
HETATM    6  C   UNL     1     -41.596  59.433 -52.071  1.00  0.00     0.032 A 
ENDROOT
BRANCH   1   7
HETATM    7  N   UNL     1     -41.006  57.264 -51.043  1.00  0.00    -0.325 N 
HETATM    8  C   UNL     1     -41.953  56.481 -50.406  1.00  0.00     0.246 C 
HETATM    9  O   UNL     1     -43.167  56.514 -50.595  1.00  0.00    -0.271 OA
HETATM   10  H   UNL     1     -40.059  57.167 -50.686  1.00  0.00     0.169 HD
BRANCH   8  11
HETATM   11  C   UNL     1     -41.348  55.432 -49.472  1.00  0.00     0.278 C 
BRANCH  11  12
HETATM   12  O   UNL     1     -41.853  54.119 -49.700  1.00  0.00    -0.342 OA
BRANCH  12  13
HETATM   13  C   UNL     1     -41.282  53.470 -50.767  1.00  0.00     0.069 A 
HETATM   14  C   UNL     1     -41.548  53.746 -52.111  1.00  0.00     0.044 A 
HETATM   15  C   UNL     1     -40.915  53.026 -53.142  1.00  0.00    -0.053 A 
HETATM   16  C   UNL     1     -40.019  51.993 -52.811  1.00  0.00    -0.056 A 
HETATM   17  C   UNL     1     -41.257  53.350 -54.571  1.00  0.00     0.049 C 
HETATM   18  C   UNL     1     -39.339  51.171 -53.871  1.00  0.00     0.049 C 
HETATM   19  C   UNL     1     -39.728  51.748 -51.460  1.00  0.00     0.010 A 
HETATM   20  C   UNL     1     -40.350  52.486 -50.449  1.00  0.00     0.037 A 
ENDBRANCH  12  13
ENDBRANCH  11  12
ENDBRANCH   8  11
ENDBRANCH   1   7
BRANCH   4  21
HETATM   21  N   UNL     1     -42.304  60.245 -55.640  1.00  0.00    -0.378 N 
HETATM   22  C   UNL     1     -42.140  59.603 -56.950  1.00  0.00     0.150 C 
HETATM   23  C   UNL     1     -41.987  60.697 -58.026  1.00  0.00     0.255 C 
HETATM   24  N   UNL     1     -43.156  61.691 -57.986  1.00  0.00    -0.064 N 
HETATM   25  H   UNL     1     -43.992  61.170 -58.272  1.00  0.00     0.280 HD
HETATM   26  C   UNL     1     -43.394  62.235 -56.572  1.00  0.00     0.255 C 
HETATM   27  C   UNL     1     -43.487  61.107 -55.522  1.00  0.00     0.150 C 
BRANCH  24  28
HETATM   28  C   UNL     1     -42.972  62.834 -58.960  1.00  0.00     0.273 C 
BRANCH  28  29
HETATM   29  C   UNL     1     -41.540  63.247 -59.164  1.00  0.00    -0.033 A 
HETATM   30  C   UNL     1     -40.802  62.769 -60.256  1.00  0.00     0.009 A 
HETATM   31  C   UNL     1     -39.467  63.141 -60.420  1.00  0.00     0.001 A 
HETATM   32  C   UNL     1     -38.858  63.990 -59.499  1.00  0.00     0.000 A 
HETATM   33  C   UNL     1     -39.580  64.472 -58.411  1.00  0.00     0.001 A 
HETATM   34  C   UNL     1     -40.915  64.106 -58.243  1.00  0.00     0.009 A 
ENDBRANCH  28  29
ENDBRANCH  24  28
ENDBRANCH   4  21
TORSDOF 7
ENDMDL
MODEL 10
REMARK VINA RESULT:      -7.6      4.000     11.779
REMARK  7 active torsions:
REMARK  status: ('A' for Active; 'I' for Inactive)
REMARK    1  A    between atoms: C_6  and  O_7 
REMARK    2  A    between atoms: O_7  and  C_8 
REMARK    3  A    between atoms: C_8  and  C_9 
REMARK       I    between atoms: C_9  and  N_10 
REMARK    4  A    between atoms: N_10  and  C_11 
REMARK    5  A    between atoms: C_14  and  N_15 
REMARK    6  A    between atoms: N_18  and  C_20 
REMARK    7  A    between atoms: C_20  and  C_21 
ROOT
HETATM    1  C   UNL     1     -44.091  58.220 -51.582  1.00  0.00     0.034 A 
HETATM    2  C   UNL     1     -45.190  58.535 -50.781  1.00  0.00     0.032 A 
HETATM    3  C   UNL     1     -46.040  59.598 -51.120  1.00  0.00     0.031 A 
HETATM    4  C   UNL     1     -45.814  60.388 -52.256  1.00  0.00     0.030 A 
HETATM    5  C   UNL     1     -44.746  60.020 -53.080  1.00  0.00     0.031 A 
HETATM    6  C   UNL     1     -43.899  58.951 -52.753  1.00  0.00     0.032 A 
ENDROOT
BRANCH   1   7
HETATM    7  N   UNL     1     -43.201  57.231 -51.122  1.00  0.00    -0.325 N 
HETATM    8  C   UNL     1     -43.023  55.960 -51.642  1.00  0.00     0.246 C 
HETATM    9  O   UNL     1     -43.735  55.414 -52.481  1.00  0.00    -0.271 OA
HETATM   10  H   UNL     1     -42.570  57.477 -50.364  1.00  0.00     0.169 HD
BRANCH   8  11
HETATM   11  C   UNL     1     -41.743  55.277 -51.156  1.00  0.00     0.278 C 
BRANCH  11  12
HETATM   12  O   UNL     1     -40.741  55.180 -52.164  1.00  0.00    -0.342 OA
BRANCH  12  13
HETATM   13  C   UNL     1     -40.458  53.896 -52.559  1.00  0.00     0.069 A 
HETATM   14  C   UNL     1     -40.144  52.841 -51.698  1.00  0.00     0.044 A 
HETATM   15  C   UNL     1     -39.866  51.554 -52.194  1.00  0.00    -0.053 A 
HETATM   16  C   UNL     1     -39.878  51.333 -53.583  1.00  0.00    -0.056 A 
HETATM   17  C   UNL     1     -39.511  50.461 -51.222  1.00  0.00     0.049 C 
HETATM   18  C   UNL     1     -39.555  49.985 -54.170  1.00  0.00     0.049 C 
HETATM   19  C   UNL     1     -40.230  52.388 -54.439  1.00  0.00     0.010 A 
HETATM   20  C   UNL     1     -40.525  53.656 -53.929  1.00  0.00     0.037 A 
ENDBRANCH  12  13
ENDBRANCH  11  12
ENDBRANCH   8  11
ENDBRANCH   1   7
BRANCH   4  21
HETATM   21  N   UNL     1     -46.574  61.532 -52.471  1.00  0.00    -0.378 N 
HETATM   22  C   UNL     1     -46.694  62.532 -51.403  1.00  0.00     0.150 C 
HETATM   23  C   UNL     1     -48.061  63.233 -51.527  1.00  0.00     0.255 C 
HETATM   24  N   UNL     1     -48.263  63.825 -52.929  1.00  0.00    -0.064 N 
HETATM   25  H   UNL     1     -47.580  64.584 -53.027  1.00  0.00     0.280 HD
HETATM   26  C   UNL     1     -47.990  62.793 -54.029  1.00  0.00     0.255 C 
HETATM   27  C   UNL     1     -46.635  62.079 -53.833  1.00  0.00     0.150 C 
BRANCH  24  28
HETATM   28  C   UNL     1     -49.642  64.423 -53.107  1.00  0.00     0.273 C 
BRANCH  28  29
HETATM   29  C   UNL     1     -50.681  63.448 -53.587  1.00  0.00    -0.033 A 
HETATM   30  C   UNL     1     -51.277  63.593 -54.848  1.00  0.00     0.009 A 
HETATM   31  C   UNL     1     -52.257  62.695 -55.271  1.00  0.00     0.001 A 
HETATM   32  C   UNL     1     -52.652  61.647 -54.442  1.00  0.00     0.000 A 
HETATM   33  C   UNL     1     -52.067  61.491 -53.189  1.00  0.00     0.001 A 
HETATM   34  C   UNL     1     -51.086  62.384 -52.761  1.00  0.00     0.009 A 
ENDBRANCH  28  29
ENDBRANCH  24  28
ENDBRANCH   4  21
TORSDOF 7
ENDMDL
