MODEL 1
REMARK VINA RESULT:      -8.1      0.000      0.000
REMARK  7 active torsions:
REMARK  status: ('A' for Active; 'I' for Inactive)
REMARK    1  A    between atoms: C_8  and  C_9 
REMARK    2  A    between atoms: C_9  and  N_10 
REMARK    3  A    between atoms: C_9  and  C_14 
REMARK       I    between atoms: C_14  and  N_15 
REMARK    4  A    between atoms: N_15  and  C_16 
REMARK    5  A    between atoms: C_16  and  C_17 
REMARK    6  A    between atoms: C_17  and  C_18 
REMARK    7  A    between atoms: C_20  and  C_21 
ROOT
HETATM    1  C   UNL     1     -43.322  56.171 -52.727  1.00  0.00     0.253 C 
HETATM    2  N   UNL     1     -42.904  56.237 -54.034  1.00  0.00    -0.359 N 
HETATM    3  O   UNL     1     -43.623  55.128 -52.145  1.00  0.00    -0.271 OA
HETATM    4  H   UNL     1     -42.467  57.086 -54.382  1.00  0.00     0.162 HD
ENDROOT
BRANCH   1   5
HETATM    5  C   UNL     1     -43.485  57.512 -51.979  1.00  0.00     0.311 C 
BRANCH   5   6
HETATM    6  C   UNL     1     -42.170  58.113 -51.620  1.00  0.00     0.031 A 
HETATM    7  C   UNL     1     -41.184  57.632 -50.766  1.00  0.00     0.035 A 
HETATM    8  C   UNL     1     -41.055  56.389 -49.962  1.00  0.00     0.070 C 
HETATM    9  N   UNL     1     -40.181  58.566 -50.784  1.00  0.00    -0.282 N 
HETATM   10  H   UNL     1     -39.291  58.554 -50.291  1.00  0.00     0.189 HD
HETATM   11  N   UNL     1     -40.456  59.614 -51.566  1.00  0.00    -0.179 NA
HETATM   12  C   UNL     1     -41.649  59.351 -52.093  1.00  0.00     0.061 A 
HETATM   13  C   UNL     1     -42.256  60.320 -53.047  1.00  0.00     0.073 C 
ENDBRANCH   5   6
BRANCH   5  14
HETATM   14  N   UNL     1     -44.301  57.278 -50.742  1.00  0.00    -0.062 N 
HETATM   15  H   UNL     1     -44.368  58.134 -50.181  1.00  0.00     0.275 HD
HETATM   16  H   UNL     1     -45.262  57.064 -51.041  1.00  0.00     0.275 HD
HETATM   17  H   UNL     1     -43.940  56.504 -50.177  1.00  0.00     0.275 HD
ENDBRANCH   5  14
ENDBRANCH   1   5
BRANCH   2  18
HETATM   18  C   UNL     1     -42.636  55.036 -54.818  1.00  0.00     0.127 C 
BRANCH  18  19
HETATM   19  C   UNL     1     -41.139  54.730 -54.931  1.00  0.00     0.058 C 
BRANCH  19  20
HETATM   20  C   UNL     1     -40.646  53.695 -53.943  1.00  0.00    -0.056 A 
HETATM   21  C   UNL     1     -40.424  52.372 -54.356  1.00  0.00     0.023 A 
HETATM   22  C   UNL     1     -39.986  51.394 -53.448  1.00  0.00     0.048 A 
HETATM   23  C   UNL     1     -39.766  51.759 -52.113  1.00  0.00     0.016 A 
HETATM   24  C   UNL     1     -39.992  53.068 -51.692  1.00  0.00     0.001 A 
HETATM   25  C   UNL     1     -40.434  54.030 -52.600  1.00  0.00     0.007 A 
BRANCH  22  26
HETATM   26  C   UNL     1     -39.748  49.968 -53.889  1.00  0.00     0.417 C 
HETATM   27  F   UNL     1     -38.611  49.818 -54.625  1.00  0.00    -0.166 F 
HETATM   28  F   UNL     1     -39.612  49.125 -52.828  1.00  0.00    -0.166 F 
HETATM   29  F   UNL     1     -40.759  49.470 -54.647  1.00  0.00    -0.166 F 
ENDBRANCH  22  26
ENDBRANCH  19  20
ENDBRANCH  18  19
ENDBRANCH   2  18
TORSDOF 7
ENDMDL
MODEL 2
REMARK VINA RESULT:      -8.1      4.065      6.291
REMARK  7 active torsions:
REMARK  status: ('A' for Active; 'I' for Inactive)
REMARK    1  A    between atoms: C_8  and  C_9 
REMARK    2  A    between atoms: C_9  and  N_10 
REMARK    3  A    between atoms: C_9  and  C_14 
REMARK       I    between atoms: C_14  and  N_15 
REMARK    4  A    between atoms: N_15  and  C_16 
REMARK    5  A    between atoms: C_16  and  C_17 
REMARK    6  A    between atoms: C_17  and  C_18 
REMARK    7  A    between atoms: C_20  and  C_21 
ROOT
HETATM    1  C   UNL     1     -43.054  56.539 -57.486  1.00  0.00     0.253 C 
HETATM    2  N   UNL     1     -42.309  55.445 -57.119  1.00  0.00    -0.359 N 
HETATM    3  O   UNL     1     -43.826  57.138 -56.735  1.00  0.00    -0.271 OA
HETATM    4  H   UNL     1     -41.540  55.139 -57.709  1.00  0.00     0.162 HD
ENDROOT
BRANCH   1   5
HETATM    5  C   UNL     1     -42.955  56.989 -58.960  1.00  0.00     0.311 C 
BRANCH   5   6
HETATM    6  C   UNL     1     -44.263  56.879 -59.665  1.00  0.00     0.031 A 
HETATM    7  C   UNL     1     -45.087  57.885 -60.157  1.00  0.00     0.035 A 
HETATM    8  C   UNL     1     -44.966  59.365 -60.202  1.00  0.00     0.070 C 
HETATM    9  N   UNL     1     -46.169  57.250 -60.709  1.00  0.00    -0.282 N 
HETATM   10  H   UNL     1     -46.976  57.657 -61.176  1.00  0.00     0.189 HD
HETATM   11  N   UNL     1     -46.111  55.920 -60.591  1.00  0.00    -0.179 NA
HETATM   12  C   UNL     1     -44.958  55.675 -59.975  1.00  0.00     0.061 A 
HETATM   13  C   UNL     1     -44.561  54.267 -59.700  1.00  0.00     0.073 C 
ENDBRANCH   5   6
BRANCH   5  14
HETATM   14  N   UNL     1     -41.924  56.146 -59.652  1.00  0.00    -0.062 N 
HETATM   15  H   UNL     1     -41.096  56.702 -59.887  1.00  0.00     0.275 HD
HETATM   16  H   UNL     1     -41.603  55.437 -58.979  1.00  0.00     0.275 HD
HETATM   17  H   UNL     1     -42.296  55.681 -60.485  1.00  0.00     0.275 HD
ENDBRANCH   5  14
ENDBRANCH   1   5
BRANCH   2  18
HETATM   18  C   UNL     1     -42.257  54.976 -55.739  1.00  0.00     0.127 C 
BRANCH  18  19
HETATM   19  C   UNL     1     -40.840  55.012 -55.158  1.00  0.00     0.058 C 
BRANCH  19  20
HETATM   20  C   UNL     1     -40.579  53.957 -54.105  1.00  0.00    -0.056 A 
HETATM   21  C   UNL     1     -40.353  52.624 -54.480  1.00  0.00     0.023 A 
HETATM   22  C   UNL     1     -40.130  51.628 -53.516  1.00  0.00     0.048 A 
HETATM   23  C   UNL     1     -40.129  51.985 -52.160  1.00  0.00     0.016 A 
HETATM   24  C   UNL     1     -40.362  53.305 -51.778  1.00  0.00     0.001 A 
HETATM   25  C   UNL     1     -40.590  54.286 -52.744  1.00  0.00     0.007 A 
BRANCH  22  26
HETATM   26  C   UNL     1     -39.887  50.191 -53.916  1.00  0.00     0.417 C 
HETATM   27  F   UNL     1     -39.787  49.348 -52.850  1.00  0.00    -0.166 F 
HETATM   28  F   UNL     1     -40.901  49.698 -54.680  1.00  0.00    -0.166 F 
HETATM   29  F   UNL     1     -38.749  50.026 -54.640  1.00  0.00    -0.166 F 
ENDBRANCH  22  26
ENDBRANCH  19  20
ENDBRANCH  18  19
ENDBRANCH   2  18
TORSDOF 7
ENDMDL
MODEL 3
REMARK VINA RESULT:      -8.1      3.322      5.176
REMARK  7 active torsions:
REMARK  status: ('A' for Active; 'I' for Inactive)
REMARK    1  A    between atoms: C_8  and  C_9 
REMARK    2  A    between atoms: C_9  and  N_10 
REMARK    3  A    between atoms: C_9  and  C_14 
REMARK       I    between atoms: C_14  and  N_15 
REMARK    4  A    between atoms: N_15  and  C_16 
REMARK    5  A    between atoms: C_16  and  C_17 
REMARK    6  A    between atoms: C_17  and  C_18 
REMARK    7  A    between atoms: C_20  and  C_21 
ROOT
HETATM    1  C   UNL     1     -43.577  56.908 -56.081  1.00  0.00     0.253 C 
HETATM    2  N   UNL     1     -43.468  55.572 -55.778  1.00  0.00    -0.359 N 
HETATM    3  O   UNL     1     -43.266  57.822 -55.316  1.00  0.00    -0.271 OA
HETATM    4  H   UNL     1     -43.530  54.880 -56.519  1.00  0.00     0.162 HD
ENDROOT
BRANCH   1   5
HETATM    5  C   UNL     1     -44.196  57.264 -57.450  1.00  0.00     0.311 C 
BRANCH   5   6
HETATM    6  C   UNL     1     -43.203  57.154 -58.556  1.00  0.00     0.031 A 
HETATM    7  C   UNL     1     -42.149  57.999 -58.883  1.00  0.00     0.035 A 
HETATM    8  C   UNL     1     -41.615  59.241 -58.266  1.00  0.00     0.070 C 
HETATM    9  N   UNL     1     -41.551  57.447 -59.986  1.00  0.00    -0.282 N 
HETATM   10  H   UNL     1     -40.740  57.778 -60.503  1.00  0.00     0.189 HD
HETATM   11  N   UNL     1     -42.151  56.328 -60.401  1.00  0.00    -0.179 NA
HETATM   12  C   UNL     1     -43.145  56.125 -59.539  1.00  0.00     0.061 A 
HETATM   13  C   UNL     1     -44.018  54.931 -59.699  1.00  0.00     0.073 C 
ENDBRANCH   5   6
BRANCH   5  14
HETATM   14  N   UNL     1     -44.742  58.660 -57.384  1.00  0.00    -0.062 N 
HETATM   15  H   UNL     1     -44.854  58.962 -56.411  1.00  0.00     0.275 HD
HETATM   16  H   UNL     1     -44.034  59.287 -57.791  1.00  0.00     0.275 HD
HETATM   17  H   UNL     1     -45.621  58.760 -57.899  1.00  0.00     0.275 HD
ENDBRANCH   5  14
ENDBRANCH   1   5
BRANCH   2  18
HETATM   18  C   UNL     1     -42.826  55.111 -54.551  1.00  0.00     0.127 C 
BRANCH  18  19
HETATM   19  C   UNL     1     -41.331  54.835 -54.739  1.00  0.00     0.058 C 
BRANCH  19  20
HETATM   20  C   UNL     1     -40.776  53.788 -53.798  1.00  0.00    -0.056 A 
HETATM   21  C   UNL     1     -40.573  52.473 -54.244  1.00  0.00     0.023 A 
HETATM   22  C   UNL     1     -40.079  51.482 -53.379  1.00  0.00     0.048 A 
HETATM   23  C   UNL     1     -39.781  51.827 -52.054  1.00  0.00     0.016 A 
HETATM   24  C   UNL     1     -39.987  53.129 -51.599  1.00  0.00     0.001 A 
HETATM   25  C   UNL     1     -40.486  54.103 -52.465  1.00  0.00     0.007 A 
BRANCH  22  26
HETATM   26  C   UNL     1     -39.861  50.065 -53.855  1.00  0.00     0.417 C 
HETATM   27  F   UNL     1     -40.882  49.595 -54.626  1.00  0.00    -0.166 F 
HETATM   28  F   UNL     1     -38.741  49.953 -54.622  1.00  0.00    -0.166 F 
HETATM   29  F   UNL     1     -39.716  49.178 -52.836  1.00  0.00    -0.166 F 
ENDBRANCH  22  26
ENDBRANCH  19  20
ENDBRANCH  18  19
ENDBRANCH   2  18
TORSDOF 7
ENDMDL
MODEL 4
REMARK VINA RESULT:      -7.9      1.261      2.182
REMARK  7 active torsions:
REMARK  status: ('A' for Active; 'I' for Inactive)
REMARK    1  A    between atoms: C_8  and  C_9 
REMARK    2  A    between atoms: C_9  and  N_10 
REMARK    3  A    between atoms: C_9  and  C_14 
REMARK       I    between atoms: C_14  and  N_15 
REMARK    4  A    between atoms: N_15  and  C_16 
REMARK    5  A    between atoms: C_16  and  C_17 
REMARK    6  A    between atoms: C_17  and  C_18 
REMARK    7  A    between atoms: C_20  and  C_21 
ROOT
HETATM    1  C   UNL     1     -43.583  56.597 -53.634  1.00  0.00     0.253 C 
HETATM    2  N   UNL     1     -42.309  56.272 -54.032  1.00  0.00    -0.359 N 
HETATM    3  O   UNL     1     -44.604  56.289 -54.253  1.00  0.00    -0.271 OA
HETATM    4  H   UNL     1     -41.538  56.361 -53.376  1.00  0.00     0.162 HD
ENDROOT
BRANCH   1   5
HETATM    5  C   UNL     1     -43.718  57.464 -52.364  1.00  0.00     0.311 C 
BRANCH   5   6
HETATM    6  C   UNL     1     -42.728  57.077 -51.319  1.00  0.00     0.031 A 
HETATM    7  C   UNL     1     -41.636  57.787 -50.832  1.00  0.00     0.035 A 
HETATM    8  C   UNL     1     -41.094  59.140 -51.121  1.00  0.00     0.070 C 
HETATM    9  N   UNL     1     -41.055  56.983 -49.887  1.00  0.00    -0.282 N 
HETATM   10  H   UNL     1     -40.239  57.168 -49.307  1.00  0.00     0.189 HD
HETATM   11  N   UNL     1     -41.676  55.808 -49.746  1.00  0.00    -0.179 NA
HETATM   12  C   UNL     1     -42.701  55.852 -50.593  1.00  0.00     0.061 A 
HETATM   13  C   UNL     1     -43.630  54.692 -50.678  1.00  0.00     0.073 C 
ENDBRANCH   5   6
BRANCH   5  14
HETATM   14  N   UNL     1     -45.113  57.324 -51.830  1.00  0.00    -0.062 N 
HETATM   15  H   UNL     1     -45.585  56.517 -52.250  1.00  0.00     0.275 HD
HETATM   16  H   UNL     1     -45.038  57.112 -50.825  1.00  0.00     0.275 HD
HETATM   17  H   UNL     1     -45.667  58.175 -51.958  1.00  0.00     0.275 HD
ENDBRANCH   5  14
ENDBRANCH   1   5
BRANCH   2  18
HETATM   18  C   UNL     1     -42.057  55.392 -55.168  1.00  0.00     0.127 C 
BRANCH  18  19
HETATM   19  C   UNL     1     -40.637  54.817 -55.164  1.00  0.00     0.058 C 
BRANCH  19  20
HETATM   20  C   UNL     1     -40.402  53.768 -54.100  1.00  0.00    -0.056 A 
HETATM   21  C   UNL     1     -40.218  52.424 -54.460  1.00  0.00     0.023 A 
HETATM   22  C   UNL     1     -40.019  51.433 -53.484  1.00  0.00     0.048 A 
HETATM   23  C   UNL     1     -39.999  51.806 -52.134  1.00  0.00     0.016 A 
HETATM   24  C   UNL     1     -40.189  53.138 -51.766  1.00  0.00     0.001 A 
HETATM   25  C   UNL     1     -40.393  54.112 -52.742  1.00  0.00     0.007 A 
BRANCH  22  26
HETATM   26  C   UNL     1     -39.822  49.985 -53.868  1.00  0.00     0.417 C 
HETATM   27  F   UNL     1     -39.701  49.157 -52.793  1.00  0.00    -0.166 F 
HETATM   28  F   UNL     1     -40.874  49.502 -54.586  1.00  0.00    -0.166 F 
HETATM   29  F   UNL     1     -38.715  49.782 -54.630  1.00  0.00    -0.166 F 
ENDBRANCH  22  26
ENDBRANCH  19  20
ENDBRANCH  18  19
ENDBRANCH   2  18
TORSDOF 7
ENDMDL
MODEL 5
REMARK VINA RESULT:      -7.8      2.270      2.829
REMARK  7 active torsions:
REMARK  status: ('A' for Active; 'I' for Inactive)
REMARK    1  A    between atoms: C_8  and  C_9 
REMARK    2  A    between atoms: C_9  and  N_10 
REMARK    3  A    between atoms: C_9  and  C_14 
REMARK       I    between atoms: C_14  and  N_15 
REMARK    4  A    between atoms: N_15  and  C_16 
REMARK    5  A    between atoms: C_16  and  C_17 
REMARK    6  A    between atoms: C_17  and  C_18 
REMARK    7  A    between atoms: C_20  and  C_21 
ROOT
HETATM    1  C   UNL     1     -43.186  55.848 -53.553  1.00  0.00     0.253 C 
HETATM    2  N   UNL     1     -42.616  55.553 -54.768  1.00  0.00    -0.359 N 
HETATM    3  O   UNL     1     -43.579  55.003 -52.746  1.00  0.00    -0.271 OA
HETATM    4  H   UNL     1     -42.120  56.276 -55.281  1.00  0.00     0.162 HD
ENDROOT
BRANCH   1   5
HETATM    5  C   UNL     1     -43.404  57.342 -53.230  1.00  0.00     0.311 C 
BRANCH   5   6
HETATM    6  C   UNL     1     -42.117  58.051 -52.981  1.00  0.00     0.031 A 
HETATM    7  C   UNL     1     -41.226  57.917 -51.921  1.00  0.00     0.035 A 
HETATM    8  C   UNL     1     -41.199  57.040 -50.723  1.00  0.00     0.070 C 
HETATM    9  N   UNL     1     -40.208  58.800 -52.172  1.00  0.00    -0.282 N 
HETATM   10  H   UNL     1     -39.369  58.977 -51.623  1.00  0.00     0.189 HD
HETATM   11  N   UNL     1     -40.386  59.500 -53.296  1.00  0.00    -0.179 NA
HETATM   12  C   UNL     1     -41.529  59.050 -53.808  1.00  0.00     0.061 A 
HETATM   13  C   UNL     1     -42.023  59.610 -55.095  1.00  0.00     0.073 C 
ENDBRANCH   5   6
BRANCH   5  14
HETATM   14  N   UNL     1     -44.293  57.450 -52.026  1.00  0.00    -0.062 N 
HETATM   15  H   UNL     1     -44.210  56.617 -51.434  1.00  0.00     0.275 HD
HETATM   16  H   UNL     1     -43.945  58.233 -51.455  1.00  0.00     0.275 HD
HETATM   17  H   UNL     1     -45.271  57.620 -52.277  1.00  0.00     0.275 HD
ENDBRANCH   5  14
ENDBRANCH   1   5
BRANCH   2  18
HETATM   18  C   UNL     1     -42.286  54.184 -55.151  1.00  0.00     0.127 C 
BRANCH  18  19
HETATM   19  C   UNL     1     -40.787  53.889 -55.045  1.00  0.00     0.058 C 
BRANCH  19  20
HETATM   20  C   UNL     1     -40.414  53.014 -53.868  1.00  0.00    -0.056 A 
HETATM   21  C   UNL     1     -40.566  53.490 -52.557  1.00  0.00     0.023 A 
HETATM   22  C   UNL     1     -40.206  52.700 -51.453  1.00  0.00     0.048 A 
HETATM   23  C   UNL     1     -39.694  51.415 -51.678  1.00  0.00     0.016 A 
HETATM   24  C   UNL     1     -39.531  50.936 -52.977  1.00  0.00     0.001 A 
HETATM   25  C   UNL     1     -39.885  51.733 -54.067  1.00  0.00     0.007 A 
BRANCH  22  26
HETATM   26  C   UNL     1     -40.366  53.210 -50.040  1.00  0.00     0.417 C 
HETATM   27  F   UNL     1     -39.368  54.056 -49.658  1.00  0.00    -0.166 F 
HETATM   28  F   UNL     1     -41.523  53.912 -49.881  1.00  0.00    -0.166 F 
HETATM   29  F   UNL     1     -40.394  52.214 -49.115  1.00  0.00    -0.166 F 
ENDBRANCH  22  26
ENDBRANCH  19  20
ENDBRANCH  18  19
ENDBRANCH   2  18
TORSDOF 7
ENDMDL
MODEL 6
REMARK VINA RESULT:      -7.7      1.377      1.669
REMARK  7 active torsions:
REMARK  status: ('A' for Active; 'I' for Inactive)
REMARK    1  A    between atoms: C_8  and  C_9 
REMARK    2  A    between atoms: C_9  and  N_10 
REMARK    3  A    between atoms: C_9  and  C_14 
REMARK       I    between atoms: C_14  and  N_15 
REMARK    4  A    between atoms: N_15  and  C_16 
REMARK    5  A    between atoms: C_16  and  C_17 
REMARK    6  A    between atoms: C_17  and  C_18 
REMARK    7  A    between atoms: C_20  and  C_21 
ROOT
HETATM    1  C   UNL     1     -43.929  56.829 -53.297  1.00  0.00     0.253 C 
HETATM    2  N   UNL     1     -43.633  55.494 -53.156  1.00  0.00    -0.359 N 
HETATM    3  O   UNL     1     -43.727  57.481 -54.322  1.00  0.00    -0.271 OA
HETATM    4  H   UNL     1     -44.021  54.971 -52.376  1.00  0.00     0.162 HD
ENDROOT
BRANCH   1   5
HETATM    5  C   UNL     1     -44.488  57.554 -52.053  1.00  0.00     0.311 C 
BRANCH   5   6
HETATM    6  C   UNL     1     -43.570  58.625 -51.575  1.00  0.00     0.031 A 
HETATM    7  C   UNL     1     -42.226  58.546 -51.228  1.00  0.00     0.035 A 
HETATM    8  C   UNL     1     -41.239  57.437 -51.239  1.00  0.00     0.070 C 
HETATM    9  N   UNL     1     -41.859  59.812 -50.850  1.00  0.00    -0.282 N 
HETATM   10  H   UNL     1     -40.949  60.146 -50.542  1.00  0.00     0.189 HD
HETATM   11  N   UNL     1     -42.866  60.689 -50.910  1.00  0.00    -0.179 NA
HETATM   12  C   UNL     1     -43.907  59.993 -51.361  1.00  0.00     0.061 A 
HETATM   13  C   UNL     1     -45.210  60.681 -51.570  1.00  0.00     0.073 C 
ENDBRANCH   5   6
BRANCH   5  14
HETATM   14  N   UNL     1     -44.713  56.544 -50.967  1.00  0.00    -0.062 N 
HETATM   15  H   UNL     1     -45.625  56.089 -51.074  1.00  0.00     0.275 HD
HETATM   16  H   UNL     1     -44.014  55.798 -51.089  1.00  0.00     0.275 HD
HETATM   17  H   UNL     1     -44.618  56.949 -50.032  1.00  0.00     0.275 HD
ENDBRANCH   5  14
ENDBRANCH   1   5
BRANCH   2  18
HETATM   18  C   UNL     1     -43.176  54.684 -54.280  1.00  0.00     0.127 C 
BRANCH  18  19
HETATM   19  C   UNL     1     -41.652  54.699 -54.434  1.00  0.00     0.058 C 
BRANCH  19  20
HETATM   20  C   UNL     1     -40.939  53.667 -53.588  1.00  0.00    -0.056 A 
HETATM   21  C   UNL     1     -40.693  52.382 -54.097  1.00  0.00     0.023 A 
HETATM   22  C   UNL     1     -40.050  51.405 -53.318  1.00  0.00     0.048 A 
HETATM   23  C   UNL     1     -39.648  51.733 -52.016  1.00  0.00     0.016 A 
HETATM   24  C   UNL     1     -39.895  53.004 -51.499  1.00  0.00     0.001 A 
HETATM   25  C   UNL     1     -40.541  53.964 -52.279  1.00  0.00     0.007 A 
BRANCH  22  26
HETATM   26  C   UNL     1     -39.785  50.021 -53.862  1.00  0.00     0.417 C 
HETATM   27  F   UNL     1     -39.620  49.084 -52.886  1.00  0.00    -0.166 F 
HETATM   28  F   UNL     1     -40.816  49.571 -54.631  1.00  0.00    -0.166 F 
HETATM   29  F   UNL     1     -38.673  49.959 -54.640  1.00  0.00    -0.166 F 
ENDBRANCH  22  26
ENDBRANCH  19  20
ENDBRANCH  18  19
ENDBRANCH   2  18
TORSDOF 7
ENDMDL
MODEL 7
REMARK VINA RESULT:      -7.6      4.288      6.361
REMARK  7 active torsions:
REMARK  status: ('A' for Active; 'I' for Inactive)
REMARK    1  A    between atoms: C_8  and  C_9 
REMARK    2  A    between atoms: C_9  and  N_10 
REMARK    3  A    between atoms: C_9  and  C_14 
REMARK       I    between atoms: C_14  and  N_15 
REMARK    4  A    between atoms: N_15  and  C_16 
REMARK    5  A    between atoms: C_16  and  C_17 
REMARK    6  A    between atoms: C_17  and  C_18 
REMARK    7  A    between atoms: C_20  and  C_21 
ROOT
HETATM    1  C   UNL     1     -42.697  56.844 -57.266  1.00  0.00     0.253 C 
HETATM    2  N   UNL     1     -42.293  55.595 -56.859  1.00  0.00    -0.359 N 
HETATM    3  O   UNL     1     -42.909  57.789 -56.503  1.00  0.00    -0.271 OA
HETATM    4  H   UNL     1     -41.928  54.937 -57.541  1.00  0.00     0.162 HD
ENDROOT
BRANCH   1   5
HETATM    5  C   UNL     1     -42.965  57.033 -58.775  1.00  0.00     0.311 C 
BRANCH   5   6
HETATM    6  C   UNL     1     -44.390  56.776 -59.124  1.00  0.00     0.031 A 
HETATM    7  C   UNL     1     -45.006  55.587 -59.498  1.00  0.00     0.035 A 
HETATM    8  C   UNL     1     -44.516  54.192 -59.645  1.00  0.00     0.070 C 
HETATM    9  N   UNL     1     -46.324  55.897 -59.713  1.00  0.00    -0.282 N 
HETATM   10  H   UNL     1     -47.086  55.281 -59.989  1.00  0.00     0.189 HD
HETATM   11  N   UNL     1     -46.595  57.192 -59.526  1.00  0.00    -0.179 NA
HETATM   12  C   UNL     1     -45.440  57.738 -59.154  1.00  0.00     0.061 A 
HETATM   13  C   UNL     1     -45.387  59.192 -58.839  1.00  0.00     0.073 C 
ENDBRANCH   5   6
BRANCH   5  14
HETATM   14  N   UNL     1     -42.070  56.106 -59.543  1.00  0.00    -0.062 N 
HETATM   15  H   UNL     1     -42.570  55.688 -60.335  1.00  0.00     0.275 HD
HETATM   16  H   UNL     1     -41.318  56.675 -59.957  1.00  0.00     0.275 HD
HETATM   17  H   UNL     1     -41.660  55.379 -58.950  1.00  0.00     0.275 HD
ENDBRANCH   5  14
ENDBRANCH   1   5
BRANCH   2  18
HETATM   18  C   UNL     1     -41.932  55.317 -55.473  1.00  0.00     0.127 C 
BRANCH  18  19
HETATM   19  C   UNL     1     -42.419  53.941 -55.004  1.00  0.00     0.058 C 
BRANCH  19  20
HETATM   20  C   UNL     1     -41.486  53.258 -54.029  1.00  0.00    -0.056 A 
HETATM   21  C   UNL     1     -41.465  53.647 -52.680  1.00  0.00     0.023 A 
HETATM   22  C   UNL     1     -40.591  53.038 -51.764  1.00  0.00     0.048 A 
HETATM   23  C   UNL     1     -39.736  52.023 -52.216  1.00  0.00     0.016 A 
HETATM   24  C   UNL     1     -39.744  51.636 -53.556  1.00  0.00     0.001 A 
HETATM   25  C   UNL     1     -40.611  52.253 -54.458  1.00  0.00     0.007 A 
BRANCH  22  26
HETATM   26  C   UNL     1     -40.563  53.455 -50.313  1.00  0.00     0.417 C 
HETATM   27  F   UNL     1     -41.722  54.044 -49.902  1.00  0.00    -0.166 F 
HETATM   28  F   UNL     1     -40.379  52.392 -49.482  1.00  0.00    -0.166 F 
HETATM   29  F   UNL     1     -39.568  54.337 -50.031  1.00  0.00    -0.166 F 
ENDBRANCH  22  26
ENDBRANCH  19  20
ENDBRANCH  18  19
ENDBRANCH   2  18
TORSDOF 7
ENDMDL
MODEL 8
REMARK VINA RESULT:      -7.6      3.910      5.768
REMARK  7 active torsions:
REMARK  status: ('A' for Active; 'I' for Inactive)
REMARK    1  A    between atoms: C_8  and  C_9 
REMARK    2  A    between atoms: C_9  and  N_10 
REMARK    3  A    between atoms: C_9  and  C_14 
REMARK       I    between atoms: C_14  and  N_15 
REMARK    4  A    between atoms: N_15  and  C_16 
REMARK    5  A    between atoms: C_16  and  C_17 
REMARK    6  A    between atoms: C_17  and  C_18 
REMARK    7  A    between atoms: C_20  and  C_21 
ROOT
HETATM    1  C   UNL     1     -43.650  57.028 -56.131  1.00  0.00     0.253 C 
HETATM    2  N   UNL     1     -43.395  55.703 -55.875  1.00  0.00    -0.359 N 
HETATM    3  O   UNL     1     -43.491  57.937 -55.314  1.00  0.00    -0.271 OA
HETATM    4  H   UNL     1     -43.335  55.043 -56.646  1.00  0.00     0.162 HD
ENDROOT
BRANCH   1   5
HETATM    5  C   UNL     1     -44.237  57.370 -57.517  1.00  0.00     0.311 C 
BRANCH   5   6
HETATM    6  C   UNL     1     -43.227  57.221 -58.603  1.00  0.00     0.031 A 
HETATM    7  C   UNL     1     -42.151  58.040 -58.926  1.00  0.00     0.035 A 
HETATM    8  C   UNL     1     -41.605  59.283 -58.323  1.00  0.00     0.070 C 
HETATM    9  N   UNL     1     -41.544  57.456 -60.008  1.00  0.00    -0.282 N 
HETATM   10  H   UNL     1     -40.718  57.762 -60.516  1.00  0.00     0.189 HD
HETATM   11  N   UNL     1     -42.158  56.341 -60.413  1.00  0.00    -0.179 NA
HETATM   12  C   UNL     1     -43.171  56.173 -59.566  1.00  0.00     0.061 A 
HETATM   13  C   UNL     1     -44.064  54.992 -59.719  1.00  0.00     0.073 C 
ENDBRANCH   5   6
BRANCH   5  14
HETATM   14  N   UNL     1     -44.757  58.777 -57.487  1.00  0.00    -0.062 N 
HETATM   15  H   UNL     1     -44.340  59.304 -56.713  1.00  0.00     0.275 HD
HETATM   16  H   UNL     1     -44.436  59.244 -58.347  1.00  0.00     0.275 HD
HETATM   17  H   UNL     1     -45.779  58.815 -57.441  1.00  0.00     0.275 HD
ENDBRANCH   5  14
ENDBRANCH   1   5
BRANCH   2  18
HETATM   18  C   UNL     1     -42.765  55.266 -54.634  1.00  0.00     0.127 C 
BRANCH  18  19
HETATM   19  C   UNL     1     -41.277  54.946 -54.811  1.00  0.00     0.058 C 
BRANCH  19  20
HETATM   20  C   UNL     1     -40.762  53.876 -53.874  1.00  0.00    -0.056 A 
HETATM   21  C   UNL     1     -40.820  54.065 -52.484  1.00  0.00     0.023 A 
HETATM   22  C   UNL     1     -40.328  53.091 -51.599  1.00  0.00     0.048 A 
HETATM   23  C   UNL     1     -39.779  51.914 -52.125  1.00  0.00     0.016 A 
HETATM   24  C   UNL     1     -39.709  51.720 -53.504  1.00  0.00     0.001 A 
HETATM   25  C   UNL     1     -40.193  52.698 -54.374  1.00  0.00     0.007 A 
BRANCH  22  26
HETATM   26  C   UNL     1     -40.388  53.292 -50.103  1.00  0.00     0.417 C 
HETATM   27  F   UNL     1     -39.346  54.025 -49.618  1.00  0.00    -0.166 F 
HETATM   28  F   UNL     1     -41.513  53.958 -49.724  1.00  0.00    -0.166 F 
HETATM   29  F   UNL     1     -40.384  52.123 -49.410  1.00  0.00    -0.166 F 
ENDBRANCH  22  26
ENDBRANCH  19  20
ENDBRANCH  18  19
ENDBRANCH   2  18
TORSDOF 7
ENDMDL
MODEL 9
REMARK VINA RESULT:      -7.5      1.587      3.024
REMARK  7 active torsions:
REMARK  status: ('A' for Active; 'I' for Inactive)
REMARK    1  A    between atoms: C_8  and  C_9 
REMARK    2  A    between atoms: C_9  and  N_10 
REMARK    3  A    between atoms: C_9  and  C_14 
REMARK       I    between atoms: C_14  and  N_15 
REMARK    4  A    between atoms: N_15  and  C_16 
REMARK    5  A    between atoms: C_16  and  C_17 
REMARK    6  A    between atoms: C_17  and  C_18 
REMARK    7  A    between atoms: C_20  and  C_21 
ROOT
HETATM    1  C   UNL     1     -42.433  56.117 -50.710  1.00  0.00     0.253 C 
HETATM    2  N   UNL     1     -42.507  54.749 -50.611  1.00  0.00    -0.359 N 
HETATM    3  O   UNL     1     -41.610  56.814 -50.115  1.00  0.00    -0.271 OA
HETATM    4  H   UNL     1     -43.055  54.223 -51.286  1.00  0.00     0.162 HD
ENDROOT
BRANCH   1   5
HETATM    5  C   UNL     1     -43.506  56.812 -51.576  1.00  0.00     0.311 C 
BRANCH   5   6
HETATM    6  C   UNL     1     -42.986  57.171 -52.926  1.00  0.00     0.031 A 
HETATM    7  C   UNL     1     -42.224  58.267 -53.315  1.00  0.00     0.035 A 
HETATM    8  C   UNL     1     -41.638  59.412 -52.570  1.00  0.00     0.070 C 
HETATM    9  N   UNL     1     -42.020  58.125 -54.663  1.00  0.00    -0.282 N 
HETATM   10  H   UNL     1     -41.497  58.727 -55.294  1.00  0.00     0.189 HD
HETATM   11  N   UNL     1     -42.606  57.036 -55.169  1.00  0.00    -0.179 NA
HETATM   12  C   UNL     1     -43.184  56.437 -54.130  1.00  0.00     0.061 A 
HETATM   13  C   UNL     1     -43.920  55.161 -54.339  1.00  0.00     0.073 C 
ENDBRANCH   5   6
BRANCH   5  14
HETATM   14  N   UNL     1     -43.980  58.044 -50.862  1.00  0.00    -0.062 N 
HETATM   15  H   UNL     1     -43.476  58.169 -49.977  1.00  0.00     0.275 HD
HETATM   16  H   UNL     1     -43.727  58.854 -51.444  1.00  0.00     0.275 HD
HETATM   17  H   UNL     1     -44.991  58.039 -50.705  1.00  0.00     0.275 HD
ENDBRANCH   5  14
ENDBRANCH   1   5
BRANCH   2  18
HETATM   18  C   UNL     1     -41.503  53.975 -49.889  1.00  0.00     0.127 C 
BRANCH  18  19
HETATM   19  C   UNL     1     -40.152  53.945 -50.611  1.00  0.00     0.058 C 
BRANCH  19  20
HETATM   20  C   UNL     1     -40.227  53.440 -52.035  1.00  0.00    -0.056 A 
HETATM   21  C   UNL     1     -40.067  52.073 -52.310  1.00  0.00     0.023 A 
HETATM   22  C   UNL     1     -40.113  51.588 -53.627  1.00  0.00     0.048 A 
HETATM   23  C   UNL     1     -40.329  52.494 -54.675  1.00  0.00     0.016 A 
HETATM   24  C   UNL     1     -40.481  53.855 -54.413  1.00  0.00     0.001 A 
HETATM   25  C   UNL     1     -40.425  54.326 -53.101  1.00  0.00     0.007 A 
BRANCH  22  26
HETATM   26  C   UNL     1     -39.940  50.117 -53.927  1.00  0.00     0.417 C 
HETATM   27  F   UNL     1     -38.825  49.848 -54.663  1.00  0.00    -0.166 F 
HETATM   28  F   UNL     1     -39.817  49.378 -52.790  1.00  0.00    -0.166 F 
HETATM   29  F   UNL     1     -40.986  49.589 -54.615  1.00  0.00    -0.166 F 
ENDBRANCH  22  26
ENDBRANCH  19  20
ENDBRANCH  18  19
ENDBRANCH   2  18
TORSDOF 7
ENDMDL
MODEL 10
REMARK VINA RESULT:      -7.4      1.956      3.893
REMARK  7 active torsions:
REMARK  status: ('A' for Active; 'I' for Inactive)
REMARK    1  A    between atoms: C_8  and  C_9 
REMARK    2  A    between atoms: C_9  and  N_10 
REMARK    3  A    between atoms: C_9  and  C_14 
REMARK       I    between atoms: C_14  and  N_15 
REMARK    4  A    between atoms: N_15  and  C_16 
REMARK    5  A    between atoms: C_16  and  C_17 
REMARK    6  A    between atoms: C_17  and  C_18 
REMARK    7  A    between atoms: C_20  and  C_21 
ROOT
HETATM    1  C   UNL     1     -41.694  56.396 -51.743  1.00  0.00     0.253 C 
HETATM    2  N   UNL     1     -42.064  55.072 -51.757  1.00  0.00    -0.359 N 
HETATM    3  O   UNL     1     -41.286  56.992 -50.745  1.00  0.00    -0.271 OA
HETATM    4  H   UNL     1     -42.180  54.591 -52.645  1.00  0.00     0.162 HD
ENDROOT
BRANCH   1   5
HETATM    5  C   UNL     1     -41.876  57.185 -53.057  1.00  0.00     0.311 C 
BRANCH   5   6
HETATM    6  C   UNL     1     -42.406  56.326 -54.154  1.00  0.00     0.031 A 
HETATM    7  C   UNL     1     -43.684  56.278 -54.699  1.00  0.00     0.035 A 
HETATM    8  C   UNL     1     -44.927  57.048 -54.439  1.00  0.00     0.070 C 
HETATM    9  N   UNL     1     -43.643  55.315 -55.673  1.00  0.00    -0.282 N 
HETATM   10  H   UNL     1     -44.386  55.007 -56.296  1.00  0.00     0.189 HD
HETATM   11  N   UNL     1     -42.446  54.731 -55.781  1.00  0.00    -0.179 NA
HETATM   12  C   UNL     1     -41.679  55.339 -54.880  1.00  0.00     0.061 A 
HETATM   13  C   UNL     1     -40.251  54.939 -54.746  1.00  0.00     0.073 C 
ENDBRANCH   5   6
BRANCH   5  14
HETATM   14  N   UNL     1     -40.554  57.771 -53.455  1.00  0.00    -0.062 N 
HETATM   15  H   UNL     1     -40.542  58.003 -54.453  1.00  0.00     0.275 HD
HETATM   16  H   UNL     1     -40.452  58.668 -52.959  1.00  0.00     0.275 HD
HETATM   17  H   UNL     1     -39.768  57.160 -53.216  1.00  0.00     0.275 HD
ENDBRANCH   5  14
ENDBRANCH   1   5
BRANCH   2  18
HETATM   18  C   UNL     1     -41.864  54.204 -50.602  1.00  0.00     0.127 C 
BRANCH  18  19
HETATM   19  C   UNL     1     -40.415  53.723 -50.473  1.00  0.00     0.058 C 
BRANCH  19  20
HETATM   20  C   UNL     1     -40.191  52.310 -50.966  1.00  0.00    -0.056 A 
HETATM   21  C   UNL     1     -40.111  52.045 -52.341  1.00  0.00     0.023 A 
HETATM   22  C   UNL     1     -39.923  50.737 -52.818  1.00  0.00     0.048 A 
HETATM   23  C   UNL     1     -39.810  49.689 -51.894  1.00  0.00     0.016 A 
HETATM   24  C   UNL     1     -39.896  49.941 -50.525  1.00  0.00     0.001 A 
HETATM   25  C   UNL     1     -40.090  51.243 -50.064  1.00  0.00     0.007 A 
BRANCH  22  26
HETATM   26  C   UNL     1     -39.839  50.448 -54.299  1.00  0.00     0.417 C 
HETATM   27  F   UNL     1     -39.784  51.575 -55.063  1.00  0.00    -0.166 F 
HETATM   28  F   UNL     1     -38.721  49.736 -54.614  1.00  0.00    -0.166 F 
HETATM   29  F   UNL     1     -40.894  49.727 -54.761  1.00  0.00    -0.166 F 
ENDBRANCH  22  26
ENDBRANCH  19  20
ENDBRANCH  18  19
ENDBRANCH   2  18
TORSDOF 7
ENDMDL
