MODEL 1
REMARK VINA RESULT:      -8.7      0.000      0.000
REMARK  7 active torsions:
REMARK  status: ('A' for Active; 'I' for Inactive)
REMARK    1  A    between atoms: C_4  and  O_5 
REMARK    2  A    between atoms: O_5  and  C_6 
REMARK    3  A    between atoms: C_6  and  C_7 
REMARK       I    between atoms: C_7  and  N_8 
REMARK    4  A    between atoms: N_8  and  N_9 
REMARK       I    between atoms: N_9  and  C_10 
REMARK    5  A    between atoms: C_10  and  C_11 
REMARK    6  A    between atoms: C_13  and  C_14 
REMARK    7  A    between atoms: C_21  and  C_22 
ROOT
HETATM    1  N   UNL     1     -42.153  56.467 -55.504  1.00  0.00    -0.262 N 
HETATM    2  C   UNL     1     -41.464  56.759 -54.339  1.00  0.00     0.291 C 
HETATM    3  O   UNL     1     -41.165  57.911 -54.021  1.00  0.00    -0.264 OA
HETATM    4  H   UNL     1     -42.138  55.505 -55.840  1.00  0.00     0.190 HD
ENDROOT
BRANCH   2   5
HETATM    5  C   UNL     1     -41.160  55.580 -53.542  1.00  0.00     0.159 A 
HETATM    6  N   UNL     1     -40.635  54.416 -54.096  1.00  0.00    -0.216 NA
HETATM    7  C   UNL     1     -40.574  53.575 -53.081  1.00  0.00     0.180 A 
HETATM    8  O   UNL     1     -40.976  54.112 -51.889  1.00  0.00    -0.293 OA
HETATM    9  C   UNL     1     -41.345  55.396 -52.186  1.00  0.00     0.094 A 
BRANCH   7  10
HETATM   10  C   UNL     1     -40.176  52.169 -53.064  1.00  0.00     0.017 A 
HETATM   11  C   UNL     1     -40.236  51.415 -54.246  1.00  0.00     0.016 A 
HETATM   12  C   UNL     1     -39.886  50.061 -54.250  1.00  0.00     0.001 A 
HETATM   13  C   UNL     1     -39.472  49.444 -53.073  1.00  0.00     0.000 A 
HETATM   14  C   UNL     1     -39.405  50.179 -51.890  1.00  0.00     0.001 A 
HETATM   15  C   UNL     1     -39.754  51.532 -51.887  1.00  0.00     0.016 A 
ENDBRANCH   7  10
BRANCH   9  16
HETATM   16  C   UNL     1     -41.848  56.395 -51.161  1.00  0.00     0.046 A 
HETATM   17  C   UNL     1     -41.360  56.256 -49.735  1.00  0.00     0.012 A 
HETATM   18  C   UNL     1     -40.843  57.368 -50.579  1.00  0.00     0.012 A 
ENDBRANCH   9  16
ENDBRANCH   2   5
BRANCH   1  19
HETATM   19  N   UNL     1     -42.292  57.492 -56.461  1.00  0.00    -0.265 N 
HETATM   20  C   UNL     1     -43.566  58.020 -56.647  1.00  0.00     0.260 C 
HETATM   21  O   UNL     1     -44.494  57.808 -55.870  1.00  0.00    -0.269 OA
HETATM   22  H   UNL     1     -41.679  57.395 -57.268  1.00  0.00     0.190 HD
BRANCH  20  23
HETATM   23  C   UNL     1     -43.670  58.884 -57.905  1.00  0.00     0.280 C 
BRANCH  23  24
HETATM   24  O   UNL     1     -43.193  58.171 -59.036  1.00  0.00    -0.342 OA
BRANCH  24  25
HETATM   25  C   UNL     1     -44.003  57.198 -59.552  1.00  0.00     0.069 A 
HETATM   26  C   UNL     1     -45.297  57.375 -60.046  1.00  0.00     0.043 A 
HETATM   27  C   UNL     1     -46.030  56.279 -60.532  1.00  0.00    -0.059 A 
HETATM   28  C   UNL     1     -47.421  56.455 -61.068  1.00  0.00     0.048 C 
HETATM   29  C   UNL     1     -45.444  55.008 -60.535  1.00  0.00     0.007 A 
HETATM   30  C   UNL     1     -44.149  54.830 -60.051  1.00  0.00     0.003 A 
HETATM   31  C   UNL     1     -43.435  55.922 -59.561  1.00  0.00     0.037 A 
ENDBRANCH  24  25
ENDBRANCH  23  24
ENDBRANCH  20  23
ENDBRANCH   1  19
TORSDOF 7
ENDMDL
MODEL 2
REMARK VINA RESULT:      -8.4      2.212      9.112
REMARK  7 active torsions:
REMARK  status: ('A' for Active; 'I' for Inactive)
REMARK    1  A    between atoms: C_4  and  O_5 
REMARK    2  A    between atoms: O_5  and  C_6 
REMARK    3  A    between atoms: C_6  and  C_7 
REMARK       I    between atoms: C_7  and  N_8 
REMARK    4  A    between atoms: N_8  and  N_9 
REMARK       I    between atoms: N_9  and  C_10 
REMARK    5  A    between atoms: C_10  and  C_11 
REMARK    6  A    between atoms: C_13  and  C_14 
REMARK    7  A    between atoms: C_21  and  C_22 
ROOT
HETATM    1  N   UNL     1     -43.778  56.428 -55.454  1.00  0.00    -0.262 N 
HETATM    2  C   UNL     1     -43.052  55.987 -56.548  1.00  0.00     0.291 C 
HETATM    3  O   UNL     1     -42.535  54.871 -56.589  1.00  0.00    -0.264 OA
HETATM    4  H   UNL     1     -43.949  57.428 -55.367  1.00  0.00     0.190 HD
ENDROOT
BRANCH   2   5
HETATM    5  C   UNL     1     -42.990  56.963 -57.626  1.00  0.00     0.159 A 
HETATM    6  N   UNL     1     -42.137  58.064 -57.592  1.00  0.00    -0.216 NA
HETATM    7  C   UNL     1     -42.430  58.730 -58.694  1.00  0.00     0.180 A 
HETATM    8  O   UNL     1     -43.376  58.127 -59.475  1.00  0.00    -0.293 OA
HETATM    9  C   UNL     1     -43.729  56.995 -58.792  1.00  0.00     0.094 A 
BRANCH   7  10
HETATM   10  C   UNL     1     -41.913  60.014 -59.165  1.00  0.00     0.017 A 
HETATM   11  C   UNL     1     -41.973  60.330 -60.530  1.00  0.00     0.016 A 
HETATM   12  C   UNL     1     -41.462  61.540 -61.009  1.00  0.00     0.001 A 
HETATM   13  C   UNL     1     -40.883  62.449 -60.128  1.00  0.00     0.000 A 
HETATM   14  C   UNL     1     -40.816  62.152 -58.768  1.00  0.00     0.001 A 
HETATM   15  C   UNL     1     -41.329  60.943 -58.290  1.00  0.00     0.016 A 
ENDBRANCH   7  10
BRANCH   9  16
HETATM   16  C   UNL     1     -44.748  55.986 -59.286  1.00  0.00     0.046 A 
HETATM   17  C   UNL     1     -44.821  55.721 -60.775  1.00  0.00     0.012 A 
HETATM   18  C   UNL     1     -44.226  54.692 -59.877  1.00  0.00     0.012 A 
ENDBRANCH   9  16
ENDBRANCH   2   5
BRANCH   1  19
HETATM   19  N   UNL     1     -43.707  55.670 -54.269  1.00  0.00    -0.265 N 
HETATM   20  C   UNL     1     -42.867  56.139 -53.264  1.00  0.00     0.260 C 
HETATM   21  O   UNL     1     -42.389  57.271 -53.271  1.00  0.00    -0.269 OA
HETATM   22  H   UNL     1     -43.787  54.665 -54.411  1.00  0.00     0.190 HD
BRANCH  20  23
HETATM   23  C   UNL     1     -42.618  55.101 -52.168  1.00  0.00     0.280 C 
BRANCH  23  24
HETATM   24  O   UNL     1     -41.226  54.884 -51.998  1.00  0.00    -0.342 OA
BRANCH  24  25
HETATM   25  C   UNL     1     -40.726  53.675 -52.396  1.00  0.00     0.069 A 
HETATM   26  C   UNL     1     -40.344  52.623 -51.561  1.00  0.00     0.043 A 
HETATM   27  C   UNL     1     -39.824  51.435 -52.104  1.00  0.00    -0.059 A 
HETATM   28  C   UNL     1     -39.411  50.296 -51.218  1.00  0.00     0.048 C 
HETATM   29  C   UNL     1     -39.712  51.307 -53.493  1.00  0.00     0.007 A 
HETATM   30  C   UNL     1     -40.102  52.352 -54.329  1.00  0.00     0.003 A 
HETATM   31  C   UNL     1     -40.605  53.530 -53.780  1.00  0.00     0.037 A 
ENDBRANCH  24  25
ENDBRANCH  23  24
ENDBRANCH  20  23
ENDBRANCH   1  19
TORSDOF 7
ENDMDL
MODEL 3
REMARK VINA RESULT:      -8.3      4.373      7.881
REMARK  7 active torsions:
REMARK  status: ('A' for Active; 'I' for Inactive)
REMARK    1  A    between atoms: C_4  and  O_5 
REMARK    2  A    between atoms: O_5  and  C_6 
REMARK    3  A    between atoms: C_6  and  C_7 
REMARK       I    between atoms: C_7  and  N_8 
REMARK    4  A    between atoms: N_8  and  N_9 
REMARK       I    between atoms: N_9  and  C_10 
REMARK    5  A    between atoms: C_10  and  C_11 
REMARK    6  A    between atoms: C_13  and  C_14 
REMARK    7  A    between atoms: C_21  and  C_22 
ROOT
HETATM    1  N   UNL     1     -42.857  56.971 -51.547  1.00  0.00    -0.262 N 
HETATM    2  C   UNL     1     -41.733  57.000 -52.356  1.00  0.00     0.291 C 
HETATM    3  O   UNL     1     -41.031  58.004 -52.474  1.00  0.00    -0.264 OA
HETATM    4  H   UNL     1     -43.531  56.221 -51.693  1.00  0.00     0.190 HD
ENDROOT
BRANCH   2   5
HETATM    5  C   UNL     1     -41.472  55.730 -53.018  1.00  0.00     0.159 A 
HETATM    6  N   UNL     1     -41.073  54.591 -52.323  1.00  0.00    -0.216 NA
HETATM    7  C   UNL     1     -40.871  53.692 -53.268  1.00  0.00     0.180 A 
HETATM    8  O   UNL     1     -41.152  54.139 -54.530  1.00  0.00    -0.293 OA
HETATM    9  C   UNL     1     -41.540  55.440 -54.366  1.00  0.00     0.094 A 
BRANCH   7  10
HETATM   10  C   UNL     1     -40.367  52.325 -53.154  1.00  0.00     0.017 A 
HETATM   11  C   UNL     1     -40.365  51.488 -54.280  1.00  0.00     0.016 A 
HETATM   12  C   UNL     1     -39.912  50.168 -54.190  1.00  0.00     0.001 A 
HETATM   13  C   UNL     1     -39.457  49.668 -52.973  1.00  0.00     0.000 A 
HETATM   14  C   UNL     1     -39.450  50.487 -51.845  1.00  0.00     0.001 A 
HETATM   15  C   UNL     1     -39.901  51.807 -51.936  1.00  0.00     0.016 A 
ENDBRANCH   7  10
BRANCH   9  16
HETATM   16  C   UNL     1     -41.972  56.348 -55.502  1.00  0.00     0.046 A 
HETATM   17  C   UNL     1     -42.736  55.731 -56.654  1.00  0.00     0.012 A 
HETATM   18  C   UNL     1     -43.456  56.595 -55.678  1.00  0.00     0.012 A 
ENDBRANCH   9  16
ENDBRANCH   2   5
BRANCH   1  19
HETATM   19  N   UNL     1     -43.339  58.197 -51.048  1.00  0.00    -0.265 N 
HETATM   20  C   UNL     1     -44.718  58.332 -50.918  1.00  0.00     0.260 C 
HETATM   21  O   UNL     1     -45.489  57.379 -50.987  1.00  0.00    -0.269 OA
HETATM   22  H   UNL     1     -42.792  59.007 -51.332  1.00  0.00     0.190 HD
BRANCH  20  23
HETATM   23  C   UNL     1     -45.150  59.780 -50.676  1.00  0.00     0.280 C 
BRANCH  23  24
HETATM   24  O   UNL     1     -45.668  59.929 -49.362  1.00  0.00    -0.342 OA
BRANCH  24  25
HETATM   25  C   UNL     1     -45.392  61.096 -48.707  1.00  0.00     0.069 A 
HETATM   26  C   UNL     1     -45.515  61.324 -47.334  1.00  0.00     0.043 A 
HETATM   27  C   UNL     1     -45.215  62.585 -46.792  1.00  0.00    -0.059 A 
HETATM   28  C   UNL     1     -45.341  62.842 -45.319  1.00  0.00     0.048 C 
HETATM   29  C   UNL     1     -44.770  63.608 -47.637  1.00  0.00     0.007 A 
HETATM   30  C   UNL     1     -44.636  63.381 -49.005  1.00  0.00     0.003 A 
HETATM   31  C   UNL     1     -44.948  62.130 -49.535  1.00  0.00     0.037 A 
ENDBRANCH  24  25
ENDBRANCH  23  24
ENDBRANCH  20  23
ENDBRANCH   1  19
TORSDOF 7
ENDMDL
MODEL 4
REMARK VINA RESULT:      -8.3      2.632      3.942
REMARK  7 active torsions:
REMARK  status: ('A' for Active; 'I' for Inactive)
REMARK    1  A    between atoms: C_4  and  O_5 
REMARK    2  A    between atoms: O_5  and  C_6 
REMARK    3  A    between atoms: C_6  and  C_7 
REMARK       I    between atoms: C_7  and  N_8 
REMARK    4  A    between atoms: N_8  and  N_9 
REMARK       I    between atoms: N_9  and  C_10 
REMARK    5  A    between atoms: C_10  and  C_11 
REMARK    6  A    between atoms: C_13  and  C_14 
REMARK    7  A    between atoms: C_21  and  C_22 
ROOT
HETATM    1  N   UNL     1     -42.057  56.444 -56.696  1.00  0.00    -0.262 N 
HETATM    2  C   UNL     1     -42.037  56.842 -55.369  1.00  0.00     0.291 C 
HETATM    3  O   UNL     1     -42.179  58.017 -55.032  1.00  0.00    -0.264 OA
HETATM    4  H   UNL     1     -41.677  55.527 -56.924  1.00  0.00     0.190 HD
ENDROOT
BRANCH   2   5
HETATM    5  C   UNL     1     -41.856  55.735 -54.442  1.00  0.00     0.159 A 
HETATM    6  N   UNL     1     -40.986  54.679 -54.697  1.00  0.00    -0.216 NA
HETATM    7  C   UNL     1     -41.162  53.863 -53.673  1.00  0.00     0.180 A 
HETATM    8  O   UNL     1     -42.046  54.326 -52.739  1.00  0.00    -0.293 OA
HETATM    9  C   UNL     1     -42.485  55.525 -53.230  1.00  0.00     0.094 A 
BRANCH   7  10
HETATM   10  C   UNL     1     -40.576  52.547 -53.426  1.00  0.00     0.017 A 
HETATM   11  C   UNL     1     -40.618  51.567 -54.428  1.00  0.00     0.016 A 
HETATM   12  C   UNL     1     -40.087  50.292 -54.207  1.00  0.00     0.001 A 
HETATM   13  C   UNL     1     -39.509  49.982 -52.978  1.00  0.00     0.000 A 
HETATM   14  C   UNL     1     -39.457  50.945 -51.972  1.00  0.00     0.001 A 
HETATM   15  C   UNL     1     -39.986  52.219 -52.195  1.00  0.00     0.016 A 
ENDBRANCH   7  10
BRANCH   9  16
HETATM   16  C   UNL     1     -43.477  56.425 -52.518  1.00  0.00     0.046 A 
HETATM   17  C   UNL     1     -43.761  56.152 -51.056  1.00  0.00     0.012 A 
HETATM   18  C   UNL     1     -42.943  57.338 -51.433  1.00  0.00     0.012 A 
ENDBRANCH   9  16
ENDBRANCH   2   5
BRANCH   1  19
HETATM   19  N   UNL     1     -41.989  57.446 -57.684  1.00  0.00    -0.265 N 
HETATM   20  C   UNL     1     -42.737  57.248 -58.841  1.00  0.00     0.260 C 
HETATM   21  O   UNL     1     -43.610  56.389 -58.931  1.00  0.00    -0.269 OA
HETATM   22  H   UNL     1     -41.080  57.896 -57.760  1.00  0.00     0.190 HD
BRANCH  20  23
HETATM   23  C   UNL     1     -42.355  58.216 -59.964  1.00  0.00     0.280 C 
BRANCH  23  24
HETATM   24  O   UNL     1     -42.853  59.516 -59.687  1.00  0.00    -0.342 OA
BRANCH  24  25
HETATM   25  C   UNL     1     -41.973  60.558 -59.778  1.00  0.00     0.069 A 
HETATM   26  C   UNL     1     -41.569  61.200 -60.951  1.00  0.00     0.043 A 
HETATM   27  C   UNL     1     -40.638  62.250 -60.904  1.00  0.00    -0.059 A 
HETATM   28  C   UNL     1     -40.197  62.950 -62.156  1.00  0.00     0.048 C 
HETATM   29  C   UNL     1     -40.131  62.664 -59.666  1.00  0.00     0.007 A 
HETATM   30  C   UNL     1     -40.540  62.032 -58.493  1.00  0.00     0.003 A 
HETATM   31  C   UNL     1     -41.456  60.983 -58.552  1.00  0.00     0.037 A 
ENDBRANCH  24  25
ENDBRANCH  23  24
ENDBRANCH  20  23
ENDBRANCH   1  19
TORSDOF 7
ENDMDL
MODEL 5
REMARK VINA RESULT:      -8.3      2.443      9.396
REMARK  7 active torsions:
REMARK  status: ('A' for Active; 'I' for Inactive)
REMARK    1  A    between atoms: C_4  and  O_5 
REMARK    2  A    between atoms: O_5  and  C_6 
REMARK    3  A    between atoms: C_6  and  C_7 
REMARK       I    between atoms: C_7  and  N_8 
REMARK    4  A    between atoms: N_8  and  N_9 
REMARK       I    between atoms: N_9  and  C_10 
REMARK    5  A    between atoms: C_10  and  C_11 
REMARK    6  A    between atoms: C_13  and  C_14 
REMARK    7  A    between atoms: C_21  and  C_22 
ROOT
HETATM    1  N   UNL     1     -43.872  56.612 -55.968  1.00  0.00    -0.262 N 
HETATM    2  C   UNL     1     -43.301  56.420 -57.215  1.00  0.00     0.291 C 
HETATM    3  O   UNL     1     -42.880  55.324 -57.586  1.00  0.00    -0.264 OA
HETATM    4  H   UNL     1     -43.954  57.567 -55.623  1.00  0.00     0.190 HD
ENDROOT
BRANCH   2   5
HETATM    5  C   UNL     1     -43.276  57.628 -58.026  1.00  0.00     0.159 A 
HETATM    6  N   UNL     1     -42.122  58.386 -58.207  1.00  0.00    -0.216 NA
HETATM    7  C   UNL     1     -42.524  59.417 -58.927  1.00  0.00     0.180 A 
HETATM    8  O   UNL     1     -43.845  59.371 -59.276  1.00  0.00    -0.293 OA
HETATM    9  C   UNL     1     -44.323  58.224 -58.702  1.00  0.00     0.094 A 
BRANCH   7  10
HETATM   10  C   UNL     1     -41.771  60.591 -59.365  1.00  0.00     0.017 A 
HETATM   11  C   UNL     1     -41.069  61.358 -58.424  1.00  0.00     0.016 A 
HETATM   12  C   UNL     1     -40.363  62.501 -58.814  1.00  0.00     0.001 A 
HETATM   13  C   UNL     1     -40.351  62.890 -60.151  1.00  0.00     0.000 A 
HETATM   14  C   UNL     1     -41.042  62.137 -61.100  1.00  0.00     0.001 A 
HETATM   15  C   UNL     1     -41.746  60.995 -60.709  1.00  0.00     0.016 A 
ENDBRANCH   7  10
BRANCH   9  16
HETATM   16  C   UNL     1     -45.754  57.739 -58.834  1.00  0.00     0.046 A 
HETATM   17  C   UNL     1     -46.536  58.157 -60.061  1.00  0.00     0.012 A 
HETATM   18  C   UNL     1     -46.061  56.751 -59.941  1.00  0.00     0.012 A 
ENDBRANCH   9  16
ENDBRANCH   2   5
BRANCH   1  19
HETATM   19  N   UNL     1     -43.737  55.581 -55.017  1.00  0.00    -0.265 N 
HETATM   20  C   UNL     1     -42.810  55.775 -53.998  1.00  0.00     0.260 C 
HETATM   21  O   UNL     1     -42.299  56.867 -53.761  1.00  0.00    -0.269 OA
HETATM   22  H   UNL     1     -43.859  54.645 -55.397  1.00  0.00     0.190 HD
BRANCH  20  23
HETATM   23  C   UNL     1     -42.514  54.493 -53.216  1.00  0.00     0.280 C 
BRANCH  23  24
HETATM   24  O   UNL     1     -41.124  54.388 -52.947  1.00  0.00    -0.342 OA
BRANCH  24  25
HETATM   25  C   UNL     1     -40.606  53.131 -52.802  1.00  0.00     0.069 A 
HETATM   26  C   UNL     1     -40.391  52.202 -53.824  1.00  0.00     0.043 A 
HETATM   27  C   UNL     1     -39.868  50.931 -53.532  1.00  0.00    -0.059 A 
HETATM   28  C   UNL     1     -39.631  49.924 -54.619  1.00  0.00     0.048 C 
HETATM   29  C   UNL     1     -39.544  50.609 -52.209  1.00  0.00     0.007 A 
HETATM   30  C   UNL     1     -39.748  51.537 -51.189  1.00  0.00     0.003 A 
HETATM   31  C   UNL     1     -40.278  52.791 -51.488  1.00  0.00     0.037 A 
ENDBRANCH  24  25
ENDBRANCH  23  24
ENDBRANCH  20  23
ENDBRANCH   1  19
TORSDOF 7
ENDMDL
MODEL 6
REMARK VINA RESULT:      -8.2      2.061      3.350
REMARK  7 active torsions:
REMARK  status: ('A' for Active; 'I' for Inactive)
REMARK    1  A    between atoms: C_4  and  O_5 
REMARK    2  A    between atoms: O_5  and  C_6 
REMARK    3  A    between atoms: C_6  and  C_7 
REMARK       I    between atoms: C_7  and  N_8 
REMARK    4  A    between atoms: N_8  and  N_9 
REMARK       I    between atoms: N_9  and  C_10 
REMARK    5  A    between atoms: C_10  and  C_11 
REMARK    6  A    between atoms: C_13  and  C_14 
REMARK    7  A    between atoms: C_21  and  C_22 
ROOT
HETATM    1  N   UNL     1     -43.512  56.124 -55.707  1.00  0.00    -0.262 N 
HETATM    2  C   UNL     1     -42.425  56.626 -55.011  1.00  0.00     0.291 C 
HETATM    3  O   UNL     1     -42.048  57.792 -55.129  1.00  0.00    -0.264 OA
HETATM    4  H   UNL     1     -43.611  55.111 -55.773  1.00  0.00     0.190 HD
ENDROOT
BRANCH   2   5
HETATM    5  C   UNL     1     -41.808  55.646 -54.129  1.00  0.00     0.159 A 
HETATM    6  N   UNL     1     -41.354  54.410 -54.581  1.00  0.00    -0.216 NA
HETATM    7  C   UNL     1     -40.940  53.800 -53.487  1.00  0.00     0.180 A 
HETATM    8  O   UNL     1     -41.042  54.558 -52.354  1.00  0.00    -0.293 OA
HETATM    9  C   UNL     1     -41.592  55.740 -52.768  1.00  0.00     0.094 A 
BRANCH   7  10
HETATM   10  C   UNL     1     -40.428  52.440 -53.322  1.00  0.00     0.017 A 
HETATM   11  C   UNL     1     -40.499  51.535 -54.391  1.00  0.00     0.016 A 
HETATM   12  C   UNL     1     -40.040  50.222 -54.250  1.00  0.00     0.001 A 
HETATM   13  C   UNL     1     -39.506  49.797 -53.036  1.00  0.00     0.000 A 
HETATM   14  C   UNL     1     -39.426  50.684 -51.964  1.00  0.00     0.001 A 
HETATM   15  C   UNL     1     -39.884  51.997 -52.106  1.00  0.00     0.016 A 
ENDBRANCH   7  10
BRANCH   9  16
HETATM   16  C   UNL     1     -41.879  56.913 -51.849  1.00  0.00     0.046 A 
HETATM   17  C   UNL     1     -41.043  57.054 -50.595  1.00  0.00     0.012 A 
HETATM   18  C   UNL     1     -40.818  57.989 -51.732  1.00  0.00     0.012 A 
ENDBRANCH   9  16
ENDBRANCH   2   5
BRANCH   1  19
HETATM   19  N   UNL     1     -44.037  56.902 -56.757  1.00  0.00    -0.265 N 
HETATM   20  C   UNL     1     -43.628  56.585 -58.049  1.00  0.00     0.260 C 
HETATM   21  O   UNL     1     -43.041  55.542 -58.324  1.00  0.00    -0.269 OA
HETATM   22  H   UNL     1     -44.187  57.880 -56.517  1.00  0.00     0.190 HD
BRANCH  20  23
HETATM   23  C   UNL     1     -43.995  57.667 -59.067  1.00  0.00     0.280 C 
BRANCH  23  24
HETATM   24  O   UNL     1     -43.777  58.958 -58.518  1.00  0.00    -0.342 OA
BRANCH  24  25
HETATM   25  C   UNL     1     -42.940  59.797 -59.199  1.00  0.00     0.069 A 
HETATM   26  C   UNL     1     -42.015  60.679 -58.636  1.00  0.00     0.043 A 
HETATM   27  C   UNL     1     -41.226  61.503 -59.456  1.00  0.00    -0.059 A 
HETATM   28  C   UNL     1     -40.227  62.454 -58.864  1.00  0.00     0.048 C 
HETATM   29  C   UNL     1     -41.361  61.419 -60.847  1.00  0.00     0.007 A 
HETATM   30  C   UNL     1     -42.276  60.533 -61.412  1.00  0.00     0.003 A 
HETATM   31  C   UNL     1     -43.062  59.728 -60.589  1.00  0.00     0.037 A 
ENDBRANCH  24  25
ENDBRANCH  23  24
ENDBRANCH  20  23
ENDBRANCH   1  19
TORSDOF 7
ENDMDL
MODEL 7
REMARK VINA RESULT:      -8.0      1.538      1.866
REMARK  7 active torsions:
REMARK  status: ('A' for Active; 'I' for Inactive)
REMARK    1  A    between atoms: C_4  and  O_5 
REMARK    2  A    between atoms: O_5  and  C_6 
REMARK    3  A    between atoms: C_6  and  C_7 
REMARK       I    between atoms: C_7  and  N_8 
REMARK    4  A    between atoms: N_8  and  N_9 
REMARK       I    between atoms: N_9  and  C_10 
REMARK    5  A    between atoms: C_10  and  C_11 
REMARK    6  A    between atoms: C_13  and  C_14 
REMARK    7  A    between atoms: C_21  and  C_22 
ROOT
HETATM    1  N   UNL     1     -43.818  56.300 -55.281  1.00  0.00    -0.262 N 
HETATM    2  C   UNL     1     -42.502  56.602 -54.972  1.00  0.00     0.291 C 
HETATM    3  O   UNL     1     -41.942  57.614 -55.394  1.00  0.00    -0.264 OA
HETATM    4  H   UNL     1     -44.137  55.344 -55.131  1.00  0.00     0.190 HD
ENDROOT
BRANCH   2   5
HETATM    5  C   UNL     1     -41.880  55.620 -54.096  1.00  0.00     0.159 A 
HETATM    6  N   UNL     1     -41.407  54.395 -54.559  1.00  0.00    -0.216 NA
HETATM    7  C   UNL     1     -40.994  53.777 -53.468  1.00  0.00     0.180 A 
HETATM    8  O   UNL     1     -41.114  54.522 -52.327  1.00  0.00    -0.293 OA
HETATM    9  C   UNL     1     -41.676  55.702 -52.733  1.00  0.00     0.094 A 
BRANCH   7  10
HETATM   10  C   UNL     1     -40.467  52.422 -53.314  1.00  0.00     0.017 A 
HETATM   11  C   UNL     1     -40.534  51.523 -54.389  1.00  0.00     0.016 A 
HETATM   12  C   UNL     1     -40.061  50.214 -54.258  1.00  0.00     0.001 A 
HETATM   13  C   UNL     1     -39.516  49.787 -53.050  1.00  0.00     0.000 A 
HETATM   14  C   UNL     1     -39.440  50.668 -51.972  1.00  0.00     0.001 A 
HETATM   15  C   UNL     1     -39.912  51.977 -52.104  1.00  0.00     0.016 A 
ENDBRANCH   7  10
BRANCH   9  16
HETATM   16  C   UNL     1     -41.984  56.860 -51.803  1.00  0.00     0.046 A 
HETATM   17  C   UNL     1     -41.113  57.040 -50.578  1.00  0.00     0.012 A 
HETATM   18  C   UNL     1     -40.969  57.983 -51.721  1.00  0.00     0.012 A 
ENDBRANCH   9  16
ENDBRANCH   2   5
BRANCH   1  19
HETATM   19  N   UNL     1     -44.441  57.045 -56.301  1.00  0.00    -0.265 N 
HETATM   20  C   UNL     1     -45.339  58.033 -55.908  1.00  0.00     0.260 C 
HETATM   21  O   UNL     1     -45.425  58.432 -54.750  1.00  0.00    -0.269 OA
HETATM   22  H   UNL     1     -44.638  56.513 -57.146  1.00  0.00     0.190 HD
BRANCH  20  23
HETATM   23  C   UNL     1     -46.186  58.559 -57.070  1.00  0.00     0.280 C 
BRANCH  23  24
HETATM   24  O   UNL     1     -45.521  58.338 -58.305  1.00  0.00    -0.342 OA
BRANCH  24  25
HETATM   25  C   UNL     1     -46.296  58.022 -59.387  1.00  0.00     0.069 A 
HETATM   26  C   UNL     1     -46.961  58.925 -60.220  1.00  0.00     0.043 A 
HETATM   27  C   UNL     1     -47.744  58.462 -61.291  1.00  0.00    -0.059 A 
HETATM   28  C   UNL     1     -48.463  59.420 -62.194  1.00  0.00     0.048 C 
HETATM   29  C   UNL     1     -47.835  57.086 -61.530  1.00  0.00     0.007 A 
HETATM   30  C   UNL     1     -47.164  56.183 -60.707  1.00  0.00     0.003 A 
HETATM   31  C   UNL     1     -46.400  56.653 -59.640  1.00  0.00     0.037 A 
ENDBRANCH  24  25
ENDBRANCH  23  24
ENDBRANCH  20  23
ENDBRANCH   1  19
TORSDOF 7
ENDMDL
MODEL 8
REMARK VINA RESULT:      -8.0      2.016      3.029
REMARK  7 active torsions:
REMARK  status: ('A' for Active; 'I' for Inactive)
REMARK    1  A    between atoms: C_4  and  O_5 
REMARK    2  A    between atoms: O_5  and  C_6 
REMARK    3  A    between atoms: C_6  and  C_7 
REMARK       I    between atoms: C_7  and  N_8 
REMARK    4  A    between atoms: N_8  and  N_9 
REMARK       I    between atoms: N_9  and  C_10 
REMARK    5  A    between atoms: C_10  and  C_11 
REMARK    6  A    between atoms: C_13  and  C_14 
REMARK    7  A    between atoms: C_21  and  C_22 
ROOT
HETATM    1  N   UNL     1     -43.486  55.251 -57.034  1.00  0.00    -0.262 N 
HETATM    2  C   UNL     1     -42.456  55.954 -56.432  1.00  0.00     0.291 C 
HETATM    3  O   UNL     1     -42.131  57.085 -56.793  1.00  0.00    -0.264 OA
HETATM    4  H   UNL     1     -43.533  54.245 -56.878  1.00  0.00     0.190 HD
ENDROOT
BRANCH   2   5
HETATM    5  C   UNL     1     -41.833  55.228 -55.334  1.00  0.00     0.159 A 
HETATM    6  N   UNL     1     -41.390  53.914 -55.460  1.00  0.00    -0.216 NA
HETATM    7  C   UNL     1     -40.965  53.601 -54.250  1.00  0.00     0.180 A 
HETATM    8  O   UNL     1     -41.051  54.625 -53.348  1.00  0.00    -0.293 OA
HETATM    9  C   UNL     1     -41.601  55.666 -54.045  1.00  0.00     0.094 A 
BRANCH   7  10
HETATM   10  C   UNL     1     -40.458  52.326 -53.748  1.00  0.00     0.017 A 
HETATM   11  C   UNL     1     -40.512  51.185 -54.563  1.00  0.00     0.016 A 
HETATM   12  C   UNL     1     -40.057  49.949 -54.096  1.00  0.00     0.001 A 
HETATM   13  C   UNL     1     -39.543  49.836 -52.807  1.00  0.00     0.000 A 
HETATM   14  C   UNL     1     -39.480  50.960 -51.984  1.00  0.00     0.001 A 
HETATM   15  C   UNL     1     -39.933  52.196 -52.453  1.00  0.00     0.016 A 
ENDBRANCH   7  10
BRANCH   9  16
HETATM   16  C   UNL     1     -41.872  57.037 -53.454  1.00  0.00     0.046 A 
HETATM   17  C   UNL     1     -41.178  57.402 -52.159  1.00  0.00     0.012 A 
HETATM   18  C   UNL     1     -40.727  58.029 -53.432  1.00  0.00     0.012 A 
ENDBRANCH   9  16
ENDBRANCH   2   5
BRANCH   1  19
HETATM   19  N   UNL     1     -44.001  55.749 -58.247  1.00  0.00    -0.265 N 
HETATM   20  C   UNL     1     -44.345  54.816 -59.221  1.00  0.00     0.260 C 
HETATM   21  O   UNL     1     -44.445  53.615 -58.988  1.00  0.00    -0.269 OA
HETATM   22  H   UNL     1     -43.596  56.635 -58.540  1.00  0.00     0.190 HD
BRANCH  20  23
HETATM   23  C   UNL     1     -44.588  55.455 -60.591  1.00  0.00     0.280 C 
BRANCH  23  24
HETATM   24  O   UNL     1     -45.971  55.429 -60.911  1.00  0.00    -0.342 OA
BRANCH  24  25
HETATM   25  C   UNL     1     -46.618  56.629 -61.002  1.00  0.00     0.069 A 
HETATM   26  C   UNL     1     -46.234  57.824 -60.387  1.00  0.00     0.043 A 
HETATM   27  C   UNL     1     -47.005  58.988 -60.548  1.00  0.00    -0.059 A 
HETATM   28  C   UNL     1     -46.604  60.277 -59.894  1.00  0.00     0.048 C 
HETATM   29  C   UNL     1     -48.151  58.946 -61.350  1.00  0.00     0.007 A 
HETATM   30  C   UNL     1     -48.531  57.759 -61.973  1.00  0.00     0.003 A 
HETATM   31  C   UNL     1     -47.766  56.607 -61.797  1.00  0.00     0.037 A 
ENDBRANCH  24  25
ENDBRANCH  23  24
ENDBRANCH  20  23
ENDBRANCH   1  19
TORSDOF 7
ENDMDL
MODEL 9
REMARK VINA RESULT:      -7.9      2.991      9.196
REMARK  7 active torsions:
REMARK  status: ('A' for Active; 'I' for Inactive)
REMARK    1  A    between atoms: C_4  and  O_5 
REMARK    2  A    between atoms: O_5  and  C_6 
REMARK    3  A    between atoms: C_6  and  C_7 
REMARK       I    between atoms: C_7  and  N_8 
REMARK    4  A    between atoms: N_8  and  N_9 
REMARK       I    between atoms: N_9  and  C_10 
REMARK    5  A    between atoms: C_10  and  C_11 
REMARK    6  A    between atoms: C_13  and  C_14 
REMARK    7  A    between atoms: C_21  and  C_22 
ROOT
HETATM    1  N   UNL     1     -41.581  59.447 -54.003  1.00  0.00    -0.262 N 
HETATM    2  C   UNL     1     -42.684  59.254 -54.819  1.00  0.00     0.291 C 
HETATM    3  O   UNL     1     -43.794  58.969 -54.369  1.00  0.00    -0.264 OA
HETATM    4  H   UNL     1     -40.658  59.416 -54.434  1.00  0.00     0.190 HD
ENDROOT
BRANCH   2   5
HETATM    5  C   UNL     1     -42.392  59.445 -56.232  1.00  0.00     0.159 A 
HETATM    6  N   UNL     1     -41.679  60.543 -56.708  1.00  0.00    -0.216 NA
HETATM    7  C   UNL     1     -41.692  60.390 -58.019  1.00  0.00     0.180 A 
HETATM    8  O   UNL     1     -42.318  59.249 -58.440  1.00  0.00    -0.293 OA
HETATM    9  C   UNL     1     -42.760  58.644 -57.295  1.00  0.00     0.094 A 
BRANCH   7  10
HETATM   10  C   UNL     1     -41.168  61.272 -59.060  1.00  0.00     0.017 A 
HETATM   11  C   UNL     1     -41.639  61.151 -60.376  1.00  0.00     0.016 A 
HETATM   12  C   UNL     1     -41.134  61.966 -61.395  1.00  0.00     0.001 A 
HETATM   13  C   UNL     1     -40.152  62.910 -61.110  1.00  0.00     0.000 A 
HETATM   14  C   UNL     1     -39.674  63.044 -59.808  1.00  0.00     0.001 A 
HETATM   15  C   UNL     1     -40.180  62.231 -58.790  1.00  0.00     0.016 A 
ENDBRANCH   7  10
BRANCH   9  16
HETATM   16  C   UNL     1     -43.504  57.323 -57.263  1.00  0.00     0.046 A 
HETATM   17  C   UNL     1     -43.129  56.271 -58.285  1.00  0.00     0.012 A 
HETATM   18  C   UNL     1     -42.724  56.087 -56.864  1.00  0.00     0.012 A 
ENDBRANCH   9  16
ENDBRANCH   2   5
BRANCH   1  19
HETATM   19  N   UNL     1     -41.686  59.061 -52.653  1.00  0.00    -0.265 N 
HETATM   20  C   UNL     1     -40.499  58.834 -51.963  1.00  0.00     0.260 C 
HETATM   21  O   UNL     1     -39.402  59.179 -52.394  1.00  0.00    -0.269 OA
HETATM   22  H   UNL     1     -42.491  58.472 -52.448  1.00  0.00     0.190 HD
BRANCH  20  23
HETATM   23  C   UNL     1     -40.719  58.125 -50.625  1.00  0.00     0.280 C 
BRANCH  23  24
HETATM   24  O   UNL     1     -41.657  57.070 -50.773  1.00  0.00    -0.342 OA
BRANCH  24  25
HETATM   25  C   UNL     1     -41.165  55.828 -51.064  1.00  0.00     0.069 A 
HETATM   26  C   UNL     1     -41.256  55.169 -52.292  1.00  0.00     0.043 A 
HETATM   27  C   UNL     1     -40.721  53.879 -52.450  1.00  0.00    -0.059 A 
HETATM   28  C   UNL     1     -40.811  53.160 -53.764  1.00  0.00     0.048 C 
HETATM   29  C   UNL     1     -40.073  53.268 -51.370  1.00  0.00     0.007 A 
HETATM   30  C   UNL     1     -39.971  53.927 -50.146  1.00  0.00     0.003 A 
HETATM   31  C   UNL     1     -40.517  55.201 -49.997  1.00  0.00     0.037 A 
ENDBRANCH  24  25
ENDBRANCH  23  24
ENDBRANCH  20  23
ENDBRANCH   1  19
TORSDOF 7
ENDMDL
MODEL 10
REMARK VINA RESULT:      -7.8     15.629     18.039
REMARK  7 active torsions:
REMARK  status: ('A' for Active; 'I' for Inactive)
REMARK    1  A    between atoms: C_4  and  O_5 
REMARK    2  A    between atoms: O_5  and  C_6 
REMARK    3  A    between atoms: C_6  and  C_7 
REMARK       I    between atoms: C_7  and  N_8 
REMARK    4  A    between atoms: N_8  and  N_9 
REMARK       I    between atoms: N_9  and  C_10 
REMARK    5  A    between atoms: C_10  and  C_11 
REMARK    6  A    between atoms: C_13  and  C_14 
REMARK    7  A    between atoms: C_21  and  C_22 
ROOT
HETATM    1  N   UNL     1     -32.611  40.747 -52.852  1.00  0.00    -0.262 N 
HETATM    2  C   UNL     1     -32.151  39.589 -52.247  1.00  0.00     0.291 C 
HETATM    3  O   UNL     1     -31.606  38.685 -52.881  1.00  0.00    -0.264 OA
HETATM    4  H   UNL     1     -33.275  41.324 -52.337  1.00  0.00     0.190 HD
ENDROOT
BRANCH   2   5
HETATM    5  C   UNL     1     -32.362  39.573 -50.807  1.00  0.00     0.159 A 
HETATM    6  N   UNL     1     -31.322  39.734 -49.895  1.00  0.00    -0.216 NA
HETATM    7  C   UNL     1     -31.900  39.587 -48.718  1.00  0.00     0.180 A 
HETATM    8  O   UNL     1     -33.252  39.389 -48.783  1.00  0.00    -0.293 OA
HETATM    9  C   UNL     1     -33.545  39.385 -50.119  1.00  0.00     0.094 A 
BRANCH   7  10
HETATM   10  C   UNL     1     -31.300  39.575 -47.385  1.00  0.00     0.017 A 
HETATM   11  C   UNL     1     -31.650  38.568 -46.473  1.00  0.00     0.016 A 
HETATM   12  C   UNL     1     -31.109  38.550 -45.184  1.00  0.00     0.001 A 
HETATM   13  C   UNL     1     -30.212  39.539 -44.790  1.00  0.00     0.000 A 
HETATM   14  C   UNL     1     -29.851  40.545 -45.684  1.00  0.00     0.001 A 
HETATM   15  C   UNL     1     -30.391  40.562 -46.973  1.00  0.00     0.016 A 
ENDBRANCH   7  10
BRANCH   9  16
HETATM   16  C   UNL     1     -34.943  39.214 -50.683  1.00  0.00     0.046 A 
HETATM   17  C   UNL     1     -36.117  39.512 -49.774  1.00  0.00     0.012 A 
HETATM   18  C   UNL     1     -35.781  40.462 -50.871  1.00  0.00     0.012 A 
ENDBRANCH   9  16
ENDBRANCH   2   5
BRANCH   1  19
HETATM   19  N   UNL     1     -32.675  40.772 -54.259  1.00  0.00    -0.265 N 
HETATM   20  C   UNL     1     -33.923  40.991 -54.834  1.00  0.00     0.260 C 
HETATM   21  O   UNL     1     -34.891  41.390 -54.192  1.00  0.00    -0.269 OA
HETATM   22  H   UNL     1     -32.030  40.132 -54.718  1.00  0.00     0.190 HD
BRANCH  20  23
HETATM   23  C   UNL     1     -33.944  40.689 -56.334  1.00  0.00     0.280 C 
BRANCH  23  24
HETATM   24  O   UNL     1     -35.106  39.945 -56.673  1.00  0.00    -0.342 OA
BRANCH  24  25
HETATM   25  C   UNL     1     -35.846  40.387 -57.734  1.00  0.00     0.069 A 
HETATM   26  C   UNL     1     -36.231  39.632 -58.844  1.00  0.00     0.043 A 
HETATM   27  C   UNL     1     -36.979  40.218 -59.879  1.00  0.00    -0.059 A 
HETATM   28  C   UNL     1     -37.401  39.418 -61.077  1.00  0.00     0.048 C 
HETATM   29  C   UNL     1     -37.354  41.563 -59.779  1.00  0.00     0.007 A 
HETATM   30  C   UNL     1     -36.980  42.316 -58.667  1.00  0.00     0.003 A 
HETATM   31  C   UNL     1     -36.228  41.727 -57.652  1.00  0.00     0.037 A 
ENDBRANCH  24  25
ENDBRANCH  23  24
ENDBRANCH  20  23
ENDBRANCH   1  19
TORSDOF 7
ENDMDL
