MODEL 1
REMARK VINA RESULT:      -8.0      0.000      0.000
REMARK  6 active torsions:
REMARK  status: ('A' for Active; 'I' for Inactive)
REMARK    1  A    between atoms: N_2  and  C_4 
REMARK    2  A    between atoms: N_2  and  C_16 
REMARK    3  A    between atoms: C_4  and  C_5 
REMARK       I    between atoms: C_5  and  N_6 
REMARK    4  A    between atoms: N_6  and  C_7 
REMARK    5  A    between atoms: C_16  and  C_17 
REMARK    6  A    between atoms: C_21  and  C_22 
ROOT
HETATM    1  C   UNL     1     -42.568  59.024 -55.522  1.00  0.00     0.270 C 
HETATM    2  N   UNL     1     -41.779  57.997 -54.770  1.00  0.00    -0.061 N 
HETATM    3  H   UNL     1     -41.046  57.666 -55.423  1.00  0.00     0.280 HD
ENDROOT
BRANCH   2   4
HETATM    4  C   UNL     1     -41.100  58.542 -53.520  1.00  0.00     0.337 C 
BRANCH   4   5
HETATM    5  C   UNL     1     -42.060  59.101 -52.468  1.00  0.00     0.248 C 
HETATM    6  N   UNL     1     -42.428  58.400 -51.362  1.00  0.00    -0.326 N 
HETATM    7  H   UNL     1     -42.996  58.979 -50.745  1.00  0.00     0.169 HD
HETATM    8  O   UNL     1     -42.512  60.246 -52.594  1.00  0.00    -0.271 OA
BRANCH   6   9
HETATM    9  C   UNL     1     -42.201  57.087 -50.907  1.00  0.00     0.040 A 
HETATM   10  C   UNL     1     -40.968  56.551 -50.543  1.00  0.00     0.072 A 
HETATM   11  C   UNL     1     -40.881  55.223 -50.110  1.00  0.00     0.121 A 
HETATM   12  F   UNL     1     -39.683  54.738 -49.764  1.00  0.00    -0.206 F 
HETATM   13  C   UNL     1     -41.996  54.405 -50.037  1.00  0.00     0.084 A 
HETATM   14  C   UNL     1     -43.216  54.932 -50.415  1.00  0.00     0.121 A 
HETATM   15  F   UNL     1     -44.313  54.166 -50.364  1.00  0.00    -0.206 F 
HETATM   16  C   UNL     1     -43.328  56.252 -50.850  1.00  0.00     0.072 A 
ENDBRANCH   6   9
ENDBRANCH   4   5
ENDBRANCH   2   4
BRANCH   2  17
HETATM   17  C   UNL     1     -42.578  56.721 -54.531  1.00  0.00     0.295 C 
BRANCH  17  18
HETATM   18  C   UNL     1     -41.649  55.551 -54.416  1.00  0.00     0.082 A 
HETATM   19  N   UNL     1     -40.521  55.533 -55.147  1.00  0.00    -0.177 NA
HETATM   20  N   UNL     1     -39.956  54.347 -54.820  1.00  0.00    -0.277 N 
HETATM   21  H   UNL     1     -39.079  54.084 -55.261  1.00  0.00     0.189 HD
HETATM   22  C   UNL     1     -40.691  53.605 -53.928  1.00  0.00     0.062 A 
HETATM   23  C   UNL     1     -41.798  54.381 -53.646  1.00  0.00     0.062 A 
BRANCH  22  24
HETATM   24  C   UNL     1     -40.310  52.268 -53.471  1.00  0.00    -0.008 A 
HETATM   25  C   UNL     1     -39.859  52.041 -52.163  1.00  0.00     0.014 A 
HETATM   26  C   UNL     1     -39.489  50.759 -51.748  1.00  0.00     0.001 A 
HETATM   27  C   UNL     1     -39.568  49.686 -52.633  1.00  0.00     0.000 A 
HETATM   28  C   UNL     1     -40.021  49.894 -53.933  1.00  0.00     0.001 A 
HETATM   29  C   UNL     1     -40.390  51.175 -54.349  1.00  0.00     0.014 A 
ENDBRANCH  22  24
ENDBRANCH  17  18
ENDBRANCH   2  17
TORSDOF 6
ENDMDL
MODEL 2
REMARK VINA RESULT:      -8.0      0.850      2.080
REMARK  6 active torsions:
REMARK  status: ('A' for Active; 'I' for Inactive)
REMARK    1  A    between atoms: N_2  and  C_4 
REMARK    2  A    between atoms: N_2  and  C_16 
REMARK    3  A    between atoms: C_4  and  C_5 
REMARK       I    between atoms: C_5  and  N_6 
REMARK    4  A    between atoms: N_6  and  C_7 
REMARK    5  A    between atoms: C_16  and  C_17 
REMARK    6  A    between atoms: C_21  and  C_22 
ROOT
HETATM    1  C   UNL     1     -43.536  58.568 -56.015  1.00  0.00     0.270 C 
HETATM    2  N   UNL     1     -43.349  57.689 -54.818  1.00  0.00    -0.061 N 
HETATM    3  H   UNL     1     -42.332  57.687 -54.621  1.00  0.00     0.280 HD
ENDROOT
BRANCH   2   4
HETATM    4  C   UNL     1     -44.079  58.183 -53.576  1.00  0.00     0.337 C 
BRANCH   4   5
HETATM    5  C   UNL     1     -43.198  58.939 -52.580  1.00  0.00     0.248 C 
HETATM    6  N   UNL     1     -42.498  58.313 -51.595  1.00  0.00    -0.326 N 
HETATM    7  H   UNL     1     -41.906  58.979 -51.101  1.00  0.00     0.169 HD
HETATM    8  O   UNL     1     -43.080  60.167 -52.671  1.00  0.00    -0.271 OA
BRANCH   6   9
HETATM    9  C   UNL     1     -42.425  56.987 -51.128  1.00  0.00     0.040 A 
HETATM   10  C   UNL     1     -43.487  56.089 -51.053  1.00  0.00     0.072 A 
HETATM   11  C   UNL     1     -43.277  54.795 -50.563  1.00  0.00     0.121 A 
HETATM   12  F   UNL     1     -44.317  53.954 -50.506  1.00  0.00    -0.206 F 
HETATM   13  C   UNL     1     -42.031  54.370 -50.135  1.00  0.00     0.084 A 
HETATM   14  C   UNL     1     -40.981  55.267 -50.194  1.00  0.00     0.121 A 
HETATM   15  F   UNL     1     -39.765  54.891 -49.781  1.00  0.00    -0.206 F 
HETATM   16  C   UNL     1     -41.165  56.561 -50.678  1.00  0.00     0.072 A 
ENDBRANCH   6   9
ENDBRANCH   4   5
ENDBRANCH   2   4
BRANCH   2  17
HETATM   17  C   UNL     1     -43.603  56.220 -55.139  1.00  0.00     0.295 C 
BRANCH  17  18
HETATM   18  C   UNL     1     -42.492  55.378 -54.587  1.00  0.00     0.082 A 
HETATM   19  N   UNL     1     -41.300  55.946 -54.335  1.00  0.00    -0.177 NA
HETATM   20  N   UNL     1     -40.550  54.912 -53.886  1.00  0.00    -0.277 N 
HETATM   21  H   UNL     1     -39.581  55.083 -53.635  1.00  0.00     0.189 HD
HETATM   22  C   UNL     1     -41.213  53.709 -53.864  1.00  0.00     0.062 A 
HETATM   23  C   UNL     1     -42.488  53.997 -54.312  1.00  0.00     0.062 A 
BRANCH  22  24
HETATM   24  C   UNL     1     -40.593  52.444 -53.471  1.00  0.00    -0.008 A 
HETATM   25  C   UNL     1     -40.551  51.346 -54.341  1.00  0.00     0.014 A 
HETATM   26  C   UNL     1     -39.963  50.141 -53.943  1.00  0.00     0.001 A 
HETATM   27  C   UNL     1     -39.407  50.020 -52.672  1.00  0.00     0.000 A 
HETATM   28  C   UNL     1     -39.435  51.103 -51.798  1.00  0.00     0.001 A 
HETATM   29  C   UNL     1     -40.023  52.307 -52.195  1.00  0.00     0.014 A 
ENDBRANCH  22  24
ENDBRANCH  17  18
ENDBRANCH   2  17
TORSDOF 6
ENDMDL
MODEL 3
REMARK VINA RESULT:      -7.9      1.678      2.136
REMARK  6 active torsions:
REMARK  status: ('A' for Active; 'I' for Inactive)
REMARK    1  A    between atoms: N_2  and  C_4 
REMARK    2  A    between atoms: N_2  and  C_16 
REMARK    3  A    between atoms: C_4  and  C_5 
REMARK       I    between atoms: C_5  and  N_6 
REMARK    4  A    between atoms: N_6  and  C_7 
REMARK    5  A    between atoms: C_16  and  C_17 
REMARK    6  A    between atoms: C_21  and  C_22 
ROOT
HETATM    1  C   UNL     1     -42.504  57.952 -57.495  1.00  0.00     0.270 C 
HETATM    2  N   UNL     1     -42.469  57.382 -56.111  1.00  0.00    -0.061 N 
HETATM    3  H   UNL     1     -41.467  57.286 -55.866  1.00  0.00     0.280 HD
ENDROOT
BRANCH   2   4
HETATM    4  C   UNL     1     -43.137  58.267 -55.067  1.00  0.00     0.337 C 
BRANCH   4   5
HETATM    5  C   UNL     1     -44.424  57.690 -54.475  1.00  0.00     0.248 C 
HETATM    6  N   UNL     1     -44.457  57.042 -53.279  1.00  0.00    -0.326 N 
HETATM    7  H   UNL     1     -45.417  56.817 -53.021  1.00  0.00     0.169 HD
HETATM    8  O   UNL     1     -45.496  57.830 -55.077  1.00  0.00    -0.271 OA
BRANCH   6   9
HETATM    9  C   UNL     1     -43.478  56.627 -52.356  1.00  0.00     0.040 A 
HETATM   10  C   UNL     1     -42.505  57.439 -51.778  1.00  0.00     0.072 A 
HETATM   11  C   UNL     1     -41.585  56.895 -50.874  1.00  0.00     0.121 A 
HETATM   12  F   UNL     1     -40.664  57.702 -50.332  1.00  0.00    -0.206 F 
HETATM   13  C   UNL     1     -41.601  55.553 -50.535  1.00  0.00     0.084 A 
HETATM   14  C   UNL     1     -42.556  54.745 -51.122  1.00  0.00     0.121 A 
HETATM   15  F   UNL     1     -42.595  53.441 -50.822  1.00  0.00    -0.206 F 
HETATM   16  C   UNL     1     -43.483  55.263 -52.025  1.00  0.00     0.072 A 
ENDBRANCH   6   9
ENDBRANCH   4   5
ENDBRANCH   2   4
BRANCH   2  17
HETATM   17  C   UNL     1     -42.933  55.930 -56.077  1.00  0.00     0.295 C 
BRANCH  17  18
HETATM   18  C   UNL     1     -41.988  55.111 -55.250  1.00  0.00     0.082 A 
HETATM   19  N   UNL     1     -40.892  55.693 -54.735  1.00  0.00    -0.177 NA
HETATM   20  N   UNL     1     -40.273  54.678 -54.089  1.00  0.00    -0.277 N 
HETATM   21  H   UNL     1     -39.393  54.862 -53.617  1.00  0.00     0.189 HD
HETATM   22  C   UNL     1     -40.923  53.472 -54.191  1.00  0.00     0.062 A 
HETATM   23  C   UNL     1     -42.053  53.739 -54.940  1.00  0.00     0.062 A 
BRANCH  22  24
HETATM   24  C   UNL     1     -40.417  52.222 -53.622  1.00  0.00    -0.008 A 
HETATM   25  C   UNL     1     -40.411  51.031 -54.361  1.00  0.00     0.014 A 
HETATM   26  C   UNL     1     -39.933  49.844 -53.797  1.00  0.00     0.001 A 
HETATM   27  C   UNL     1     -39.453  49.834 -52.490  1.00  0.00     0.000 A 
HETATM   28  C   UNL     1     -39.446  51.011 -51.745  1.00  0.00     0.001 A 
HETATM   29  C   UNL     1     -39.924  52.197 -52.309  1.00  0.00     0.014 A 
ENDBRANCH  22  24
ENDBRANCH  17  18
ENDBRANCH   2  17
TORSDOF 6
ENDMDL
MODEL 4
REMARK VINA RESULT:      -7.2      2.870      4.561
REMARK  6 active torsions:
REMARK  status: ('A' for Active; 'I' for Inactive)
REMARK    1  A    between atoms: N_2  and  C_4 
REMARK    2  A    between atoms: N_2  and  C_16 
REMARK    3  A    between atoms: C_4  and  C_5 
REMARK       I    between atoms: C_5  and  N_6 
REMARK    4  A    between atoms: N_6  and  C_7 
REMARK    5  A    between atoms: C_16  and  C_17 
REMARK    6  A    between atoms: C_21  and  C_22 
ROOT
HETATM    1  C   UNL     1     -45.256  58.583 -51.370  1.00  0.00     0.270 C 
HETATM    2  N   UNL     1     -44.058  58.254 -52.206  1.00  0.00    -0.061 N 
HETATM    3  H   UNL     1     -44.301  57.391 -52.726  1.00  0.00     0.280 HD
ENDROOT
BRANCH   2   4
HETATM    4  C   UNL     1     -43.698  59.338 -53.213  1.00  0.00     0.337 C 
BRANCH   4   5
HETATM    5  C   UNL     1     -42.214  59.395 -53.581  1.00  0.00     0.248 C 
HETATM    6  N   UNL     1     -41.694  58.727 -54.646  1.00  0.00    -0.326 N 
HETATM    7  H   UNL     1     -40.712  58.968 -54.773  1.00  0.00     0.169 HD
HETATM    8  O   UNL     1     -41.441  60.093 -52.914  1.00  0.00    -0.271 OA
BRANCH   6   9
HETATM    9  C   UNL     1     -42.208  57.801 -55.575  1.00  0.00     0.040 A 
HETATM   10  C   UNL     1     -42.320  56.427 -55.380  1.00  0.00     0.072 A 
HETATM   11  C   UNL     1     -42.848  55.617 -56.391  1.00  0.00     0.121 A 
HETATM   12  F   UNL     1     -42.946  54.299 -56.173  1.00  0.00    -0.206 F 
HETATM   13  C   UNL     1     -43.262  56.140 -57.604  1.00  0.00     0.084 A 
HETATM   14  C   UNL     1     -43.135  57.502 -57.803  1.00  0.00     0.121 A 
HETATM   15  F   UNL     1     -43.519  58.040 -58.967  1.00  0.00    -0.206 F 
HETATM   16  C   UNL     1     -42.612  58.330 -56.811  1.00  0.00     0.072 A 
ENDBRANCH   6   9
ENDBRANCH   4   5
ENDBRANCH   2   4
BRANCH   2  17
HETATM   17  C   UNL     1     -42.881  57.782 -51.360  1.00  0.00     0.295 C 
BRANCH  17  18
HETATM   18  C   UNL     1     -42.631  56.324 -51.602  1.00  0.00     0.082 A 
HETATM   19  N   UNL     1     -43.523  55.422 -51.159  1.00  0.00    -0.177 NA
HETATM   20  N   UNL     1     -42.975  54.238 -51.518  1.00  0.00    -0.277 N 
HETATM   21  H   UNL     1     -43.463  53.379 -51.279  1.00  0.00     0.189 HD
HETATM   22  C   UNL     1     -41.761  54.353 -52.152  1.00  0.00     0.062 A 
HETATM   23  C   UNL     1     -41.525  55.712 -52.223  1.00  0.00     0.062 A 
BRANCH  22  24
HETATM   24  C   UNL     1     -40.955  53.210 -52.582  1.00  0.00    -0.008 A 
HETATM   25  C   UNL     1     -40.103  52.538 -51.694  1.00  0.00     0.014 A 
HETATM   26  C   UNL     1     -39.331  51.455 -52.127  1.00  0.00     0.001 A 
HETATM   27  C   UNL     1     -39.404  51.028 -53.450  1.00  0.00     0.000 A 
HETATM   28  C   UNL     1     -40.251  51.680 -54.342  1.00  0.00     0.001 A 
HETATM   29  C   UNL     1     -41.021  52.763 -53.911  1.00  0.00     0.014 A 
ENDBRANCH  22  24
ENDBRANCH  17  18
ENDBRANCH   2  17
TORSDOF 6
ENDMDL
MODEL 5
REMARK VINA RESULT:      -7.2      4.245      6.113
REMARK  6 active torsions:
REMARK  status: ('A' for Active; 'I' for Inactive)
REMARK    1  A    between atoms: N_2  and  C_4 
REMARK    2  A    between atoms: N_2  and  C_16 
REMARK    3  A    between atoms: C_4  and  C_5 
REMARK       I    between atoms: C_5  and  N_6 
REMARK    4  A    between atoms: N_6  and  C_7 
REMARK    5  A    between atoms: C_16  and  C_17 
REMARK    6  A    between atoms: C_21  and  C_22 
ROOT
HETATM    1  C   UNL     1     -45.029  58.246 -54.954  1.00  0.00     0.270 C 
HETATM    2  N   UNL     1     -43.772  58.092 -55.753  1.00  0.00    -0.061 N 
HETATM    3  H   UNL     1     -43.838  57.166 -56.214  1.00  0.00     0.280 HD
ENDROOT
BRANCH   2   4
HETATM    4  C   UNL     1     -43.595  59.155 -56.829  1.00  0.00     0.337 C 
BRANCH   4   5
HETATM    5  C   UNL     1     -42.439  58.893 -57.796  1.00  0.00     0.248 C 
HETATM    6  N   UNL     1     -42.525  58.001 -58.820  1.00  0.00    -0.326 N 
HETATM    7  H   UNL     1     -41.687  58.041 -59.399  1.00  0.00     0.169 HD
HETATM    8  O   UNL     1     -41.384  59.528 -57.680  1.00  0.00    -0.271 OA
BRANCH   6   9
HETATM    9  C   UNL     1     -43.491  57.062 -59.230  1.00  0.00     0.040 A 
HETATM   10  C   UNL     1     -43.398  55.680 -59.087  1.00  0.00     0.072 A 
HETATM   11  C   UNL     1     -44.433  54.857 -59.544  1.00  0.00     0.121 A 
HETATM   12  F   UNL     1     -44.315  53.532 -59.390  1.00  0.00    -0.206 F 
HETATM   13  C   UNL     1     -45.564  55.375 -60.151  1.00  0.00     0.084 A 
HETATM   14  C   UNL     1     -45.648  56.746 -60.308  1.00  0.00     0.121 A 
HETATM   15  F   UNL     1     -46.725  57.280 -60.897  1.00  0.00    -0.206 F 
HETATM   16  C   UNL     1     -44.630  57.586 -59.861  1.00  0.00     0.072 A 
ENDBRANCH   6   9
ENDBRANCH   4   5
ENDBRANCH   2   4
BRANCH   2  17
HETATM   17  C   UNL     1     -42.547  57.904 -54.864  1.00  0.00     0.295 C 
BRANCH  17  18
HETATM   18  C   UNL     1     -42.216  56.446 -54.752  1.00  0.00     0.082 A 
HETATM   19  N   UNL     1     -42.879  55.561 -55.516  1.00  0.00    -0.177 NA
HETATM   20  N   UNL     1     -42.355  54.371 -55.142  1.00  0.00    -0.277 N 
HETATM   21  H   UNL     1     -42.708  53.522 -55.575  1.00  0.00     0.189 HD
HETATM   22  C   UNL     1     -41.403  54.465 -54.156  1.00  0.00     0.062 A 
HETATM   23  C   UNL     1     -41.293  55.817 -53.896  1.00  0.00     0.062 A 
BRANCH  22  24
HETATM   24  C   UNL     1     -40.737  53.310 -53.553  1.00  0.00    -0.008 A 
HETATM   25  C   UNL     1     -40.460  53.258 -52.180  1.00  0.00     0.014 A 
HETATM   26  C   UNL     1     -39.814  52.150 -51.623  1.00  0.00     0.001 A 
HETATM   27  C   UNL     1     -39.440  51.079 -52.431  1.00  0.00     0.000 A 
HETATM   28  C   UNL     1     -39.715  51.112 -53.795  1.00  0.00     0.001 A 
HETATM   29  C   UNL     1     -40.360  52.219 -54.352  1.00  0.00     0.014 A 
ENDBRANCH  22  24
ENDBRANCH  17  18
ENDBRANCH   2  17
TORSDOF 6
ENDMDL
MODEL 6
REMARK VINA RESULT:      -7.1      2.686      4.524
REMARK  6 active torsions:
REMARK  status: ('A' for Active; 'I' for Inactive)
REMARK    1  A    between atoms: N_2  and  C_4 
REMARK    2  A    between atoms: N_2  and  C_16 
REMARK    3  A    between atoms: C_4  and  C_5 
REMARK       I    between atoms: C_5  and  N_6 
REMARK    4  A    between atoms: N_6  and  C_7 
REMARK    5  A    between atoms: C_16  and  C_17 
REMARK    6  A    between atoms: C_21  and  C_22 
ROOT
HETATM    1  C   UNL     1     -44.442  59.909 -50.655  1.00  0.00     0.270 C 
HETATM    2  N   UNL     1     -43.718  59.395 -51.860  1.00  0.00    -0.061 N 
HETATM    3  H   UNL     1     -44.159  58.487 -52.093  1.00  0.00     0.280 HD
ENDROOT
BRANCH   2   4
HETATM    4  C   UNL     1     -43.825  60.308 -53.074  1.00  0.00     0.337 C 
BRANCH   4   5
HETATM    5  C   UNL     1     -45.122  60.154 -53.872  1.00  0.00     0.248 C 
HETATM    6  N   UNL     1     -45.391  59.059 -54.634  1.00  0.00    -0.326 N 
HETATM    7  H   UNL     1     -46.337  59.109 -55.008  1.00  0.00     0.169 HD
HETATM    8  O   UNL     1     -45.988  61.035 -53.815  1.00  0.00    -0.271 OA
BRANCH   6   9
HETATM    9  C   UNL     1     -44.660  57.915 -55.007  1.00  0.00     0.040 A 
HETATM   10  C   UNL     1     -44.674  56.688 -54.348  1.00  0.00     0.072 A 
HETATM   11  C   UNL     1     -43.893  55.628 -54.825  1.00  0.00     0.121 A 
HETATM   12  F   UNL     1     -43.930  54.460 -54.172  1.00  0.00    -0.206 F 
HETATM   13  C   UNL     1     -43.086  55.761 -55.942  1.00  0.00     0.084 A 
HETATM   14  C   UNL     1     -43.060  56.984 -56.585  1.00  0.00     0.121 A 
HETATM   15  F   UNL     1     -42.285  57.148 -57.664  1.00  0.00    -0.206 F 
HETATM   16  C   UNL     1     -43.829  58.054 -56.129  1.00  0.00     0.072 A 
ENDBRANCH   6   9
ENDBRANCH   4   5
ENDBRANCH   2   4
BRANCH   2  17
HETATM   17  C   UNL     1     -42.291  58.968 -51.534  1.00  0.00     0.295 C 
BRANCH  17  18
HETATM   18  C   UNL     1     -42.165  57.479 -51.649  1.00  0.00     0.082 A 
HETATM   19  N   UNL     1     -42.967  56.692 -50.912  1.00  0.00    -0.177 NA
HETATM   20  N   UNL     1     -42.567  55.442 -51.241  1.00  0.00    -0.277 N 
HETATM   21  H   UNL     1     -43.021  54.649 -50.797  1.00  0.00     0.189 HD
HETATM   22  C   UNL     1     -41.529  55.406 -52.140  1.00  0.00     0.062 A 
HETATM   23  C   UNL     1     -41.259  56.730 -52.425  1.00  0.00     0.062 A 
BRANCH  22  24
HETATM   24  C   UNL     1     -40.892  54.172 -52.601  1.00  0.00    -0.008 A 
HETATM   25  C   UNL     1     -40.712  53.905 -53.966  1.00  0.00     0.014 A 
HETATM   26  C   UNL     1     -40.111  52.716 -54.388  1.00  0.00     0.001 A 
HETATM   27  C   UNL     1     -39.679  51.779 -53.452  1.00  0.00     0.000 A 
HETATM   28  C   UNL     1     -39.845  52.032 -52.092  1.00  0.00     0.001 A 
HETATM   29  C   UNL     1     -40.446  53.220 -51.671  1.00  0.00     0.014 A 
ENDBRANCH  22  24
ENDBRANCH  17  18
ENDBRANCH   2  17
TORSDOF 6
ENDMDL
MODEL 7
REMARK VINA RESULT:      -7.1      2.477      3.388
REMARK  6 active torsions:
REMARK  status: ('A' for Active; 'I' for Inactive)
REMARK    1  A    between atoms: N_2  and  C_4 
REMARK    2  A    between atoms: N_2  and  C_16 
REMARK    3  A    between atoms: C_4  and  C_5 
REMARK       I    between atoms: C_5  and  N_6 
REMARK    4  A    between atoms: N_6  and  C_7 
REMARK    5  A    between atoms: C_16  and  C_17 
REMARK    6  A    between atoms: C_21  and  C_22 
ROOT
HETATM    1  C   UNL     1     -44.975  58.413 -54.804  1.00  0.00     0.270 C 
HETATM    2  N   UNL     1     -44.042  57.284 -54.491  1.00  0.00    -0.061 N 
HETATM    3  H   UNL     1     -44.470  56.436 -54.904  1.00  0.00     0.280 HD
ENDROOT
BRANCH   2   4
HETATM    4  C   UNL     1     -42.650  57.458 -55.084  1.00  0.00     0.337 C 
BRANCH   4   5
HETATM    5  C   UNL     1     -42.285  58.901 -55.435  1.00  0.00     0.248 C 
HETATM    6  N   UNL     1     -41.736  59.761 -54.535  1.00  0.00    -0.326 N 
HETATM    7  H   UNL     1     -41.485  60.639 -54.987  1.00  0.00     0.169 HD
HETATM    8  O   UNL     1     -42.460  59.318 -56.587  1.00  0.00    -0.271 OA
BRANCH   6   9
HETATM    9  C   UNL     1     -41.458  59.698 -53.156  1.00  0.00     0.040 A 
HETATM   10  C   UNL     1     -40.304  59.174 -52.579  1.00  0.00     0.072 A 
HETATM   11  C   UNL     1     -40.156  59.170 -51.188  1.00  0.00     0.121 A 
HETATM   12  F   UNL     1     -39.034  58.662 -50.663  1.00  0.00    -0.206 F 
HETATM   13  C   UNL     1     -41.137  59.668 -50.347  1.00  0.00     0.084 A 
HETATM   14  C   UNL     1     -42.289  60.173 -50.920  1.00  0.00     0.121 A 
HETATM   15  F   UNL     1     -43.261  60.656 -50.136  1.00  0.00    -0.206 F 
HETATM   16  C   UNL     1     -42.460  60.188 -52.303  1.00  0.00     0.072 A 
ENDBRANCH   6   9
ENDBRANCH   4   5
ENDBRANCH   2   4
BRANCH   2  17
HETATM   17  C   UNL     1     -44.041  56.936 -53.007  1.00  0.00     0.295 C 
BRANCH  17  18
HETATM   18  C   UNL     1     -42.959  55.939 -52.717  1.00  0.00     0.082 A 
HETATM   19  N   UNL     1     -41.991  56.257 -51.840  1.00  0.00    -0.177 NA
HETATM   20  N   UNL     1     -41.193  55.164 -51.846  1.00  0.00    -0.277 N 
HETATM   21  H   UNL     1     -40.363  55.161 -51.262  1.00  0.00     0.189 HD
HETATM   22  C   UNL     1     -41.605  54.176 -52.708  1.00  0.00     0.062 A 
HETATM   23  C   UNL     1     -42.764  54.663 -53.279  1.00  0.00     0.062 A 
BRANCH  22  24
HETATM   24  C   UNL     1     -40.873  52.928 -52.927  1.00  0.00    -0.008 A 
HETATM   25  C   UNL     1     -40.910  52.263 -54.160  1.00  0.00     0.014 A 
HETATM   26  C   UNL     1     -40.213  51.066 -54.347  1.00  0.00     0.001 A 
HETATM   27  C   UNL     1     -39.467  50.520 -53.305  1.00  0.00     0.000 A 
HETATM   28  C   UNL     1     -39.415  51.172 -52.076  1.00  0.00     0.001 A 
HETATM   29  C   UNL     1     -40.112  52.368 -51.889  1.00  0.00     0.014 A 
ENDBRANCH  22  24
ENDBRANCH  17  18
ENDBRANCH   2  17
TORSDOF 6
ENDMDL
MODEL 8
REMARK VINA RESULT:      -7.1      2.795      5.557
REMARK  6 active torsions:
REMARK  status: ('A' for Active; 'I' for Inactive)
REMARK    1  A    between atoms: N_2  and  C_4 
REMARK    2  A    between atoms: N_2  and  C_16 
REMARK    3  A    between atoms: C_4  and  C_5 
REMARK       I    between atoms: C_5  and  N_6 
REMARK    4  A    between atoms: N_6  and  C_7 
REMARK    5  A    between atoms: C_16  and  C_17 
REMARK    6  A    between atoms: C_21  and  C_22 
ROOT
HETATM    1  C   UNL     1     -40.249  58.788 -51.537  1.00  0.00     0.270 C 
HETATM    2  N   UNL     1     -41.522  58.267 -52.129  1.00  0.00    -0.061 N 
HETATM    3  H   UNL     1     -41.241  57.656 -52.917  1.00  0.00     0.280 HD
ENDROOT
BRANCH   2   4
HETATM    4  C   UNL     1     -42.359  57.447 -51.157  1.00  0.00     0.337 C 
BRANCH   4   5
HETATM    5  C   UNL     1     -43.573  56.760 -51.786  1.00  0.00     0.248 C 
HETATM    6  N   UNL     1     -43.492  55.555 -52.412  1.00  0.00    -0.326 N 
HETATM    7  H   UNL     1     -44.420  55.230 -52.680  1.00  0.00     0.169 HD
HETATM    8  O   UNL     1     -44.688  57.291 -51.712  1.00  0.00    -0.271 OA
BRANCH   6   9
HETATM    9  C   UNL     1     -42.434  54.694 -52.760  1.00  0.00     0.040 A 
HETATM   10  C   UNL     1     -41.753  53.844 -51.891  1.00  0.00     0.072 A 
HETATM   11  C   UNL     1     -40.712  53.040 -52.369  1.00  0.00     0.121 A 
HETATM   12  F   UNL     1     -40.079  52.232 -51.510  1.00  0.00    -0.206 F 
HETATM   13  C   UNL     1     -40.321  53.066 -53.697  1.00  0.00     0.084 A 
HETATM   14  C   UNL     1     -40.986  53.921 -54.555  1.00  0.00     0.121 A 
HETATM   15  F   UNL     1     -40.628  53.976 -55.844  1.00  0.00    -0.206 F 
HETATM   16  C   UNL     1     -42.026  54.732 -54.103  1.00  0.00     0.072 A 
ENDBRANCH   6   9
ENDBRANCH   4   5
ENDBRANCH   2   4
BRANCH   2  17
HETATM   17  C   UNL     1     -42.306  59.357 -52.851  1.00  0.00     0.295 C 
BRANCH  17  18
HETATM   18  C   UNL     1     -42.237  59.139 -54.333  1.00  0.00     0.082 A 
HETATM   19  N   UNL     1     -41.913  60.168 -55.134  1.00  0.00    -0.177 NA
HETATM   20  N   UNL     1     -41.973  59.630 -56.374  1.00  0.00    -0.277 N 
HETATM   21  H   UNL     1     -41.778  60.223 -57.175  1.00  0.00     0.189 HD
HETATM   22  C   UNL     1     -42.343  58.307 -56.392  1.00  0.00     0.062 A 
HETATM   23  C   UNL     1     -42.511  57.967 -55.063  1.00  0.00     0.062 A 
BRANCH  22  24
HETATM   24  C   UNL     1     -42.529  57.529 -57.617  1.00  0.00    -0.008 A 
HETATM   25  C   UNL     1     -42.033  57.973 -58.850  1.00  0.00     0.014 A 
HETATM   26  C   UNL     1     -42.230  57.221 -60.012  1.00  0.00     0.001 A 
HETATM   27  C   UNL     1     -42.922  56.014 -59.955  1.00  0.00     0.000 A 
HETATM   28  C   UNL     1     -43.416  55.555 -58.737  1.00  0.00     0.001 A 
HETATM   29  C   UNL     1     -43.220  56.307 -57.576  1.00  0.00     0.014 A 
ENDBRANCH  22  24
ENDBRANCH  17  18
ENDBRANCH   2  17
TORSDOF 6
ENDMDL
MODEL 9
REMARK VINA RESULT:      -6.9     15.029     17.116
REMARK  6 active torsions:
REMARK  status: ('A' for Active; 'I' for Inactive)
REMARK    1  A    between atoms: N_2  and  C_4 
REMARK    2  A    between atoms: N_2  and  C_16 
REMARK    3  A    between atoms: C_4  and  C_5 
REMARK       I    between atoms: C_5  and  N_6 
REMARK    4  A    between atoms: N_6  and  C_7 
REMARK    5  A    between atoms: C_16  and  C_17 
REMARK    6  A    between atoms: C_21  and  C_22 
ROOT
HETATM    1  C   UNL     1     -35.658  39.136 -49.722  1.00  0.00     0.270 C 
HETATM    2  N   UNL     1     -35.627  40.122 -50.849  1.00  0.00    -0.061 N 
HETATM    3  H   UNL     1     -35.370  41.032 -50.426  1.00  0.00     0.280 HD
ENDROOT
BRANCH   2   4
HETATM    4  C   UNL     1     -34.605  39.787 -51.928  1.00  0.00     0.337 C 
BRANCH   4   5
HETATM    5  C   UNL     1     -33.277  40.535 -51.799  1.00  0.00     0.248 C 
HETATM    6  N   UNL     1     -32.406  40.671 -52.835  1.00  0.00    -0.326 N 
HETATM    7  H   UNL     1     -31.630  41.276 -52.572  1.00  0.00     0.169 HD
HETATM    8  O   UNL     1     -32.975  41.072 -50.726  1.00  0.00    -0.271 OA
BRANCH   6   9
HETATM    9  C   UNL     1     -32.350  40.163 -54.147  1.00  0.00     0.040 A 
HETATM   10  C   UNL     1     -31.518  39.138 -54.591  1.00  0.00     0.072 A 
HETATM   11  C   UNL     1     -31.560  38.731 -55.929  1.00  0.00     0.121 A 
HETATM   12  F   UNL     1     -30.750  37.741 -56.325  1.00  0.00    -0.206 F 
HETATM   13  C   UNL     1     -32.408  39.327 -56.847  1.00  0.00     0.084 A 
HETATM   14  C   UNL     1     -33.221  40.355 -56.410  1.00  0.00     0.121 A 
HETATM   15  F   UNL     1     -34.048  40.958 -57.273  1.00  0.00    -0.206 F 
HETATM   16  C   UNL     1     -33.197  40.779 -55.082  1.00  0.00     0.072 A 
ENDBRANCH   6   9
ENDBRANCH   4   5
ENDBRANCH   2   4
BRANCH   2  17
HETATM   17  C   UNL     1     -37.021  40.418 -51.391  1.00  0.00     0.295 C 
BRANCH  17  18
HETATM   18  C   UNL     1     -36.923  40.954 -52.787  1.00  0.00     0.082 A 
HETATM   19  N   UNL     1     -36.488  42.210 -52.980  1.00  0.00    -0.177 NA
HETATM   20  N   UNL     1     -36.553  42.361 -54.323  1.00  0.00    -0.277 N 
HETATM   21  H   UNL     1     -36.284  43.252 -54.730  1.00  0.00     0.189 HD
HETATM   22  C   UNL     1     -37.034  41.258 -54.986  1.00  0.00     0.062 A 
HETATM   23  C   UNL     1     -37.273  40.324 -53.997  1.00  0.00     0.062 A 
BRANCH  22  24
HETATM   24  C   UNL     1     -37.246  41.206 -56.433  1.00  0.00    -0.008 A 
HETATM   25  C   UNL     1     -36.832  42.249 -57.274  1.00  0.00     0.014 A 
HETATM   26  C   UNL     1     -37.054  42.186 -58.653  1.00  0.00     0.001 A 
HETATM   27  C   UNL     1     -37.688  41.078 -59.209  1.00  0.00     0.000 A 
HETATM   28  C   UNL     1     -38.099  40.030 -58.389  1.00  0.00     0.001 A 
HETATM   29  C   UNL     1     -37.878  40.094 -57.011  1.00  0.00     0.014 A 
ENDBRANCH  22  24
ENDBRANCH  17  18
ENDBRANCH   2  17
TORSDOF 6
ENDMDL
MODEL 10
REMARK VINA RESULT:      -6.9      2.707      4.536
REMARK  6 active torsions:
REMARK  status: ('A' for Active; 'I' for Inactive)
REMARK    1  A    between atoms: N_2  and  C_4 
REMARK    2  A    between atoms: N_2  and  C_16 
REMARK    3  A    between atoms: C_4  and  C_5 
REMARK       I    between atoms: C_5  and  N_6 
REMARK    4  A    between atoms: N_6  and  C_7 
REMARK    5  A    between atoms: C_16  and  C_17 
REMARK    6  A    between atoms: C_21  and  C_22 
ROOT
HETATM    1  C   UNL     1     -44.725  60.031 -55.006  1.00  0.00     0.270 C 
HETATM    2  N   UNL     1     -43.695  59.004 -54.649  1.00  0.00    -0.061 N 
HETATM    3  H   UNL     1     -44.212  58.225 -54.202  1.00  0.00     0.280 HD
ENDROOT
BRANCH   2   4
HETATM    4  C   UNL     1     -42.939  58.452 -55.851  1.00  0.00     0.337 C 
BRANCH   4   5
HETATM    5  C   UNL     1     -43.736  57.466 -56.706  1.00  0.00     0.248 C 
HETATM    6  N   UNL     1     -43.731  56.124 -56.478  1.00  0.00    -0.326 N 
HETATM    7  H   UNL     1     -44.393  55.656 -57.095  1.00  0.00     0.169 HD
HETATM    8  O   UNL     1     -44.444  57.884 -57.630  1.00  0.00    -0.271 OA
BRANCH   6   9
HETATM    9  C   UNL     1     -43.024  55.276 -55.604  1.00  0.00     0.040 A 
HETATM   10  C   UNL     1     -41.781  54.700 -55.854  1.00  0.00     0.072 A 
HETATM   11  C   UNL     1     -41.188  53.869 -54.897  1.00  0.00     0.121 A 
HETATM   12  F   UNL     1     -39.991  53.333 -55.165  1.00  0.00    -0.206 F 
HETATM   13  C   UNL     1     -41.808  53.586 -53.692  1.00  0.00     0.084 A 
HETATM   14  C   UNL     1     -43.050  54.144 -53.452  1.00  0.00     0.121 A 
HETATM   15  F   UNL     1     -43.680  53.886 -52.299  1.00  0.00    -0.206 F 
HETATM   16  C   UNL     1     -43.660  54.976 -54.390  1.00  0.00     0.072 A 
ENDBRANCH   6   9
ENDBRANCH   4   5
ENDBRANCH   2   4
BRANCH   2  17
HETATM   17  C   UNL     1     -42.793  59.467 -53.511  1.00  0.00     0.295 C 
BRANCH  17  18
HETATM   18  C   UNL     1     -42.682  58.388 -52.477  1.00  0.00     0.082 A 
HETATM   19  N   UNL     1     -43.662  58.244 -51.569  1.00  0.00    -0.177 NA
HETATM   20  N   UNL     1     -43.227  57.221 -50.798  1.00  0.00    -0.277 N 
HETATM   21  H   UNL     1     -43.797  56.922 -50.013  1.00  0.00     0.189 HD
HETATM   22  C   UNL     1     -42.000  56.726 -51.167  1.00  0.00     0.062 A 
HETATM   23  C   UNL     1     -41.632  57.472 -52.270  1.00  0.00     0.062 A 
BRANCH  22  24
HETATM   24  C   UNL     1     -41.302  55.659 -50.450  1.00  0.00    -0.008 A 
HETATM   25  C   UNL     1     -41.444  55.491 -49.065  1.00  0.00     0.014 A 
HETATM   26  C   UNL     1     -40.761  54.472 -48.395  1.00  0.00     0.001 A 
HETATM   27  C   UNL     1     -39.929  53.606 -49.101  1.00  0.00     0.000 A 
HETATM   28  C   UNL     1     -39.782  53.755 -50.477  1.00  0.00     0.001 A 
HETATM   29  C   UNL     1     -40.464  54.774 -51.147  1.00  0.00     0.014 A 
ENDBRANCH  22  24
ENDBRANCH  17  18
ENDBRANCH   2  17
TORSDOF 6
ENDMDL
