MODEL 1
REMARK VINA RESULT:      -8.2      0.000      0.000
REMARK  9 active torsions:
REMARK  status: ('A' for Active; 'I' for Inactive)
REMARK    1  A    between atoms: C_3  and  C_4 
REMARK    2  A    between atoms: C_4  and  C_5 
REMARK       I    between atoms: C_5  and  N_6 
REMARK    3  A    between atoms: N_6  and  C_7 
REMARK    4  A    between atoms: C_7  and  C_8 
REMARK    5  A    between atoms: C_17  and  N_18 
REMARK       I    between atoms: N_18  and  C_19 
REMARK    6  A    between atoms: C_19  and  C_20 
REMARK    7  A    between atoms: C_28  and  C_29 
REMARK    8  A    between atoms: C_29  and  O_30 
REMARK    9  A    between atoms: C_32  and  O_33 
ROOT
HETATM    1  C   UNL     1     -44.117  56.408 -50.958  1.00  0.00     0.016 C 
HETATM    2  C   UNL     1     -42.931  57.152 -51.651  1.00  0.00    -0.030 C 
HETATM    3  C   UNL     1     -42.610  56.469 -53.057  1.00  0.00     0.056 C 
HETATM    4  C   UNL     1     -43.573  56.957 -54.120  1.00  0.00     0.056 C 
HETATM    5  C   UNL     1     -44.475  57.986 -53.930  1.00  0.00     0.012 C 
HETATM    6  S   UNL     1     -45.379  58.254 -55.348  1.00  0.00    -0.055 SA
HETATM    7  C   UNL     1     -44.311  57.205 -56.170  1.00  0.00     0.173 C 
HETATM    8  N   UNL     1     -43.479  56.515 -55.429  1.00  0.00    -0.227 NA
HETATM    9  C   UNL     1     -44.616  58.812 -52.704  1.00  0.00     0.055 C 
HETATM   10  C   UNL     1     -43.342  58.676 -51.824  1.00  0.00     0.012 C 
HETATM   11  C   UNL     1     -42.152  59.679 -52.181  1.00  0.00     0.008 C 
HETATM   12  C   UNL     1     -42.534  61.059 -51.566  1.00  0.00     0.020 C 
HETATM   13  C   UNL     1     -40.821  59.226 -51.502  1.00  0.00     0.128 C 
HETATM   14  C   UNL     1     -41.061  58.339 -50.288  1.00  0.00     0.033 C 
HETATM   15  C   UNL     1     -41.706  57.014 -50.691  1.00  0.00     0.013 C 
ENDROOT
BRANCH   3  16
HETATM   16  C   UNL     1     -42.589  54.931 -52.972  1.00  0.00     0.114 C 
BRANCH  16  17
HETATM   17  C   UNL     1     -41.191  54.346 -52.962  1.00  0.00     0.218 C 
HETATM   18  N   UNL     1     -40.952  53.474 -51.933  1.00  0.00    -0.355 N 
HETATM   19  H   UNL     1     -41.752  52.921 -51.623  1.00  0.00     0.162 HD
HETATM   20  O   UNL     1     -40.348  54.685 -53.788  1.00  0.00    -0.274 OA
BRANCH  18  21
HETATM   21  C   UNL     1     -39.653  52.872 -51.753  1.00  0.00     0.187 C 
BRANCH  21  22
HETATM   22  C   UNL     1     -39.630  51.566 -52.460  1.00  0.00     0.070 A 
HETATM   23  O   UNL     1     -39.602  50.442 -51.683  1.00  0.00    -0.325 OA
HETATM   24  C   UNL     1     -39.584  49.377 -52.524  1.00  0.00     0.142 A 
HETATM   25  C   UNL     1     -39.597  49.794 -53.833  1.00  0.00     0.027 A 
HETATM   26  C   UNL     1     -39.619  51.208 -53.793  1.00  0.00     0.036 A 
ENDBRANCH  21  22
ENDBRANCH  18  21
ENDBRANCH  16  17
ENDBRANCH   3  16
BRANCH  11  27
HETATM   27  C   UNL     1     -41.878  59.914 -53.692  1.00  0.00     0.176 C 
BRANCH  27  28
HETATM   28  O   UNL     1     -42.296  61.201 -54.133  1.00  0.00    -0.400 OA
HETATM   29  H   UNL     1     -41.484  61.673 -54.388  1.00  0.00     0.209 HD
ENDBRANCH  27  28
ENDBRANCH  11  27
BRANCH   7  30
HETATM   30  N   UNL     1     -44.411  57.307 -57.528  1.00  0.00    -0.305 N 
HETATM   31  C   UNL     1     -43.434  57.918 -58.283  1.00  0.00     0.227 C 
HETATM   32  O   UNL     1     -42.297  58.183 -57.885  1.00  0.00    -0.273 OA
HETATM   33  H   UNL     1     -45.339  57.183 -57.899  1.00  0.00     0.171 HD
BRANCH  31  34
HETATM   34  C   UNL     1     -43.908  58.300 -59.711  1.00  0.00     0.078 C 
HETATM   35  C   UNL     1     -45.024  59.371 -59.910  1.00  0.00     0.014 C 
HETATM   36  C   UNL     1     -44.259  59.851 -61.155  1.00  0.00     0.002 C 
HETATM   37  C   UNL     1     -42.988  59.276 -60.506  1.00  0.00     0.014 C 
ENDBRANCH  31  34
ENDBRANCH   7  30
BRANCH  13  38
HETATM   38  O   UNL     1     -39.994  58.515 -52.425  1.00  0.00    -0.395 OA
HETATM   39  H   UNL     1     -39.077  58.822 -52.310  1.00  0.00     0.210 HD
ENDBRANCH  13  38
TORSDOF 9
ENDMDL
MODEL 2
REMARK VINA RESULT:      -8.0      2.885      6.428
REMARK  9 active torsions:
REMARK  status: ('A' for Active; 'I' for Inactive)
REMARK    1  A    between atoms: C_3  and  C_4 
REMARK    2  A    between atoms: C_4  and  C_5 
REMARK       I    between atoms: C_5  and  N_6 
REMARK    3  A    between atoms: N_6  and  C_7 
REMARK    4  A    between atoms: C_7  and  C_8 
REMARK    5  A    between atoms: C_17  and  N_18 
REMARK       I    between atoms: N_18  and  C_19 
REMARK    6  A    between atoms: C_19  and  C_20 
REMARK    7  A    between atoms: C_28  and  C_29 
REMARK    8  A    between atoms: C_29  and  O_30 
REMARK    9  A    between atoms: C_32  and  O_33 
ROOT
HETATM    1  C   UNL     1     -40.141  58.745 -52.923  1.00  0.00     0.016 C 
HETATM    2  C   UNL     1     -41.330  57.861 -52.428  1.00  0.00    -0.030 C 
HETATM    3  C   UNL     1     -42.684  58.337 -53.127  1.00  0.00     0.056 C 
HETATM    4  C   UNL     1     -42.798  57.758 -54.522  1.00  0.00     0.056 C 
HETATM    5  C   UNL     1     -41.938  56.806 -55.035  1.00  0.00     0.012 C 
HETATM    6  S   UNL     1     -42.385  56.396 -56.626  1.00  0.00    -0.055 SA
HETATM    7  C   UNL     1     -43.830  57.276 -56.396  1.00  0.00     0.173 C 
HETATM    8  N   UNL     1     -43.901  58.018 -55.319  1.00  0.00    -0.227 NA
HETATM    9  C   UNL     1     -40.816  56.157 -54.310  1.00  0.00     0.055 C 
HETATM   10  C   UNL     1     -40.995  56.349 -52.777  1.00  0.00     0.012 C 
HETATM   11  C   UNL     1     -41.902  55.253 -52.051  1.00  0.00     0.008 C 
HETATM   12  C   UNL     1     -41.012  53.986 -51.875  1.00  0.00     0.020 C 
HETATM   13  C   UNL     1     -42.311  55.729 -50.621  1.00  0.00     0.128 C 
HETATM   14  C   UNL     1     -41.359  56.779 -50.065  1.00  0.00     0.033 C 
HETATM   15  C   UNL     1     -41.418  58.068 -50.883  1.00  0.00     0.013 C 
ENDROOT
BRANCH   3  16
HETATM   16  C   UNL     1     -42.836  59.869 -53.133  1.00  0.00     0.114 C 
BRANCH  16  17
HETATM   17  C   UNL     1     -44.123  60.353 -52.495  1.00  0.00     0.218 C 
HETATM   18  N   UNL     1     -44.531  59.614 -51.417  1.00  0.00    -0.355 N 
HETATM   19  H   UNL     1     -43.786  59.208 -50.848  1.00  0.00     0.162 HD
HETATM   20  O   UNL     1     -44.754  61.297 -52.962  1.00  0.00    -0.274 OA
BRANCH  18  21
HETATM   21  C   UNL     1     -45.765  59.913 -50.733  1.00  0.00     0.187 C 
BRANCH  21  22
HETATM   22  C   UNL     1     -45.445  60.500 -49.406  1.00  0.00     0.070 A 
HETATM   23  O   UNL     1     -46.106  59.984 -48.326  1.00  0.00    -0.325 OA
HETATM   24  C   UNL     1     -45.667  60.657 -47.232  1.00  0.00     0.142 A 
HETATM   25  C   UNL     1     -44.734  61.602 -47.588  1.00  0.00     0.027 A 
HETATM   26  C   UNL     1     -44.596  61.506 -48.993  1.00  0.00     0.036 A 
ENDBRANCH  21  22
ENDBRANCH  18  21
ENDBRANCH  16  17
ENDBRANCH   3  16
BRANCH  11  27
HETATM   27  C   UNL     1     -43.184  54.807 -52.806  1.00  0.00     0.176 C 
BRANCH  27  28
HETATM   28  O   UNL     1     -43.985  53.907 -52.047  1.00  0.00    -0.400 OA
HETATM   29  H   UNL     1     -44.858  53.899 -52.476  1.00  0.00     0.209 HD
ENDBRANCH  27  28
ENDBRANCH  11  27
BRANCH   7  30
HETATM   30  N   UNL     1     -44.773  56.999 -57.344  1.00  0.00    -0.305 N 
HETATM   31  C   UNL     1     -45.050  57.877 -58.369  1.00  0.00     0.227 C 
HETATM   32  O   UNL     1     -44.337  58.830 -58.694  1.00  0.00    -0.273 OA
HETATM   33  H   UNL     1     -45.436  56.284 -57.092  1.00  0.00     0.171 HD
BRANCH  31  34
HETATM   34  C   UNL     1     -46.401  57.590 -59.078  1.00  0.00     0.078 C 
HETATM   35  C   UNL     1     -46.789  58.364 -60.375  1.00  0.00     0.014 C 
HETATM   36  C   UNL     1     -47.425  57.062 -60.891  1.00  0.00     0.002 C 
HETATM   37  C   UNL     1     -46.457  56.307 -59.962  1.00  0.00     0.014 C 
ENDBRANCH  31  34
ENDBRANCH   7  30
BRANCH  13  38
HETATM   38  O   UNL     1     -43.631  56.273 -50.623  1.00  0.00    -0.395 OA
HETATM   39  H   UNL     1     -43.857  56.526 -49.709  1.00  0.00     0.210 HD
ENDBRANCH  13  38
TORSDOF 9
ENDMDL
MODEL 3
REMARK VINA RESULT:      -7.7      2.350      6.961
REMARK  9 active torsions:
REMARK  status: ('A' for Active; 'I' for Inactive)
REMARK    1  A    between atoms: C_3  and  C_4 
REMARK    2  A    between atoms: C_4  and  C_5 
REMARK       I    between atoms: C_5  and  N_6 
REMARK    3  A    between atoms: N_6  and  C_7 
REMARK    4  A    between atoms: C_7  and  C_8 
REMARK    5  A    between atoms: C_17  and  N_18 
REMARK       I    between atoms: N_18  and  C_19 
REMARK    6  A    between atoms: C_19  and  C_20 
REMARK    7  A    between atoms: C_28  and  C_29 
REMARK    8  A    between atoms: C_29  and  O_30 
REMARK    9  A    between atoms: C_32  and  O_33 
ROOT
HETATM    1  C   UNL     1     -46.560  59.308 -57.337  1.00  0.00     0.016 C 
HETATM    2  C   UNL     1     -45.181  59.974 -57.027  1.00  0.00    -0.030 C 
HETATM    3  C   UNL     1     -44.473  59.212 -55.817  1.00  0.00     0.056 C 
HETATM    4  C   UNL     1     -43.785  57.954 -56.308  1.00  0.00     0.056 C 
HETATM    5  C   UNL     1     -43.641  57.624 -57.641  1.00  0.00     0.012 C 
HETATM    6  S   UNL     1     -42.812  56.146 -57.802  1.00  0.00    -0.055 SA
HETATM    7  C   UNL     1     -42.457  56.218 -56.133  1.00  0.00     0.173 C 
HETATM    8  N   UNL     1     -43.086  57.133 -55.438  1.00  0.00    -0.227 NA
HETATM    9  C   UNL     1     -44.069  58.449 -58.799  1.00  0.00     0.055 C 
HETATM   10  C   UNL     1     -44.301  59.918 -58.347  1.00  0.00     0.012 C 
HETATM   11  C   UNL     1     -43.004  60.849 -58.355  1.00  0.00     0.008 C 
HETATM   12  C   UNL     1     -42.758  61.256 -59.839  1.00  0.00     0.020 C 
HETATM   13  C   UNL     1     -43.260  62.166 -57.555  1.00  0.00     0.128 C 
HETATM   14  C   UNL     1     -44.741  62.502 -57.450  1.00  0.00     0.033 C 
HETATM   15  C   UNL     1     -45.488  61.453 -56.627  1.00  0.00     0.013 C 
ENDROOT
BRANCH   3  16
HETATM   16  C   UNL     1     -45.444  58.914 -54.660  1.00  0.00     0.114 C 
BRANCH  16  17
HETATM   17  C   UNL     1     -44.906  59.315 -53.301  1.00  0.00     0.218 C 
HETATM   18  N   UNL     1     -44.142  58.356 -52.690  1.00  0.00    -0.355 N 
HETATM   19  H   UNL     1     -43.595  57.760 -53.313  1.00  0.00     0.162 HD
HETATM   20  O   UNL     1     -45.194  60.395 -52.791  1.00  0.00    -0.274 OA
BRANCH  18  21
HETATM   21  C   UNL     1     -43.602  58.564 -51.369  1.00  0.00     0.187 C 
BRANCH  21  22
HETATM   22  C   UNL     1     -42.135  58.768 -51.480  1.00  0.00     0.070 A 
HETATM   23  O   UNL     1     -41.571  58.548 -52.705  1.00  0.00    -0.325 OA
HETATM   24  C   UNL     1     -40.241  58.789 -52.581  1.00  0.00     0.142 A 
HETATM   25  C   UNL     1     -39.935  59.160 -51.293  1.00  0.00     0.027 A 
HETATM   26  C   UNL     1     -41.157  59.139 -50.579  1.00  0.00     0.036 A 
ENDBRANCH  21  22
ENDBRANCH  18  21
ENDBRANCH  16  17
ENDBRANCH   3  16
BRANCH  11  27
HETATM   27  C   UNL     1     -41.689  60.207 -57.834  1.00  0.00     0.176 C 
BRANCH  27  28
HETATM   28  O   UNL     1     -40.629  61.149 -57.705  1.00  0.00    -0.400 OA
HETATM   29  H   UNL     1     -40.114  60.867 -56.929  1.00  0.00     0.209 HD
ENDBRANCH  27  28
ENDBRANCH  11  27
BRANCH   7  30
HETATM   30  N   UNL     1     -41.470  55.349 -55.765  1.00  0.00    -0.305 N 
HETATM   31  C   UNL     1     -41.750  54.158 -55.132  1.00  0.00     0.227 C 
HETATM   32  O   UNL     1     -42.866  53.637 -55.073  1.00  0.00    -0.273 OA
HETATM   33  H   UNL     1     -40.546  55.748 -55.715  1.00  0.00     0.171 HD
BRANCH  31  34
HETATM   34  C   UNL     1     -40.515  53.524 -54.436  1.00  0.00     0.078 C 
HETATM   35  C   UNL     1     -40.433  53.465 -52.881  1.00  0.00     0.014 C 
HETATM   36  C   UNL     1     -39.761  52.089 -53.028  1.00  0.00     0.002 C 
HETATM   37  C   UNL     1     -40.476  51.967 -54.385  1.00  0.00     0.014 C 
ENDBRANCH  31  34
ENDBRANCH   7  30
BRANCH  13  38
HETATM   38  O   UNL     1     -42.723  62.074 -56.235  1.00  0.00    -0.395 OA
HETATM   39  H   UNL     1     -41.797  61.777 -56.304  1.00  0.00     0.210 HD
ENDBRANCH  13  38
TORSDOF 9
ENDMDL
MODEL 4
REMARK VINA RESULT:      -7.7      3.418      6.423
REMARK  9 active torsions:
REMARK  status: ('A' for Active; 'I' for Inactive)
REMARK    1  A    between atoms: C_3  and  C_4 
REMARK    2  A    between atoms: C_4  and  C_5 
REMARK       I    between atoms: C_5  and  N_6 
REMARK    3  A    between atoms: N_6  and  C_7 
REMARK    4  A    between atoms: C_7  and  C_8 
REMARK    5  A    between atoms: C_17  and  N_18 
REMARK       I    between atoms: N_18  and  C_19 
REMARK    6  A    between atoms: C_19  and  C_20 
REMARK    7  A    between atoms: C_28  and  C_29 
REMARK    8  A    between atoms: C_29  and  O_30 
REMARK    9  A    between atoms: C_32  and  O_33 
ROOT
HETATM    1  C   UNL     1     -40.150  58.389 -53.213  1.00  0.00     0.016 C 
HETATM    2  C   UNL     1     -41.564  57.806 -53.532  1.00  0.00    -0.030 C 
HETATM    3  C   UNL     1     -42.462  57.814 -52.213  1.00  0.00     0.056 C 
HETATM    4  C   UNL     1     -43.053  59.190 -51.978  1.00  0.00     0.056 C 
HETATM    5  C   UNL     1     -42.969  60.231 -52.883  1.00  0.00     0.012 C 
HETATM    6  S   UNL     1     -43.754  61.613 -52.273  1.00  0.00    -0.055 SA
HETATM    7  C   UNL     1     -44.383  60.643 -51.017  1.00  0.00     0.173 C 
HETATM    8  N   UNL     1     -43.884  59.438 -50.898  1.00  0.00    -0.227 NA
HETATM    9  C   UNL     1     -42.356  60.170 -54.234  1.00  0.00     0.055 C 
HETATM   10  C   UNL     1     -42.210  58.689 -54.683  1.00  0.00     0.012 C 
HETATM   11  C   UNL     1     -43.491  58.061 -55.401  1.00  0.00     0.008 C 
HETATM   12  C   UNL     1     -43.486  58.594 -56.865  1.00  0.00     0.020 C 
HETATM   13  C   UNL     1     -43.378  56.505 -55.479  1.00  0.00     0.128 C 
HETATM   14  C   UNL     1     -41.937  56.023 -55.387  1.00  0.00     0.033 C 
HETATM   15  C   UNL     1     -41.334  56.340 -54.020  1.00  0.00     0.013 C 
ENDROOT
BRANCH   3  16
HETATM   16  C   UNL     1     -41.698  57.305 -50.977  1.00  0.00     0.114 C 
BRANCH  16  17
HETATM   17  C   UNL     1     -41.988  55.857 -50.641  1.00  0.00     0.218 C 
HETATM   18  N   UNL     1     -40.872  55.077 -50.491  1.00  0.00    -0.355 N 
HETATM   19  H   UNL     1     -40.049  55.546 -50.110  1.00  0.00     0.162 HD
HETATM   20  O   UNL     1     -43.139  55.433 -50.569  1.00  0.00    -0.274 OA
BRANCH  18  21
HETATM   21  C   UNL     1     -40.981  53.664 -50.222  1.00  0.00     0.187 C 
BRANCH  21  22
HETATM   22  C   UNL     1     -40.511  52.914 -51.415  1.00  0.00     0.070 A 
HETATM   23  O   UNL     1     -39.812  51.761 -51.185  1.00  0.00    -0.325 OA
HETATM   24  C   UNL     1     -39.485  51.246 -52.398  1.00  0.00     0.142 A 
HETATM   25  C   UNL     1     -39.958  52.049 -53.408  1.00  0.00     0.027 A 
HETATM   26  C   UNL     1     -40.615  53.130 -52.774  1.00  0.00     0.036 A 
ENDBRANCH  21  22
ENDBRANCH  18  21
ENDBRANCH  16  17
ENDBRANCH   3  16
BRANCH  11  27
HETATM   27  C   UNL     1     -44.872  58.423 -54.789  1.00  0.00     0.176 C 
BRANCH  27  28
HETATM   28  O   UNL     1     -45.955  57.792 -55.463  1.00  0.00    -0.400 OA
HETATM   29  H   UNL     1     -45.882  58.061 -56.396  1.00  0.00     0.209 HD
ENDBRANCH  27  28
ENDBRANCH  11  27
BRANCH   7  30
HETATM   30  N   UNL     1     -45.415  61.244 -50.353  1.00  0.00    -0.305 N 
HETATM   31  C   UNL     1     -45.203  62.035 -49.245  1.00  0.00     0.227 C 
HETATM   32  O   UNL     1     -44.109  62.492 -48.905  1.00  0.00    -0.273 OA
HETATM   33  H   UNL     1     -46.325  60.850 -50.532  1.00  0.00     0.171 HD
BRANCH  31  34
HETATM   34  C   UNL     1     -46.486  62.275 -48.405  1.00  0.00     0.078 C 
HETATM   35  C   UNL     1     -46.562  61.785 -46.927  1.00  0.00     0.014 C 
HETATM   36  C   UNL     1     -47.360  63.061 -46.607  1.00  0.00     0.002 C 
HETATM   37  C   UNL     1     -46.669  63.709 -47.820  1.00  0.00     0.014 C 
ENDBRANCH  31  34
ENDBRANCH   7  30
BRANCH  13  38
HETATM   38  O   UNL     1     -44.129  55.886 -54.434  1.00  0.00    -0.395 OA
HETATM   39  H   UNL     1     -43.588  55.898 -53.623  1.00  0.00     0.210 HD
ENDBRANCH  13  38
TORSDOF 9
ENDMDL
MODEL 5
REMARK VINA RESULT:      -7.7      3.147      6.894
REMARK  9 active torsions:
REMARK  status: ('A' for Active; 'I' for Inactive)
REMARK    1  A    between atoms: C_3  and  C_4 
REMARK    2  A    between atoms: C_4  and  C_5 
REMARK       I    between atoms: C_5  and  N_6 
REMARK    3  A    between atoms: N_6  and  C_7 
REMARK    4  A    between atoms: C_7  and  C_8 
REMARK    5  A    between atoms: C_17  and  N_18 
REMARK       I    between atoms: N_18  and  C_19 
REMARK    6  A    between atoms: C_19  and  C_20 
REMARK    7  A    between atoms: C_28  and  C_29 
REMARK    8  A    between atoms: C_29  and  O_30 
REMARK    9  A    between atoms: C_32  and  O_33 
ROOT
HETATM    1  C   UNL     1     -42.926  62.905 -53.082  1.00  0.00     0.016 C 
HETATM    2  C   UNL     1     -44.116  61.964 -52.709  1.00  0.00    -0.030 C 
HETATM    3  C   UNL     1     -43.899  60.529 -53.374  1.00  0.00     0.056 C 
HETATM    4  C   UNL     1     -42.944  59.695 -52.544  1.00  0.00     0.056 C 
HETATM    5  C   UNL     1     -42.480  60.065 -51.296  1.00  0.00     0.012 C 
HETATM    6  S   UNL     1     -41.435  58.875 -50.673  1.00  0.00    -0.055 SA
HETATM    7  C   UNL     1     -41.913  57.852 -51.954  1.00  0.00     0.173 C 
HETATM    8  N   UNL     1     -42.614  58.401 -52.914  1.00  0.00    -0.227 NA
HETATM    9  C   UNL     1     -42.871  61.284 -50.543  1.00  0.00     0.055 C 
HETATM   10  C   UNL     1     -44.188  61.868 -51.126  1.00  0.00     0.012 C 
HETATM   11  C   UNL     1     -45.535  61.250 -50.530  1.00  0.00     0.008 C 
HETATM   12  C   UNL     1     -45.753  61.919 -49.140  1.00  0.00     0.020 C 
HETATM   13  C   UNL     1     -46.761  61.628 -51.420  1.00  0.00     0.128 C 
HETATM   14  C   UNL     1     -46.509  62.875 -52.256  1.00  0.00     0.033 C 
HETATM   15  C   UNL     1     -45.404  62.636 -53.284  1.00  0.00     0.013 C 
ENDROOT
BRANCH   3  16
HETATM   16  C   UNL     1     -43.443  60.623 -54.841  1.00  0.00     0.114 C 
BRANCH  16  17
HETATM   17  C   UNL     1     -43.922  59.468 -55.698  1.00  0.00     0.218 C 
HETATM   18  N   UNL     1     -42.973  58.509 -55.934  1.00  0.00    -0.355 N 
HETATM   19  H   UNL     1     -42.297  58.358 -55.184  1.00  0.00     0.162 HD
HETATM   20  O   UNL     1     -45.054  59.449 -56.173  1.00  0.00    -0.274 OA
BRANCH  18  21
HETATM   21  C   UNL     1     -43.256  57.373 -56.777  1.00  0.00     0.187 C 
BRANCH  21  22
HETATM   22  C   UNL     1     -43.132  56.135 -55.965  1.00  0.00     0.070 A 
HETATM   23  O   UNL     1     -43.932  56.036 -54.861  1.00  0.00    -0.325 OA
HETATM   24  C   UNL     1     -43.657  54.842 -54.276  1.00  0.00     0.142 A 
HETATM   25  C   UNL     1     -42.691  54.168 -54.984  1.00  0.00     0.027 A 
HETATM   26  C   UNL     1     -42.345  55.006 -56.070  1.00  0.00     0.036 A 
ENDBRANCH  21  22
ENDBRANCH  18  21
ENDBRANCH  16  17
ENDBRANCH   3  16
BRANCH  11  27
HETATM   27  C   UNL     1     -45.548  59.713 -50.303  1.00  0.00     0.176 C 
BRANCH  27  28
HETATM   28  O   UNL     1     -45.867  59.358 -48.962  1.00  0.00    -0.400 OA
HETATM   29  H   UNL     1     -45.144  58.780 -48.660  1.00  0.00     0.209 HD
ENDBRANCH  27  28
ENDBRANCH  11  27
BRANCH   7  30
HETATM   30  N   UNL     1     -41.569  56.547 -51.744  1.00  0.00    -0.305 N 
HETATM   31  C   UNL     1     -42.369  55.695 -51.015  1.00  0.00     0.227 C 
HETATM   32  O   UNL     1     -43.546  55.914 -50.716  1.00  0.00    -0.273 OA
HETATM   33  H   UNL     1     -40.597  56.332 -51.893  1.00  0.00     0.171 HD
BRANCH  31  34
HETATM   34  C   UNL     1     -41.633  54.412 -50.543  1.00  0.00     0.078 C 
HETATM   35  C   UNL     1     -40.964  53.461 -51.582  1.00  0.00     0.014 C 
HETATM   36  C   UNL     1     -39.834  53.237 -50.562  1.00  0.00     0.002 C 
HETATM   37  C   UNL     1     -40.197  54.611 -49.970  1.00  0.00     0.014 C 
ENDBRANCH  31  34
ENDBRANCH   7  30
BRANCH  13  38
HETATM   38  O   UNL     1     -47.104  60.556 -52.298  1.00  0.00    -0.395 OA
HETATM   39  H   UNL     1     -46.637  60.693 -53.143  1.00  0.00     0.210 HD
ENDBRANCH  13  38
TORSDOF 9
ENDMDL
MODEL 6
REMARK VINA RESULT:      -7.6      2.856      6.878
REMARK  9 active torsions:
REMARK  status: ('A' for Active; 'I' for Inactive)
REMARK    1  A    between atoms: C_3  and  C_4 
REMARK    2  A    between atoms: C_4  and  C_5 
REMARK       I    between atoms: C_5  and  N_6 
REMARK    3  A    between atoms: N_6  and  C_7 
REMARK    4  A    between atoms: C_7  and  C_8 
REMARK    5  A    between atoms: C_17  and  N_18 
REMARK       I    between atoms: N_18  and  C_19 
REMARK    6  A    between atoms: C_19  and  C_20 
REMARK    7  A    between atoms: C_28  and  C_29 
REMARK    8  A    between atoms: C_29  and  O_30 
REMARK    9  A    between atoms: C_32  and  O_33 
ROOT
HETATM    1  C   UNL     1     -42.880  63.371 -52.985  1.00  0.00     0.016 C 
HETATM    2  C   UNL     1     -43.940  62.228 -52.882  1.00  0.00    -0.030 C 
HETATM    3  C   UNL     1     -43.649  61.118 -53.991  1.00  0.00     0.056 C 
HETATM    4  C   UNL     1     -42.551  60.179 -53.532  1.00  0.00     0.056 C 
HETATM    5  C   UNL     1     -42.017  60.180 -52.258  1.00  0.00     0.012 C 
HETATM    6  S   UNL     1     -40.815  58.983 -52.116  1.00  0.00    -0.055 SA
HETATM    7  C   UNL     1     -41.306  58.378 -53.635  1.00  0.00     0.173 C 
HETATM    8  N   UNL     1     -42.136  59.121 -54.324  1.00  0.00    -0.227 NA
HETATM    9  C   UNL     1     -42.453  61.038 -51.127  1.00  0.00     0.055 C 
HETATM   10  C   UNL     1     -43.865  61.621 -51.416  1.00  0.00     0.012 C 
HETATM   11  C   UNL     1     -45.091  60.692 -50.988  1.00  0.00     0.008 C 
HETATM   12  C   UNL     1     -45.249  60.848 -49.446  1.00  0.00     0.020 C 
HETATM   13  C   UNL     1     -46.420  61.190 -51.639  1.00  0.00     0.128 C 
HETATM   14  C   UNL     1     -46.359  62.659 -52.031  1.00  0.00     0.033 C 
HETATM   15  C   UNL     1     -45.330  62.894 -53.136  1.00  0.00     0.013 C 
ENDROOT
BRANCH   3  16
HETATM   16  C   UNL     1     -43.333  61.731 -55.368  1.00  0.00     0.114 C 
BRANCH  16  17
HETATM   17  C   UNL     1     -44.081  61.072 -56.509  1.00  0.00     0.218 C 
HETATM   18  N   UNL     1     -43.550  59.878 -56.918  1.00  0.00    -0.355 N 
HETATM   19  H   UNL     1     -43.107  59.315 -56.191  1.00  0.00     0.162 HD
HETATM   20  O   UNL     1     -45.048  61.614 -57.039  1.00  0.00    -0.274 OA
BRANCH  18  21
HETATM   21  C   UNL     1     -44.115  59.153 -58.030  1.00  0.00     0.187 C 
BRANCH  21  22
HETATM   22  C   UNL     1     -43.713  57.727 -57.923  1.00  0.00     0.070 A 
HETATM   23  O   UNL     1     -44.041  56.912 -58.970  1.00  0.00    -0.325 OA
HETATM   24  C   UNL     1     -43.585  55.670 -58.666  1.00  0.00     0.142 A 
HETATM   25  C   UNL     1     -42.970  55.669 -57.438  1.00  0.00     0.027 A 
HETATM   26  C   UNL     1     -43.058  56.995 -56.953  1.00  0.00     0.036 A 
ENDBRANCH  21  22
ENDBRANCH  18  21
ENDBRANCH  16  17
ENDBRANCH   3  16
BRANCH  11  27
HETATM   27  C   UNL     1     -44.941  59.173 -51.279  1.00  0.00     0.176 C 
BRANCH  27  28
HETATM   28  O   UNL     1     -45.327  58.361 -50.175  1.00  0.00    -0.400 OA
HETATM   29  H   UNL     1     -44.523  57.886 -49.898  1.00  0.00     0.209 HD
ENDBRANCH  27  28
ENDBRANCH  11  27
BRANCH   7  30
HETATM   30  N   UNL     1     -40.825  57.124 -53.884  1.00  0.00    -0.305 N 
HETATM   31  C   UNL     1     -41.573  55.996 -53.627  1.00  0.00     0.227 C 
HETATM   32  O   UNL     1     -42.788  55.988 -53.414  1.00  0.00    -0.273 OA
HETATM   33  H   UNL     1     -39.824  57.061 -53.982  1.00  0.00     0.171 HD
BRANCH  31  34
HETATM   34  C   UNL     1     -40.728  54.694 -53.578  1.00  0.00     0.078 C 
HETATM   35  C   UNL     1     -41.428  53.304 -53.495  1.00  0.00     0.014 C 
HETATM   36  C   UNL     1     -40.323  52.758 -54.415  1.00  0.00     0.002 C 
HETATM   37  C   UNL     1     -40.150  54.195 -54.938  1.00  0.00     0.014 C 
ENDBRANCH  31  34
ENDBRANCH   7  30
BRANCH  13  38
HETATM   38  O   UNL     1     -46.736  60.424 -52.802  1.00  0.00    -0.395 OA
HETATM   39  H   UNL     1     -46.337  59.541 -52.703  1.00  0.00     0.210 HD
ENDBRANCH  13  38
TORSDOF 9
ENDMDL
MODEL 7
REMARK VINA RESULT:      -7.5      2.940      8.201
REMARK  9 active torsions:
REMARK  status: ('A' for Active; 'I' for Inactive)
REMARK    1  A    between atoms: C_3  and  C_4 
REMARK    2  A    between atoms: C_4  and  C_5 
REMARK       I    between atoms: C_5  and  N_6 
REMARK    3  A    between atoms: N_6  and  C_7 
REMARK    4  A    between atoms: C_7  and  C_8 
REMARK    5  A    between atoms: C_17  and  N_18 
REMARK       I    between atoms: N_18  and  C_19 
REMARK    6  A    between atoms: C_19  and  C_20 
REMARK    7  A    between atoms: C_28  and  C_29 
REMARK    8  A    between atoms: C_29  and  O_30 
REMARK    9  A    between atoms: C_32  and  O_33 
ROOT
HETATM    1  C   UNL     1     -41.864  60.201 -57.891  1.00  0.00     0.016 C 
HETATM    2  C   UNL     1     -43.186  59.548 -57.374  1.00  0.00    -0.030 C 
HETATM    3  C   UNL     1     -43.022  57.961 -57.325  1.00  0.00     0.056 C 
HETATM    4  C   UNL     1     -42.289  57.539 -56.067  1.00  0.00     0.056 C 
HETATM    5  C   UNL     1     -41.978  58.397 -55.030  1.00  0.00     0.012 C 
HETATM    6  S   UNL     1     -41.163  57.562 -53.791  1.00  0.00    -0.055 SA
HETATM    7  C   UNL     1     -41.550  56.101 -54.586  1.00  0.00     0.173 C 
HETATM    8  N   UNL     1     -42.043  56.203 -55.795  1.00  0.00    -0.227 NA
HETATM    9  C   UNL     1     -42.348  59.833 -54.940  1.00  0.00     0.055 C 
HETATM   10  C   UNL     1     -43.499  60.147 -55.937  1.00  0.00     0.012 C 
HETATM   11  C   UNL     1     -44.974  59.886 -55.385  1.00  0.00     0.008 C 
HETATM   12  C   UNL     1     -45.325  61.095 -54.466  1.00  0.00     0.020 C 
HETATM   13  C   UNL     1     -46.012  59.880 -56.552  1.00  0.00     0.128 C 
HETATM   14  C   UNL     1     -45.513  60.636 -57.775  1.00  0.00     0.033 C 
HETATM   15  C   UNL     1     -44.300  59.944 -58.395  1.00  0.00     0.013 C 
ENDROOT
BRANCH   3  16
HETATM   16  C   UNL     1     -42.349  57.400 -58.590  1.00  0.00     0.114 C 
BRANCH  16  17
HETATM   17  C   UNL     1     -43.263  56.526 -59.425  1.00  0.00     0.218 C 
HETATM   18  N   UNL     1     -44.576  56.547 -59.034  1.00  0.00    -0.355 N 
HETATM   19  H   UNL     1     -44.910  57.430 -58.644  1.00  0.00     0.162 HD
HETATM   20  O   UNL     1     -42.827  55.827 -60.335  1.00  0.00    -0.274 OA
BRANCH  18  21
HETATM   21  C   UNL     1     -45.563  55.728 -59.694  1.00  0.00     0.187 C 
BRANCH  21  22
HETATM   22  C   UNL     1     -46.513  56.613 -60.416  1.00  0.00     0.070 A 
HETATM   23  O   UNL     1     -47.275  56.036 -61.393  1.00  0.00    -0.325 OA
HETATM   24  C   UNL     1     -48.060  57.014 -61.914  1.00  0.00     0.142 A 
HETATM   25  C   UNL     1     -47.815  58.214 -61.292  1.00  0.00     0.027 A 
HETATM   26  C   UNL     1     -46.810  57.958 -60.329  1.00  0.00     0.036 A 
ENDBRANCH  21  22
ENDBRANCH  18  21
ENDBRANCH  16  17
ENDBRANCH   3  16
BRANCH  11  27
HETATM   27  C   UNL     1     -45.178  58.599 -54.539  1.00  0.00     0.176 C 
BRANCH  27  28
HETATM   28  O   UNL     1     -45.154  58.851 -53.139  1.00  0.00    -0.400 OA
HETATM   29  H   UNL     1     -44.243  59.124 -52.932  1.00  0.00     0.209 HD
ENDBRANCH  27  28
ENDBRANCH  11  27
BRANCH   7  30
HETATM   30  N   UNL     1     -41.377  55.005 -53.790  1.00  0.00    -0.305 N 
HETATM   31  C   UNL     1     -42.328  54.617 -52.873  1.00  0.00     0.227 C 
HETATM   32  O   UNL     1     -43.493  55.020 -52.850  1.00  0.00    -0.273 OA
HETATM   33  H   UNL     1     -40.425  54.684 -53.706  1.00  0.00     0.171 HD
BRANCH  31  34
HETATM   34  C   UNL     1     -41.785  53.631 -51.803  1.00  0.00     0.078 C 
HETATM   35  C   UNL     1     -40.348  53.042 -51.932  1.00  0.00     0.014 C 
HETATM   36  C   UNL     1     -40.232  53.143 -50.402  1.00  0.00     0.002 C 
HETATM   37  C   UNL     1     -41.284  54.265 -50.470  1.00  0.00     0.014 C 
ENDBRANCH  31  34
ENDBRANCH   7  30
BRANCH  13  38
HETATM   38  O   UNL     1     -46.330  58.544 -56.944  1.00  0.00    -0.395 OA
HETATM   39  H   UNL     1     -46.949  58.174 -56.289  1.00  0.00     0.210 HD
ENDBRANCH  13  38
TORSDOF 9
ENDMDL
MODEL 8
REMARK VINA RESULT:      -7.5      2.976      3.649
REMARK  9 active torsions:
REMARK  status: ('A' for Active; 'I' for Inactive)
REMARK    1  A    between atoms: C_3  and  C_4 
REMARK    2  A    between atoms: C_4  and  C_5 
REMARK       I    between atoms: C_5  and  N_6 
REMARK    3  A    between atoms: N_6  and  C_7 
REMARK    4  A    between atoms: C_7  and  C_8 
REMARK    5  A    between atoms: C_17  and  N_18 
REMARK       I    between atoms: N_18  and  C_19 
REMARK    6  A    between atoms: C_19  and  C_20 
REMARK    7  A    between atoms: C_28  and  C_29 
REMARK    8  A    between atoms: C_29  and  O_30 
REMARK    9  A    between atoms: C_32  and  O_33 
ROOT
HETATM    1  C   UNL     1     -45.117  57.115 -54.585  1.00  0.00     0.016 C 
HETATM    2  C   UNL     1     -44.403  58.134 -53.640  1.00  0.00    -0.030 C 
HETATM    3  C   UNL     1     -42.942  58.454 -54.196  1.00  0.00     0.056 C 
HETATM    4  C   UNL     1     -43.006  59.486 -55.305  1.00  0.00     0.056 C 
HETATM    5  C   UNL     1     -44.151  60.179 -55.649  1.00  0.00     0.012 C 
HETATM    6  S   UNL     1     -43.833  61.252 -56.932  1.00  0.00    -0.055 SA
HETATM    7  C   UNL     1     -42.169  60.930 -56.726  1.00  0.00     0.173 C 
HETATM    8  N   UNL     1     -41.856  59.936 -55.932  1.00  0.00    -0.227 NA
HETATM    9  C   UNL     1     -45.469  60.082 -54.972  1.00  0.00     0.055 C 
HETATM   10  C   UNL     1     -45.298  59.444 -53.565  1.00  0.00     0.012 C 
HETATM   11  C   UNL     1     -44.938  60.463 -52.390  1.00  0.00     0.008 C 
HETATM   12  C   UNL     1     -46.266  61.177 -51.998  1.00  0.00     0.020 C 
HETATM   13  C   UNL     1     -44.437  59.697 -51.124  1.00  0.00     0.128 C 
HETATM   14  C   UNL     1     -44.916  58.252 -51.094  1.00  0.00     0.033 C 
HETATM   15  C   UNL     1     -44.310  57.446 -52.241  1.00  0.00     0.013 C 
ENDROOT
BRANCH   3  16
HETATM   16  C   UNL     1     -42.191  57.186 -54.642  1.00  0.00     0.114 C 
BRANCH  16  17
HETATM   17  C   UNL     1     -41.381  56.542 -53.535  1.00  0.00     0.218 C 
HETATM   18  N   UNL     1     -41.451  55.175 -53.507  1.00  0.00    -0.355 N 
HETATM   19  H   UNL     1     -41.556  54.715 -54.412  1.00  0.00     0.162 HD
HETATM   20  O   UNL     1     -40.767  57.218 -52.714  1.00  0.00    -0.274 OA
BRANCH  18  21
HETATM   21  C   UNL     1     -40.779  54.415 -52.480  1.00  0.00     0.187 C 
BRANCH  21  22
HETATM   22  C   UNL     1     -40.402  53.091 -53.037  1.00  0.00     0.070 A 
HETATM   23  O   UNL     1     -39.928  52.161 -52.153  1.00  0.00    -0.325 OA
HETATM   24  C   UNL     1     -39.648  51.041 -52.866  1.00  0.00     0.142 A 
HETATM   25  C   UNL     1     -39.931  51.232 -54.198  1.00  0.00     0.027 A 
HETATM   26  C   UNL     1     -40.411  52.558 -54.310  1.00  0.00     0.036 A 
ENDBRANCH  21  22
ENDBRANCH  18  21
ENDBRANCH  16  17
ENDBRANCH   3  16
BRANCH  11  27
HETATM   27  C   UNL     1     -43.907  61.574 -52.731  1.00  0.00     0.176 C 
BRANCH  27  28
HETATM   28  O   UNL     1     -43.670  62.458 -51.640  1.00  0.00    -0.400 OA
HETATM   29  H   UNL     1     -42.925  63.022 -51.911  1.00  0.00     0.209 HD
ENDBRANCH  27  28
ENDBRANCH  11  27
BRANCH   7  30
HETATM   30  N   UNL     1     -41.373  61.840 -57.360  1.00  0.00    -0.305 N 
HETATM   31  C   UNL     1     -40.968  61.665 -58.665  1.00  0.00     0.227 C 
HETATM   32  O   UNL     1     -41.465  60.860 -59.456  1.00  0.00    -0.273 OA
HETATM   33  H   UNL     1     -40.875  62.470 -56.752  1.00  0.00     0.171 HD
BRANCH  31  34
HETATM   34  C   UNL     1     -39.763  62.560 -59.062  1.00  0.00     0.078 C 
HETATM   35  C   UNL     1     -39.622  63.088 -60.522  1.00  0.00     0.014 C 
HETATM   36  C   UNL     1     -39.074  64.399 -59.933  1.00  0.00     0.002 C 
HETATM   37  C   UNL     1     -39.852  64.061 -58.649  1.00  0.00     0.014 C 
ENDBRANCH  31  34
ENDBRANCH   7  30
BRANCH  13  38
HETATM   38  O   UNL     1     -43.011  59.703 -51.055  1.00  0.00    -0.395 OA
HETATM   39  H   UNL     1     -42.737  60.444 -50.486  1.00  0.00     0.210 HD
ENDBRANCH  13  38
TORSDOF 9
ENDMDL
MODEL 9
REMARK VINA RESULT:      -7.2      2.305      3.056
REMARK  9 active torsions:
REMARK  status: ('A' for Active; 'I' for Inactive)
REMARK    1  A    between atoms: C_3  and  C_4 
REMARK    2  A    between atoms: C_4  and  C_5 
REMARK       I    between atoms: C_5  and  N_6 
REMARK    3  A    between atoms: N_6  and  C_7 
REMARK    4  A    between atoms: C_7  and  C_8 
REMARK    5  A    between atoms: C_17  and  N_18 
REMARK       I    between atoms: N_18  and  C_19 
REMARK    6  A    between atoms: C_19  and  C_20 
REMARK    7  A    between atoms: C_28  and  C_29 
REMARK    8  A    between atoms: C_29  and  O_30 
REMARK    9  A    between atoms: C_32  and  O_33 
ROOT
HETATM    1  C   UNL     1     -44.833  56.439 -54.302  1.00  0.00     0.016 C 
HETATM    2  C   UNL     1     -43.606  57.330 -53.926  1.00  0.00    -0.030 C 
HETATM    3  C   UNL     1     -42.564  57.354 -55.135  1.00  0.00     0.056 C 
HETATM    4  C   UNL     1     -42.996  58.349 -56.193  1.00  0.00     0.056 C 
HETATM    5  C   UNL     1     -44.044  59.236 -56.036  1.00  0.00     0.012 C 
HETATM    6  S   UNL     1     -44.224  60.195 -57.431  1.00  0.00    -0.055 SA
HETATM    7  C   UNL     1     -42.739  59.571 -57.995  1.00  0.00     0.173 C 
HETATM    8  N   UNL     1     -42.238  58.557 -57.333  1.00  0.00    -0.227 NA
HETATM    9  C   UNL     1     -44.870  59.408 -54.815  1.00  0.00     0.055 C 
HETATM   10  C   UNL     1     -44.142  58.787 -53.590  1.00  0.00     0.012 C 
HETATM   11  C   UNL     1     -43.109  59.750 -52.845  1.00  0.00     0.008 C 
HETATM   12  C   UNL     1     -43.958  60.712 -51.960  1.00  0.00     0.020 C 
HETATM   13  C   UNL     1     -42.185  58.937 -51.884  1.00  0.00     0.128 C 
HETATM   14  C   UNL     1     -42.803  57.610 -51.469  1.00  0.00     0.033 C 
HETATM   15  C   UNL     1     -42.957  56.673 -52.666  1.00  0.00     0.013 C 
ENDROOT
BRANCH   3  16
HETATM   16  C   UNL     1     -42.325  55.955 -55.733  1.00  0.00     0.114 C 
BRANCH  16  17
HETATM   17  C   UNL     1     -41.158  55.220 -55.106  1.00  0.00     0.218 C 
HETATM   18  N   UNL     1     -41.362  53.877 -54.936  1.00  0.00    -0.355 N 
HETATM   19  H   UNL     1     -41.948  53.423 -55.638  1.00  0.00     0.162 HD
HETATM   20  O   UNL     1     -40.147  55.816 -54.741  1.00  0.00    -0.274 OA
BRANCH  18  21
HETATM   21  C   UNL     1     -40.366  53.047 -54.303  1.00  0.00     0.187 C 
BRANCH  21  22
HETATM   22  C   UNL     1     -40.593  53.064 -52.835  1.00  0.00     0.070 A 
HETATM   23  O   UNL     1     -39.673  52.416 -52.059  1.00  0.00    -0.325 OA
HETATM   24  C   UNL     1     -40.071  52.556 -50.769  1.00  0.00     0.142 A 
HETATM   25  C   UNL     1     -41.236  53.281 -50.699  1.00  0.00     0.027 A 
HETATM   26  C   UNL     1     -41.578  53.603 -52.033  1.00  0.00     0.036 A 
ENDBRANCH  21  22
ENDBRANCH  18  21
ENDBRANCH  16  17
ENDBRANCH   3  16
BRANCH  11  27
HETATM   27  C   UNL     1     -42.215  60.637 -53.754  1.00  0.00     0.176 C 
BRANCH  27  28
HETATM   28  O   UNL     1     -42.663  61.987 -53.818  1.00  0.00    -0.400 OA
HETATM   29  H   UNL     1     -43.318  62.085 -53.105  1.00  0.00     0.209 HD
ENDBRANCH  27  28
ENDBRANCH  11  27
BRANCH   7  30
HETATM   30  N   UNL     1     -42.218  60.298 -59.028  1.00  0.00    -0.305 N 
HETATM   31  C   UNL     1     -41.320  61.320 -58.814  1.00  0.00     0.227 C 
HETATM   32  O   UNL     1     -40.705  61.511 -57.762  1.00  0.00    -0.273 OA
HETATM   33  H   UNL     1     -42.734  60.243 -59.891  1.00  0.00     0.171 HD
BRANCH  31  34
HETATM   34  C   UNL     1     -41.171  62.273 -60.031  1.00  0.00     0.078 C 
HETATM   35  C   UNL     1     -39.765  62.795 -60.454  1.00  0.00     0.014 C 
HETATM   36  C   UNL     1     -40.227  62.679 -61.917  1.00  0.00     0.002 C 
HETATM   37  C   UNL     1     -41.223  61.607 -61.440  1.00  0.00     0.014 C 
ENDBRANCH  31  34
ENDBRANCH   7  30
BRANCH  13  38
HETATM   38  O   UNL     1     -40.920  58.676 -52.493  1.00  0.00    -0.395 OA
HETATM   39  H   UNL     1     -40.896  57.737 -52.755  1.00  0.00     0.210 HD
ENDBRANCH  13  38
TORSDOF 9
ENDMDL
MODEL 10
REMARK VINA RESULT:      -7.1      1.437      2.047
REMARK  9 active torsions:
REMARK  status: ('A' for Active; 'I' for Inactive)
REMARK    1  A    between atoms: C_3  and  C_4 
REMARK    2  A    between atoms: C_4  and  C_5 
REMARK       I    between atoms: C_5  and  N_6 
REMARK    3  A    between atoms: N_6  and  C_7 
REMARK    4  A    between atoms: C_7  and  C_8 
REMARK    5  A    between atoms: C_17  and  N_18 
REMARK       I    between atoms: N_18  and  C_19 
REMARK    6  A    between atoms: C_19  and  C_20 
REMARK    7  A    between atoms: C_28  and  C_29 
REMARK    8  A    between atoms: C_29  and  O_30 
REMARK    9  A    between atoms: C_32  and  O_33 
ROOT
HETATM    1  C   UNL     1     -44.341  56.440 -52.096  1.00  0.00     0.016 C 
HETATM    2  C   UNL     1     -43.127  57.243 -52.664  1.00  0.00    -0.030 C 
HETATM    3  C   UNL     1     -42.722  56.669 -54.097  1.00  0.00     0.056 C 
HETATM    4  C   UNL     1     -43.631  57.230 -55.173  1.00  0.00     0.056 C 
HETATM    5  C   UNL     1     -44.554  58.235 -54.957  1.00  0.00     0.012 C 
HETATM    6  S   UNL     1     -45.381  58.602 -56.399  1.00  0.00    -0.055 SA
HETATM    7  C   UNL     1     -44.259  57.625 -57.236  1.00  0.00     0.173 C 
HETATM    8  N   UNL     1     -43.461  56.887 -56.504  1.00  0.00    -0.227 NA
HETATM    9  C   UNL     1     -44.771  58.966 -53.683  1.00  0.00     0.055 C 
HETATM   10  C   UNL     1     -43.546  58.773 -52.745  1.00  0.00     0.012 C 
HETATM   11  C   UNL     1     -42.349  59.808 -52.961  1.00  0.00     0.008 C 
HETATM   12  C   UNL     1     -42.779  61.135 -52.266  1.00  0.00     0.020 C 
HETATM   13  C   UNL     1     -41.052  59.315 -52.245  1.00  0.00     0.128 C 
HETATM   14  C   UNL     1     -41.348  58.338 -51.116  1.00  0.00     0.033 C 
HETATM   15  C   UNL     1     -41.955  57.042 -51.651  1.00  0.00     0.013 C 
ENDROOT
BRANCH   3  16
HETATM   16  C   UNL     1     -42.688  55.130 -54.126  1.00  0.00     0.114 C 
BRANCH  16  17
HETATM   17  C   UNL     1     -41.367  54.546 -53.671  1.00  0.00     0.218 C 
HETATM   18  N   UNL     1     -41.477  53.592 -52.694  1.00  0.00    -0.355 N 
HETATM   19  H   UNL     1     -42.319  53.015 -52.729  1.00  0.00     0.162 HD
HETATM   20  O   UNL     1     -40.298  54.952 -54.120  1.00  0.00    -0.274 OA
BRANCH  18  21
HETATM   21  C   UNL     1     -40.307  52.978 -52.117  1.00  0.00     0.187 C 
BRANCH  21  22
HETATM   22  C   UNL     1     -40.243  53.334 -50.676  1.00  0.00     0.070 A 
HETATM   23  O   UNL     1     -40.663  52.386 -49.785  1.00  0.00    -0.325 OA
HETATM   24  C   UNL     1     -40.520  52.916 -48.543  1.00  0.00     0.142 A 
HETATM   25  C   UNL     1     -40.017  54.193 -48.617  1.00  0.00     0.027 A 
HETATM   26  C   UNL     1     -39.845  54.467 -49.995  1.00  0.00     0.036 A 
ENDBRANCH  21  22
ENDBRANCH  18  21
ENDBRANCH  16  17
ENDBRANCH   3  16
BRANCH  11  27
HETATM   27  C   UNL     1     -41.995  60.158 -54.432  1.00  0.00     0.176 C 
BRANCH  27  28
HETATM   28  O   UNL     1     -42.496  61.429 -54.831  1.00  0.00    -0.400 OA
HETATM   29  H   UNL     1     -43.244  61.620 -54.239  1.00  0.00     0.209 HD
ENDBRANCH  27  28
ENDBRANCH  11  27
BRANCH   7  30
HETATM   30  N   UNL     1     -44.285  57.828 -58.586  1.00  0.00    -0.305 N 
HETATM   31  C   UNL     1     -43.370  58.642 -59.215  1.00  0.00     0.227 C 
HETATM   32  O   UNL     1     -42.317  59.041 -58.712  1.00  0.00    -0.273 OA
HETATM   33  H   UNL     1     -45.157  57.598 -59.036  1.00  0.00     0.171 HD
BRANCH  31  34
HETATM   34  C   UNL     1     -43.805  59.071 -60.643  1.00  0.00     0.078 C 
HETATM   35  C   UNL     1     -45.050  59.986 -60.845  1.00  0.00     0.014 C 
HETATM   36  C   UNL     1     -44.288  60.671 -61.992  1.00  0.00     0.002 C 
HETATM   37  C   UNL     1     -42.989  60.229 -61.294  1.00  0.00     0.014 C 
ENDBRANCH  31  34
ENDBRANCH   7  30
BRANCH  13  38
HETATM   38  O   UNL     1     -40.168  58.681 -53.170  1.00  0.00    -0.395 OA
HETATM   39  H   UNL     1     -39.438  58.278 -52.667  1.00  0.00     0.210 HD
ENDBRANCH  13  38
TORSDOF 9
ENDMDL
