MODEL 1
REMARK VINA RESULT:      -7.7      0.000      0.000
REMARK  4 active torsions:
REMARK  status: ('A' for Active; 'I' for Inactive)
REMARK    1  A    between atoms: C_6  and  N_7 
REMARK       I    between atoms: N_7  and  C_8 
REMARK    2  A    between atoms: C_8  and  C_9 
REMARK    3  A    between atoms: C_9  and  S_10 
REMARK    4  A    between atoms: S_10  and  C_11 
ROOT
HETATM    1  C   UNL     1     -39.453  49.960 -52.291  1.00  0.00     0.001 A 
HETATM    2  C   UNL     1     -39.618  51.167 -51.616  1.00  0.00     0.018 A 
HETATM    3  C   UNL     1     -40.076  52.302 -52.306  1.00  0.00     0.049 A 
HETATM    4  C   UNL     1     -40.361  52.243 -53.669  1.00  0.00     0.024 A 
HETATM    5  S   UNL     1     -40.908  53.614 -54.652  1.00  0.00    -0.053 SA
HETATM    6  C   UNL     1     -41.097  54.845 -53.455  1.00  0.00     0.154 A 
HETATM    7  N   UNL     1     -40.782  54.684 -52.195  1.00  0.00    -0.303 N 
HETATM    8  H   UNL     1     -40.915  55.492 -51.586  1.00  0.00     0.171 HD
HETATM    9  C   UNL     1     -40.262  53.546 -51.552  1.00  0.00     0.259 A 
HETATM   10  O   UNL     1     -40.009  53.670 -50.369  1.00  0.00    -0.267 OA
HETATM   11  C   UNL     1     -40.192  51.017 -54.332  1.00  0.00     0.020 A 
HETATM   12  C   UNL     1     -39.743  49.884 -53.649  1.00  0.00     0.001 A 
ENDROOT
BRANCH   6  13
HETATM   13  N   UNL     1     -41.587  55.973 -53.918  1.00  0.00    -0.306 N 
HETATM   14  C   UNL     1     -42.680  56.717 -53.396  1.00  0.00     0.233 C 
HETATM   15  O   UNL     1     -43.216  56.264 -52.393  1.00  0.00    -0.272 OA
HETATM   16  H   UNL     1     -41.077  56.373 -54.700  1.00  0.00     0.171 HD
BRANCH  14  17
HETATM   17  C   UNL     1     -43.104  57.993 -54.092  1.00  0.00     0.184 C 
BRANCH  17  18
HETATM   18  S   UNL     1     -41.732  59.165 -54.358  1.00  0.00    -0.101 SA
BRANCH  18  19
HETATM   19  C   UNL     1     -41.192  59.384 -52.676  1.00  0.00     0.093 A 
HETATM   20  N   UNL     1     -39.901  59.060 -52.424  1.00  0.00    -0.254 NA
HETATM   21  C   UNL     1     -39.476  59.221 -51.147  1.00  0.00     0.118 A 
HETATM   22  C   UNL     1     -40.264  59.731 -50.129  1.00  0.00     0.019 A 
HETATM   23  C   UNL     1     -41.571  60.094 -50.430  1.00  0.00     0.004 A 
HETATM   24  C   UNL     1     -42.048  59.920 -51.726  1.00  0.00     0.039 A 
ENDBRANCH  18  19
ENDBRANCH  17  18
ENDBRANCH  14  17
ENDBRANCH   6  13
TORSDOF 4
ENDMDL
MODEL 2
REMARK VINA RESULT:      -7.3      3.844      5.799
REMARK  4 active torsions:
REMARK  status: ('A' for Active; 'I' for Inactive)
REMARK    1  A    between atoms: C_6  and  N_7 
REMARK       I    between atoms: N_7  and  C_8 
REMARK    2  A    between atoms: C_8  and  C_9 
REMARK    3  A    between atoms: C_9  and  S_10 
REMARK    4  A    between atoms: S_10  and  C_11 
ROOT
HETATM    1  C   UNL     1     -40.076  52.264 -51.805  1.00  0.00     0.001 A 
HETATM    2  C   UNL     1     -41.034  53.207 -51.443  1.00  0.00     0.018 A 
HETATM    3  C   UNL     1     -41.771  53.879 -52.434  1.00  0.00     0.049 A 
HETATM    4  C   UNL     1     -41.549  53.622 -53.786  1.00  0.00     0.024 A 
HETATM    5  S   UNL     1     -42.387  54.430 -55.123  1.00  0.00    -0.053 SA
HETATM    6  C   UNL     1     -43.538  55.400 -54.275  1.00  0.00     0.154 A 
HETATM    7  N   UNL     1     -43.591  55.485 -52.970  1.00  0.00    -0.303 N 
HETATM    8  H   UNL     1     -44.299  56.110 -52.584  1.00  0.00     0.171 HD
HETATM    9  C   UNL     1     -42.789  54.844 -52.009  1.00  0.00     0.259 A 
HETATM   10  O   UNL     1     -43.014  55.131 -50.849  1.00  0.00    -0.267 OA
HETATM   11  C   UNL     1     -40.581  52.666 -54.132  1.00  0.00     0.020 A 
HETATM   12  C   UNL     1     -39.851  51.990 -53.151  1.00  0.00     0.001 A 
ENDROOT
BRANCH   6  13
HETATM   13  N   UNL     1     -44.366  56.057 -55.057  1.00  0.00    -0.306 N 
HETATM   14  C   UNL     1     -44.385  57.456 -55.308  1.00  0.00     0.233 C 
HETATM   15  O   UNL     1     -43.524  58.121 -54.746  1.00  0.00    -0.272 OA
HETATM   16  H   UNL     1     -45.017  55.477 -55.575  1.00  0.00     0.171 HD
BRANCH  14  17
HETATM   17  C   UNL     1     -45.439  58.025 -56.234  1.00  0.00     0.184 C 
BRANCH  17  18
HETATM   18  S   UNL     1     -44.765  58.632 -57.816  1.00  0.00    -0.101 SA
BRANCH  18  19
HETATM   19  C   UNL     1     -44.856  57.135 -58.776  1.00  0.00     0.093 A 
HETATM   20  N   UNL     1     -45.974  56.983 -59.526  1.00  0.00    -0.254 NA
HETATM   21  C   UNL     1     -46.058  55.848 -60.262  1.00  0.00     0.118 A 
HETATM   22  C   UNL     1     -45.061  54.888 -60.317  1.00  0.00     0.019 A 
HETATM   23  C   UNL     1     -43.909  55.095 -59.569  1.00  0.00     0.004 A 
HETATM   24  C   UNL     1     -43.799  56.238 -58.783  1.00  0.00     0.039 A 
ENDBRANCH  18  19
ENDBRANCH  17  18
ENDBRANCH  14  17
ENDBRANCH   6  13
TORSDOF 4
ENDMDL
MODEL 3
REMARK VINA RESULT:      -7.3      2.973      4.627
REMARK  4 active torsions:
REMARK  status: ('A' for Active; 'I' for Inactive)
REMARK    1  A    between atoms: C_6  and  N_7 
REMARK       I    between atoms: N_7  and  C_8 
REMARK    2  A    between atoms: C_8  and  C_9 
REMARK    3  A    between atoms: C_9  and  S_10 
REMARK    4  A    between atoms: S_10  and  C_11 
ROOT
HETATM    1  C   UNL     1     -39.493  51.322 -52.014  1.00  0.00     0.001 A 
HETATM    2  C   UNL     1     -39.963  52.537 -51.524  1.00  0.00     0.018 A 
HETATM    3  C   UNL     1     -40.542  53.473 -52.399  1.00  0.00     0.049 A 
HETATM    4  C   UNL     1     -40.644  53.207 -53.763  1.00  0.00     0.024 A 
HETATM    5  S   UNL     1     -41.319  54.321 -54.966  1.00  0.00    -0.053 SA
HETATM    6  C   UNL     1     -41.881  55.613 -53.966  1.00  0.00     0.154 A 
HETATM    7  N   UNL     1     -41.695  55.659 -52.671  1.00  0.00    -0.303 N 
HETATM    8  H   UNL     1     -42.050  56.486 -52.191  1.00  0.00     0.171 HD
HETATM    9  C   UNL     1     -41.049  54.729 -51.837  1.00  0.00     0.259 A 
HETATM   10  O   UNL     1     -40.969  55.032 -50.662  1.00  0.00    -0.267 OA
HETATM   11  C   UNL     1     -40.167  51.975 -54.239  1.00  0.00     0.020 A 
HETATM   12  C   UNL     1     -39.598  51.039 -53.372  1.00  0.00     0.001 A 
ENDROOT
BRANCH   6  13
HETATM   13  N   UNL     1     -42.515  56.560 -54.619  1.00  0.00    -0.306 N 
HETATM   14  C   UNL     1     -42.202  57.947 -54.645  1.00  0.00     0.233 C 
HETATM   15  O   UNL     1     -41.222  58.295 -53.999  1.00  0.00    -0.272 OA
HETATM   16  H   UNL     1     -43.273  56.239 -55.213  1.00  0.00     0.171 HD
BRANCH  14  17
HETATM   17  C   UNL     1     -43.075  58.886 -55.451  1.00  0.00     0.184 C 
BRANCH  17  18
HETATM   18  S   UNL     1     -42.256  59.535 -56.946  1.00  0.00    -0.101 SA
BRANCH  18  19
HETATM   19  C   UNL     1     -42.467  58.142 -58.033  1.00  0.00     0.093 A 
HETATM   20  N   UNL     1     -43.305  57.172 -57.594  1.00  0.00    -0.254 NA
HETATM   21  C   UNL     1     -43.475  56.104 -58.411  1.00  0.00     0.118 A 
HETATM   22  C   UNL     1     -42.886  55.985 -59.659  1.00  0.00     0.019 A 
HETATM   23  C   UNL     1     -42.067  57.017 -60.099  1.00  0.00     0.004 A 
HETATM   24  C   UNL     1     -41.851  58.118 -59.276  1.00  0.00     0.039 A 
ENDBRANCH  18  19
ENDBRANCH  17  18
ENDBRANCH  14  17
ENDBRANCH   6  13
TORSDOF 4
ENDMDL
MODEL 4
REMARK VINA RESULT:      -7.3      1.863      2.440
REMARK  4 active torsions:
REMARK  status: ('A' for Active; 'I' for Inactive)
REMARK    1  A    between atoms: C_6  and  N_7 
REMARK       I    between atoms: N_7  and  C_8 
REMARK    2  A    between atoms: C_8  and  C_9 
REMARK    3  A    between atoms: C_9  and  S_10 
REMARK    4  A    between atoms: S_10  and  C_11 
ROOT
HETATM    1  C   UNL     1     -39.546  51.279 -53.589  1.00  0.00     0.001 A 
HETATM    2  C   UNL     1     -40.214  52.261 -54.316  1.00  0.00     0.018 A 
HETATM    3  C   UNL     1     -40.829  53.335 -53.649  1.00  0.00     0.049 A 
HETATM    4  C   UNL     1     -40.790  53.428 -52.259  1.00  0.00     0.024 A 
HETATM    5  S   UNL     1     -41.558  54.712 -51.306  1.00  0.00    -0.053 SA
HETATM    6  C   UNL     1     -42.152  55.756 -52.547  1.00  0.00     0.154 A 
HETATM    7  N   UNL     1     -42.066  55.484 -53.825  1.00  0.00    -0.303 N 
HETATM    8  H   UNL     1     -42.476  56.166 -54.463  1.00  0.00     0.171 HD
HETATM    9  C   UNL     1     -41.498  54.361 -54.453  1.00  0.00     0.259 A 
HETATM   10  O   UNL     1     -41.588  54.326 -55.666  1.00  0.00    -0.267 OA
HETATM   11  C   UNL     1     -40.110  52.430 -51.543  1.00  0.00     0.020 A 
HETATM   12  C   UNL     1     -39.491  51.365 -52.202  1.00  0.00     0.001 A 
ENDROOT
BRANCH   6  13
HETATM   13  N   UNL     1     -42.709  56.859 -52.099  1.00  0.00    -0.306 N 
HETATM   14  C   UNL     1     -43.882  57.494 -52.592  1.00  0.00     0.233 C 
HETATM   15  O   UNL     1     -44.445  56.943 -53.529  1.00  0.00    -0.272 OA
HETATM   16  H   UNL     1     -42.273  57.254 -51.272  1.00  0.00     0.171 HD
BRANCH  14  17
HETATM   17  C   UNL     1     -44.353  58.779 -51.945  1.00  0.00     0.184 C 
BRANCH  17  18
HETATM   18  S   UNL     1     -43.427  60.251 -52.495  1.00  0.00    -0.101 SA
BRANCH  18  19
HETATM   19  C   UNL     1     -41.811  59.840 -51.872  1.00  0.00     0.093 A 
HETATM   20  N   UNL     1     -40.919  59.398 -52.791  1.00  0.00    -0.254 NA
HETATM   21  C   UNL     1     -39.684  59.081 -52.331  1.00  0.00     0.118 A 
HETATM   22  C   UNL     1     -39.290  59.229 -51.012  1.00  0.00     0.019 A 
HETATM   23  C   UNL     1     -40.215  59.726 -50.102  1.00  0.00     0.004 A 
HETATM   24  C   UNL     1     -41.500  60.040 -50.535  1.00  0.00     0.039 A 
ENDBRANCH  18  19
ENDBRANCH  17  18
ENDBRANCH  14  17
ENDBRANCH   6  13
TORSDOF 4
ENDMDL
MODEL 5
REMARK VINA RESULT:      -7.1      4.726      8.593
REMARK  4 active torsions:
REMARK  status: ('A' for Active; 'I' for Inactive)
REMARK    1  A    between atoms: C_6  and  N_7 
REMARK       I    between atoms: N_7  and  C_8 
REMARK    2  A    between atoms: C_8  and  C_9 
REMARK    3  A    between atoms: C_9  and  S_10 
REMARK    4  A    between atoms: S_10  and  C_11 
ROOT
HETATM    1  C   UNL     1     -47.389  57.633 -60.716  1.00  0.00     0.001 A 
HETATM    2  C   UNL     1     -46.581  56.506 -60.596  1.00  0.00     0.018 A 
HETATM    3  C   UNL     1     -45.509  56.501 -59.687  1.00  0.00     0.049 A 
HETATM    4  C   UNL     1     -45.231  57.620 -58.904  1.00  0.00     0.024 A 
HETATM    5  S   UNL     1     -43.889  57.746 -57.753  1.00  0.00    -0.053 SA
HETATM    6  C   UNL     1     -43.231  56.150 -57.812  1.00  0.00     0.154 A 
HETATM    7  N   UNL     1     -43.662  55.219 -58.625  1.00  0.00    -0.303 N 
HETATM    8  H   UNL     1     -43.177  54.322 -58.587  1.00  0.00     0.171 HD
HETATM    9  C   UNL     1     -44.700  55.284 -59.571  1.00  0.00     0.259 A 
HETATM   10  O   UNL     1     -44.875  54.283 -60.241  1.00  0.00    -0.267 OA
HETATM   11  C   UNL     1     -46.058  58.747 -59.037  1.00  0.00     0.020 A 
HETATM   12  C   UNL     1     -47.129  58.754 -59.934  1.00  0.00     0.001 A 
ENDROOT
BRANCH   6  13
HETATM   13  N   UNL     1     -42.246  55.943 -56.967  1.00  0.00    -0.306 N 
HETATM   14  C   UNL     1     -42.209  55.005 -55.899  1.00  0.00     0.233 C 
HETATM   15  O   UNL     1     -43.200  54.299 -55.762  1.00  0.00    -0.272 OA
HETATM   16  H   UNL     1     -41.405  56.481 -57.148  1.00  0.00     0.171 HD
BRANCH  14  17
HETATM   17  C   UNL     1     -40.979  54.935 -55.020  1.00  0.00     0.184 C 
BRANCH  17  18
HETATM   18  S   UNL     1     -41.354  54.560 -53.275  1.00  0.00    -0.101 SA
BRANCH  18  19
HETATM   19  C   UNL     1     -40.657  52.926 -53.161  1.00  0.00     0.093 A 
HETATM   20  N   UNL     1     -40.694  52.189 -54.298  1.00  0.00    -0.254 NA
HETATM   21  C   UNL     1     -40.166  50.943 -54.227  1.00  0.00     0.118 A 
HETATM   22  C   UNL     1     -39.567  50.421 -53.092  1.00  0.00     0.019 A 
HETATM   23  C   UNL     1     -39.506  51.219 -51.956  1.00  0.00     0.004 A 
HETATM   24  C   UNL     1     -40.059  52.496 -51.986  1.00  0.00     0.039 A 
ENDBRANCH  18  19
ENDBRANCH  17  18
ENDBRANCH  14  17
ENDBRANCH   6  13
TORSDOF 4
ENDMDL
MODEL 6
REMARK VINA RESULT:      -7.0      2.123      3.165
REMARK  4 active torsions:
REMARK  status: ('A' for Active; 'I' for Inactive)
REMARK    1  A    between atoms: C_6  and  N_7 
REMARK       I    between atoms: N_7  and  C_8 
REMARK    2  A    between atoms: C_8  and  C_9 
REMARK    3  A    between atoms: C_9  and  S_10 
REMARK    4  A    between atoms: S_10  and  C_11 
ROOT
HETATM    1  C   UNL     1     -39.600  51.010 -52.778  1.00  0.00     0.001 A 
HETATM    2  C   UNL     1     -39.712  51.873 -51.692  1.00  0.00     0.018 A 
HETATM    3  C   UNL     1     -40.254  53.159 -51.867  1.00  0.00     0.049 A 
HETATM    4  C   UNL     1     -40.674  53.591 -53.123  1.00  0.00     0.024 A 
HETATM    5  S   UNL     1     -41.338  55.199 -53.473  1.00  0.00    -0.053 SA
HETATM    6  C   UNL     1     -41.421  55.891 -51.892  1.00  0.00     0.154 A 
HETATM    7  N   UNL     1     -40.977  55.293 -50.816  1.00  0.00    -0.303 N 
HETATM    8  H   UNL     1     -41.058  55.812 -49.942  1.00  0.00     0.171 HD
HETATM    9  C   UNL     1     -40.379  54.026 -50.692  1.00  0.00     0.259 A 
HETATM   10  O   UNL     1     -40.009  53.719 -49.575  1.00  0.00    -0.267 OA
HETATM   11  C   UNL     1     -40.557  52.706 -54.206  1.00  0.00     0.020 A 
HETATM   12  C   UNL     1     -40.026  51.425 -54.036  1.00  0.00     0.001 A 
ENDROOT
BRANCH   6  13
HETATM   13  N   UNL     1     -41.970  57.084 -51.858  1.00  0.00    -0.306 N 
HETATM   14  C   UNL     1     -43.250  57.429 -51.345  1.00  0.00     0.233 C 
HETATM   15  O   UNL     1     -43.909  56.514 -50.868  1.00  0.00    -0.272 OA
HETATM   16  H   UNL     1     -41.375  57.840 -52.184  1.00  0.00     0.171 HD
BRANCH  14  17
HETATM   17  C   UNL     1     -43.710  58.870 -51.416  1.00  0.00     0.184 C 
BRANCH  17  18
HETATM   18  S   UNL     1     -44.940  59.176 -52.727  1.00  0.00    -0.101 SA
BRANCH  18  19
HETATM   19  C   UNL     1     -44.044  58.549 -54.132  1.00  0.00     0.093 A 
HETATM   20  N   UNL     1     -42.838  59.121 -54.365  1.00  0.00    -0.254 NA
HETATM   21  C   UNL     1     -42.144  58.654 -55.431  1.00  0.00     0.118 A 
HETATM   22  C   UNL     1     -42.577  57.617 -56.241  1.00  0.00     0.019 A 
HETATM   23  C   UNL     1     -43.798  57.023 -55.949  1.00  0.00     0.004 A 
HETATM   24  C   UNL     1     -44.549  57.493 -54.875  1.00  0.00     0.039 A 
ENDBRANCH  18  19
ENDBRANCH  17  18
ENDBRANCH  14  17
ENDBRANCH   6  13
TORSDOF 4
ENDMDL
MODEL 7
REMARK VINA RESULT:      -6.9      4.042      5.881
REMARK  4 active torsions:
REMARK  status: ('A' for Active; 'I' for Inactive)
REMARK    1  A    between atoms: C_6  and  N_7 
REMARK       I    between atoms: N_7  and  C_8 
REMARK    2  A    between atoms: C_8  and  C_9 
REMARK    3  A    between atoms: C_9  and  S_10 
REMARK    4  A    between atoms: S_10  and  C_11 
ROOT
HETATM    1  C   UNL     1     -39.826  51.657 -51.301  1.00  0.00     0.001 A 
HETATM    2  C   UNL     1     -40.339  52.950 -51.269  1.00  0.00     0.018 A 
HETATM    3  C   UNL     1     -40.573  53.645 -52.468  1.00  0.00     0.049 A 
HETATM    4  C   UNL     1     -40.286  53.060 -53.700  1.00  0.00     0.024 A 
HETATM    5  S   UNL     1     -40.502  53.848 -55.274  1.00  0.00    -0.053 SA
HETATM    6  C   UNL     1     -41.248  55.338 -54.815  1.00  0.00     0.154 A 
HETATM    7  N   UNL     1     -41.449  55.694 -53.572  1.00  0.00    -0.303 N 
HETATM    8  H   UNL     1     -41.876  56.609 -53.424  1.00  0.00     0.171 HD
HETATM    9  C   UNL     1     -41.140  54.995 -52.391  1.00  0.00     0.259 A 
HETATM   10  O   UNL     1     -41.389  55.571 -51.349  1.00  0.00    -0.267 OA
HETATM   11  C   UNL     1     -39.771  51.754 -53.713  1.00  0.00     0.020 A 
HETATM   12  C   UNL     1     -39.544  51.057 -52.523  1.00  0.00     0.001 A 
ENDROOT
BRANCH   6  13
HETATM   13  N   UNL     1     -41.599  56.096 -55.829  1.00  0.00    -0.306 N 
HETATM   14  C   UNL     1     -42.891  56.623 -56.104  1.00  0.00     0.233 C 
HETATM   15  O   UNL     1     -43.771  56.352 -55.298  1.00  0.00    -0.272 OA
HETATM   16  H   UNL     1     -40.838  56.375 -56.440  1.00  0.00     0.171 HD
BRANCH  14  17
HETATM   17  C   UNL     1     -43.095  57.467 -57.345  1.00  0.00     0.184 C 
BRANCH  17  18
HETATM   18  S   UNL     1     -43.026  56.508 -58.895  1.00  0.00    -0.101 SA
BRANCH  18  19
HETATM   19  C   UNL     1     -44.657  56.838 -59.525  1.00  0.00     0.093 A 
HETATM   20  N   UNL     1     -45.021  58.143 -59.566  1.00  0.00    -0.254 NA
HETATM   21  C   UNL     1     -46.261  58.410 -60.044  1.00  0.00     0.118 A 
HETATM   22  C   UNL     1     -47.129  57.443 -60.522  1.00  0.00     0.019 A 
HETATM   23  C   UNL     1     -46.709  56.119 -60.507  1.00  0.00     0.004 A 
HETATM   24  C   UNL     1     -45.451  55.805 -60.001  1.00  0.00     0.039 A 
ENDBRANCH  18  19
ENDBRANCH  17  18
ENDBRANCH  14  17
ENDBRANCH   6  13
TORSDOF 4
ENDMDL
MODEL 8
REMARK VINA RESULT:      -6.9      3.657      8.113
REMARK  4 active torsions:
REMARK  status: ('A' for Active; 'I' for Inactive)
REMARK    1  A    between atoms: C_6  and  N_7 
REMARK       I    between atoms: N_7  and  C_8 
REMARK    2  A    between atoms: C_8  and  C_9 
REMARK    3  A    between atoms: C_9  and  S_10 
REMARK    4  A    between atoms: S_10  and  C_11 
ROOT
HETATM    1  C   UNL     1     -42.028  60.265 -60.031  1.00  0.00     0.001 A 
HETATM    2  C   UNL     1     -41.927  60.304 -58.643  1.00  0.00     0.018 A 
HETATM    3  C   UNL     1     -42.160  59.143 -57.886  1.00  0.00     0.049 A 
HETATM    4  C   UNL     1     -42.505  57.944 -58.506  1.00  0.00     0.024 A 
HETATM    5  S   UNL     1     -42.858  56.427 -57.658  1.00  0.00    -0.053 SA
HETATM    6  C   UNL     1     -42.512  56.857 -56.021  1.00  0.00     0.154 A 
HETATM    7  N   UNL     1     -42.176  58.065 -55.645  1.00  0.00    -0.303 N 
HETATM    8  H   UNL     1     -42.020  58.204 -54.647  1.00  0.00     0.171 HD
HETATM    9  C   UNL     1     -42.016  59.222 -56.429  1.00  0.00     0.259 A 
HETATM   10  O   UNL     1     -41.742  60.242 -55.826  1.00  0.00    -0.267 OA
HETATM   11  C   UNL     1     -42.600  57.922 -59.907  1.00  0.00     0.020 A 
HETATM   12  C   UNL     1     -42.361  59.072 -60.664  1.00  0.00     0.001 A 
ENDROOT
BRANCH   6  13
HETATM   13  N   UNL     1     -42.616  55.860 -55.171  1.00  0.00    -0.306 N 
HETATM   14  C   UNL     1     -41.560  55.189 -54.495  1.00  0.00     0.233 C 
HETATM   15  O   UNL     1     -40.427  55.596 -54.719  1.00  0.00    -0.272 OA
HETATM   16  H   UNL     1     -43.568  55.593 -54.938  1.00  0.00     0.171 HD
BRANCH  14  17
HETATM   17  C   UNL     1     -41.891  54.043 -53.563  1.00  0.00     0.184 C 
BRANCH  17  18
HETATM   18  S   UNL     1     -40.640  53.782 -52.261  1.00  0.00    -0.101 SA
BRANCH  18  19
HETATM   19  C   UNL     1     -40.178  52.101 -52.622  1.00  0.00     0.093 A 
HETATM   20  N   UNL     1     -39.831  51.343 -51.554  1.00  0.00    -0.254 NA
HETATM   21  C   UNL     1     -39.477  50.061 -51.813  1.00  0.00     0.118 A 
HETATM   22  C   UNL     1     -39.498  49.494 -53.076  1.00  0.00     0.019 A 
HETATM   23  C   UNL     1     -39.901  50.286 -54.144  1.00  0.00     0.004 A 
HETATM   24  C   UNL     1     -40.250  51.614 -53.918  1.00  0.00     0.039 A 
ENDBRANCH  18  19
ENDBRANCH  17  18
ENDBRANCH  14  17
ENDBRANCH   6  13
TORSDOF 4
ENDMDL
MODEL 9
REMARK VINA RESULT:      -6.8      2.825      8.527
REMARK  4 active torsions:
REMARK  status: ('A' for Active; 'I' for Inactive)
REMARK    1  A    between atoms: C_6  and  N_7 
REMARK       I    between atoms: N_7  and  C_8 
REMARK    2  A    between atoms: C_8  and  C_9 
REMARK    3  A    between atoms: C_9  and  S_10 
REMARK    4  A    between atoms: S_10  and  C_11 
ROOT
HETATM    1  C   UNL     1     -44.724  62.662 -49.461  1.00  0.00     0.001 A 
HETATM    2  C   UNL     1     -45.274  61.398 -49.655  1.00  0.00     0.018 A 
HETATM    3  C   UNL     1     -44.522  60.392 -50.287  1.00  0.00     0.049 A 
HETATM    4  C   UNL     1     -43.228  60.644 -50.736  1.00  0.00     0.024 A 
HETATM    5  S   UNL     1     -42.198  59.470 -51.577  1.00  0.00    -0.053 SA
HETATM    6  C   UNL     1     -43.172  58.044 -51.508  1.00  0.00     0.154 A 
HETATM    7  N   UNL     1     -44.383  58.018 -51.013  1.00  0.00    -0.303 N 
HETATM    8  H   UNL     1     -44.870  57.122 -51.050  1.00  0.00     0.171 HD
HETATM    9  C   UNL     1     -45.129  59.067 -50.446  1.00  0.00     0.259 A 
HETATM   10  O   UNL     1     -46.261  58.789 -50.099  1.00  0.00    -0.267 OA
HETATM   11  C   UNL     1     -42.688  61.924 -50.529  1.00  0.00     0.020 A 
HETATM   12  C   UNL     1     -43.429  62.924 -49.895  1.00  0.00     0.001 A 
ENDROOT
BRANCH   6  13
HETATM   13  N   UNL     1     -42.591  56.974 -52.002  1.00  0.00    -0.306 N 
HETATM   14  C   UNL     1     -41.985  55.910 -51.278  1.00  0.00     0.233 C 
HETATM   15  O   UNL     1     -42.022  55.994 -50.057  1.00  0.00    -0.272 OA
HETATM   16  H   UNL     1     -42.643  56.885 -53.012  1.00  0.00     0.171 HD
BRANCH  14  17
HETATM   17  C   UNL     1     -41.348  54.768 -52.040  1.00  0.00     0.184 C 
BRANCH  17  18
HETATM   18  S   UNL     1     -40.266  53.722 -51.010  1.00  0.00    -0.101 SA
BRANCH  18  19
HETATM   19  C   UNL     1     -40.059  52.334 -52.105  1.00  0.00     0.093 A 
HETATM   20  N   UNL     1     -39.672  51.174 -51.521  1.00  0.00    -0.254 NA
HETATM   21  C   UNL     1     -39.510  50.108 -52.342  1.00  0.00     0.118 A 
HETATM   22  C   UNL     1     -39.760  50.138 -53.704  1.00  0.00     0.019 A 
HETATM   23  C   UNL     1     -40.197  51.331 -54.265  1.00  0.00     0.004 A 
HETATM   24  C   UNL     1     -40.352  52.452 -53.455  1.00  0.00     0.039 A 
ENDBRANCH  18  19
ENDBRANCH  17  18
ENDBRANCH  14  17
ENDBRANCH   6  13
TORSDOF 4
ENDMDL
MODEL 10
REMARK VINA RESULT:      -6.7      4.044      6.124
REMARK  4 active torsions:
REMARK  status: ('A' for Active; 'I' for Inactive)
REMARK    1  A    between atoms: C_6  and  N_7 
REMARK       I    between atoms: N_7  and  C_8 
REMARK    2  A    between atoms: C_8  and  C_9 
REMARK    3  A    between atoms: C_9  and  S_10 
REMARK    4  A    between atoms: S_10  and  C_11 
ROOT
HETATM    1  C   UNL     1     -39.791  53.132 -50.623  1.00  0.00     0.001 A 
HETATM    2  C   UNL     1     -40.298  52.882 -51.895  1.00  0.00     0.018 A 
HETATM    3  C   UNL     1     -41.259  53.743 -52.453  1.00  0.00     0.049 A 
HETATM    4  C   UNL     1     -41.725  54.847 -51.742  1.00  0.00     0.024 A 
HETATM    5  S   UNL     1     -42.958  55.982 -52.323  1.00  0.00    -0.053 SA
HETATM    6  C   UNL     1     -43.226  55.408 -53.931  1.00  0.00     0.154 A 
HETATM    7  N   UNL     1     -42.657  54.336 -54.421  1.00  0.00    -0.303 N 
HETATM    8  H   UNL     1     -42.913  54.082 -55.375  1.00  0.00     0.171 HD
HETATM    9  C   UNL     1     -41.746  53.459 -53.805  1.00  0.00     0.259 A 
HETATM   10  O   UNL     1     -41.399  52.500 -54.468  1.00  0.00    -0.267 OA
HETATM   11  C   UNL     1     -41.200  55.086 -50.462  1.00  0.00     0.020 A 
HETATM   12  C   UNL     1     -40.240  54.236 -49.907  1.00  0.00     0.001 A 
ENDROOT
BRANCH   6  13
HETATM   13  N   UNL     1     -44.060  56.144 -54.631  1.00  0.00    -0.306 N 
HETATM   14  C   UNL     1     -43.734  57.096 -55.636  1.00  0.00     0.233 C 
HETATM   15  O   UNL     1     -42.544  57.234 -55.888  1.00  0.00    -0.272 OA
HETATM   16  H   UNL     1     -45.043  55.955 -54.464  1.00  0.00     0.171 HD
BRANCH  14  17
HETATM   17  C   UNL     1     -44.849  57.860 -56.317  1.00  0.00     0.184 C 
BRANCH  17  18
HETATM   18  S   UNL     1     -44.369  58.559 -57.933  1.00  0.00    -0.101 SA
BRANCH  18  19
HETATM   19  C   UNL     1     -44.731  57.167 -58.982  1.00  0.00     0.093 A 
HETATM   20  N   UNL     1     -43.725  56.274 -59.144  1.00  0.00    -0.254 NA
HETATM   21  C   UNL     1     -43.986  55.209 -59.940  1.00  0.00     0.118 A 
HETATM   22  C   UNL     1     -45.212  54.974 -60.540  1.00  0.00     0.019 A 
HETATM   23  C   UNL     1     -46.236  55.887 -60.318  1.00  0.00     0.004 A 
HETATM   24  C   UNL     1     -45.997  57.005 -59.524  1.00  0.00     0.039 A 
ENDBRANCH  18  19
ENDBRANCH  17  18
ENDBRANCH  14  17
ENDBRANCH   6  13
TORSDOF 4
ENDMDL
