MODEL 1
REMARK VINA RESULT:      -8.1      0.000      0.000
REMARK  9 active torsions:
REMARK  status: ('A' for Active; 'I' for Inactive)
REMARK    1  A    between atoms: C_2  and  N_3 
REMARK       I    between atoms: N_3  and  C_4 
REMARK    2  A    between atoms: C_4  and  C_5 
REMARK    3  A    between atoms: C_5  and  S_6 
REMARK    4  A    between atoms: S_6  and  C_7 
REMARK    5  A    between atoms: N_8  and  C_9 
REMARK    6  A    between atoms: C_9  and  C_10 
REMARK    7  A    between atoms: C_10  and  C_11 
REMARK    8  A    between atoms: C_17  and  C_18 
REMARK    9  A    between atoms: C_21  and  O_22 
ROOT
HETATM    1  C   UNL     1     -42.847  56.052 -55.756  1.00  0.00     0.192 A 
HETATM    2  N   UNL     1     -42.384  55.214 -54.774  1.00  0.00    -0.307 N 
HETATM    3  C   UNL     1     -42.492  55.934 -53.597  1.00  0.00     0.164 A 
HETATM    4  N   UNL     1     -42.943  57.142 -53.896  1.00  0.00    -0.128 NA
HETATM    5  N   UNL     1     -43.135  57.223 -55.244  1.00  0.00    -0.122 NA
ENDROOT
BRANCH   1   6
HETATM    6  S   UNL     1     -43.046  55.608 -57.415  1.00  0.00    -0.081 SA
BRANCH   6   7
HETATM    7  C   UNL     1     -42.622  57.162 -58.255  1.00  0.00     0.185 C 
BRANCH   7   8
HETATM    8  C   UNL     1     -43.862  57.851 -58.798  1.00  0.00     0.227 C 
HETATM    9  N   UNL     1     -45.052  57.254 -58.437  1.00  0.00    -0.357 N 
HETATM   10  H   UNL     1     -44.998  56.274 -58.152  1.00  0.00     0.162 HD
HETATM   11  O   UNL     1     -43.798  58.868 -59.485  1.00  0.00    -0.273 OA
BRANCH   9  12
HETATM   12  C   UNL     1     -46.339  57.725 -58.923  1.00  0.00     0.076 C 
HETATM   13  C   UNL     1     -47.240  58.075 -57.743  1.00  0.00     0.032 C 
HETATM   14  C   UNL     1     -47.004  56.681 -59.817  1.00  0.00     0.032 C 
ENDBRANCH   9  12
ENDBRANCH   7   8
ENDBRANCH   6   7
ENDBRANCH   1   6
BRANCH   2  15
HETATM   15  C   UNL     1     -41.931  53.847 -54.949  1.00  0.00     0.137 C 
BRANCH  15  16
HETATM   16  C   UNL     1     -40.460  53.683 -54.550  1.00  0.00     0.059 C 
BRANCH  16  17
HETATM   17  C   UNL     1     -40.193  52.437 -53.741  1.00  0.00    -0.057 A 
HETATM   18  C   UNL     1     -40.092  51.184 -54.362  1.00  0.00     0.007 A 
HETATM   19  C   UNL     1     -39.812  50.041 -53.611  1.00  0.00     0.001 A 
HETATM   20  C   UNL     1     -39.619  50.140 -52.235  1.00  0.00     0.000 A 
HETATM   21  C   UNL     1     -39.707  51.380 -51.608  1.00  0.00     0.001 A 
HETATM   22  C   UNL     1     -39.992  52.524 -52.356  1.00  0.00     0.007 A 
ENDBRANCH  16  17
ENDBRANCH  15  16
ENDBRANCH   2  15
BRANCH   3  23
HETATM   23  C   UNL     1     -42.249  55.475 -52.228  1.00  0.00     0.012 A 
HETATM   24  C   UNL     1     -43.049  54.531 -51.578  1.00  0.00     0.018 A 
HETATM   25  C   UNL     1     -42.744  54.120 -50.275  1.00  0.00     0.037 A 
HETATM   26  C   UNL     1     -41.625  54.620 -49.607  1.00  0.00     0.068 A 
HETATM   27  C   UNL     1     -40.812  55.550 -50.250  1.00  0.00     0.037 A 
HETATM   28  C   UNL     1     -41.121  55.969 -51.550  1.00  0.00     0.018 A 
BRANCH  26  29
HETATM   29  O   UNL     1     -41.435  54.125 -48.348  1.00  0.00    -0.356 OA
HETATM   30  C   UNL     1     -40.088  53.948 -47.926  1.00  0.00     0.210 C 
ENDBRANCH  26  29
ENDBRANCH   3  23
TORSDOF 9
ENDMDL
MODEL 2
REMARK VINA RESULT:      -7.8      2.113      2.936
REMARK  9 active torsions:
REMARK  status: ('A' for Active; 'I' for Inactive)
REMARK    1  A    between atoms: C_2  and  N_3 
REMARK       I    between atoms: N_3  and  C_4 
REMARK    2  A    between atoms: C_4  and  C_5 
REMARK    3  A    between atoms: C_5  and  S_6 
REMARK    4  A    between atoms: S_6  and  C_7 
REMARK    5  A    between atoms: N_8  and  C_9 
REMARK    6  A    between atoms: C_9  and  C_10 
REMARK    7  A    between atoms: C_10  and  C_11 
REMARK    8  A    between atoms: C_17  and  C_18 
REMARK    9  A    between atoms: C_21  and  O_22 
ROOT
HETATM    1  C   UNL     1     -42.506  59.071 -56.485  1.00  0.00     0.192 A 
HETATM    2  N   UNL     1     -42.718  58.018 -55.631  1.00  0.00    -0.307 N 
HETATM    3  C   UNL     1     -42.097  58.376 -54.447  1.00  0.00     0.164 A 
HETATM    4  N   UNL     1     -41.514  59.551 -54.630  1.00  0.00    -0.128 NA
HETATM    5  N   UNL     1     -41.745  59.967 -55.908  1.00  0.00    -0.122 NA
ENDROOT
BRANCH   1   6
HETATM    6  S   UNL     1     -43.176  59.198 -58.074  1.00  0.00    -0.081 SA
BRANCH   6   7
HETATM    7  C   UNL     1     -41.928  58.320 -59.059  1.00  0.00     0.185 C 
BRANCH   7   8
HETATM    8  C   UNL     1     -42.542  57.153 -59.813  1.00  0.00     0.227 C 
HETATM    9  N   UNL     1     -43.906  57.023 -59.651  1.00  0.00    -0.357 N 
HETATM   10  H   UNL     1     -44.308  57.468 -58.824  1.00  0.00     0.162 HD
HETATM   11  O   UNL     1     -41.871  56.406 -60.523  1.00  0.00    -0.273 OA
BRANCH   9  12
HETATM   12  C   UNL     1     -44.658  55.922 -60.234  1.00  0.00     0.076 C 
HETATM   13  C   UNL     1     -46.144  56.263 -60.249  1.00  0.00     0.032 C 
HETATM   14  C   UNL     1     -44.410  54.624 -59.468  1.00  0.00     0.032 C 
ENDBRANCH   9  12
ENDBRANCH   7   8
ENDBRANCH   6   7
ENDBRANCH   1   6
BRANCH   2  15
HETATM   15  C   UNL     1     -43.479  56.816 -55.916  1.00  0.00     0.137 C 
BRANCH  15  16
HETATM   16  C   UNL     1     -42.582  55.689 -56.440  1.00  0.00     0.059 C 
BRANCH  16  17
HETATM   17  C   UNL     1     -42.026  54.807 -55.349  1.00  0.00    -0.057 A 
HETATM   18  C   UNL     1     -40.668  54.457 -55.328  1.00  0.00     0.007 A 
HETATM   19  C   UNL     1     -40.156  53.667 -54.297  1.00  0.00     0.001 A 
HETATM   20  C   UNL     1     -40.991  53.229 -53.272  1.00  0.00     0.000 A 
HETATM   21  C   UNL     1     -42.339  53.578 -53.277  1.00  0.00     0.001 A 
HETATM   22  C   UNL     1     -42.855  54.364 -54.309  1.00  0.00     0.007 A 
ENDBRANCH  16  17
ENDBRANCH  15  16
ENDBRANCH   2  15
BRANCH   3  23
HETATM   23  C   UNL     1     -42.116  57.671 -53.164  1.00  0.00     0.012 A 
HETATM   24  C   UNL     1     -43.283  57.435 -52.432  1.00  0.00     0.018 A 
HETATM   25  C   UNL     1     -43.231  56.731 -51.222  1.00  0.00     0.037 A 
HETATM   26  C   UNL     1     -42.023  56.230 -50.735  1.00  0.00     0.068 A 
HETATM   27  C   UNL     1     -40.856  56.446 -51.463  1.00  0.00     0.037 A 
HETATM   28  C   UNL     1     -40.906  57.157 -52.669  1.00  0.00     0.018 A 
BRANCH  26  29
HETATM   29  O   UNL     1     -42.115  55.551 -49.552  1.00  0.00    -0.356 OA
HETATM   30  C   UNL     1     -41.385  54.334 -49.453  1.00  0.00     0.210 C 
ENDBRANCH  26  29
ENDBRANCH   3  23
TORSDOF 9
ENDMDL
MODEL 3
REMARK VINA RESULT:      -7.6      1.411      2.078
REMARK  9 active torsions:
REMARK  status: ('A' for Active; 'I' for Inactive)
REMARK    1  A    between atoms: C_2  and  N_3 
REMARK       I    between atoms: N_3  and  C_4 
REMARK    2  A    between atoms: C_4  and  C_5 
REMARK    3  A    between atoms: C_5  and  S_6 
REMARK    4  A    between atoms: S_6  and  C_7 
REMARK    5  A    between atoms: N_8  and  C_9 
REMARK    6  A    between atoms: C_9  and  C_10 
REMARK    7  A    between atoms: C_10  and  C_11 
REMARK    8  A    between atoms: C_17  and  C_18 
REMARK    9  A    between atoms: C_21  and  O_22 
ROOT
HETATM    1  C   UNL     1     -42.895  56.034 -55.933  1.00  0.00     0.192 A 
HETATM    2  N   UNL     1     -42.404  55.294 -54.888  1.00  0.00    -0.307 N 
HETATM    3  C   UNL     1     -42.470  56.128 -53.785  1.00  0.00     0.164 A 
HETATM    4  N   UNL     1     -42.926  57.304 -54.189  1.00  0.00    -0.128 NA
HETATM    5  N   UNL     1     -43.162  57.252 -55.531  1.00  0.00    -0.122 NA
ENDROOT
BRANCH   1   6
HETATM    6  S   UNL     1     -43.150  55.429 -57.533  1.00  0.00    -0.081 SA
BRANCH   6   7
HETATM    7  C   UNL     1     -43.858  56.884 -58.357  1.00  0.00     0.185 C 
BRANCH   7   8
HETATM    8  C   UNL     1     -42.769  57.791 -58.906  1.00  0.00     0.227 C 
HETATM    9  N   UNL     1     -42.755  59.060 -58.365  1.00  0.00    -0.357 N 
HETATM   10  H   UNL     1     -43.626  59.377 -57.933  1.00  0.00     0.162 HD
HETATM   11  O   UNL     1     -41.960  57.406 -59.748  1.00  0.00    -0.273 OA
BRANCH   9  12
HETATM   12  C   UNL     1     -41.835  60.090 -58.819  1.00  0.00     0.076 C 
HETATM   13  C   UNL     1     -41.635  61.126 -57.717  1.00  0.00     0.032 C 
HETATM   14  C   UNL     1     -42.343  60.754 -60.097  1.00  0.00     0.032 C 
ENDBRANCH   9  12
ENDBRANCH   7   8
ENDBRANCH   6   7
ENDBRANCH   1   6
BRANCH   2  15
HETATM   15  C   UNL     1     -41.963  53.913 -54.941  1.00  0.00     0.137 C 
BRANCH  15  16
HETATM   16  C   UNL     1     -40.499  53.770 -54.510  1.00  0.00     0.059 C 
BRANCH  16  17
HETATM   17  C   UNL     1     -40.222  52.506 -53.734  1.00  0.00    -0.057 A 
HETATM   18  C   UNL     1     -40.156  51.264 -54.381  1.00  0.00     0.007 A 
HETATM   19  C   UNL     1     -39.866  50.104 -53.660  1.00  0.00     0.001 A 
HETATM   20  C   UNL     1     -39.629  50.174 -52.289  1.00  0.00     0.000 A 
HETATM   21  C   UNL     1     -39.682  51.404 -51.637  1.00  0.00     0.001 A 
HETATM   22  C   UNL     1     -39.976  52.565 -52.355  1.00  0.00     0.007 A 
ENDBRANCH  16  17
ENDBRANCH  15  16
ENDBRANCH   2  15
BRANCH   3  23
HETATM   23  C   UNL     1     -42.184  55.806 -52.386  1.00  0.00     0.012 A 
HETATM   24  C   UNL     1     -42.818  54.774 -51.689  1.00  0.00     0.018 A 
HETATM   25  C   UNL     1     -42.478  54.505 -50.357  1.00  0.00     0.037 A 
HETATM   26  C   UNL     1     -41.485  55.240 -49.707  1.00  0.00     0.068 A 
HETATM   27  C   UNL     1     -40.836  56.260 -50.397  1.00  0.00     0.037 A 
HETATM   28  C   UNL     1     -41.182  56.536 -51.726  1.00  0.00     0.018 A 
BRANCH  26  29
HETATM   29  O   UNL     1     -41.242  54.866 -48.415  1.00  0.00    -0.356 OA
HETATM   30  C   UNL     1     -40.583  53.620 -48.222  1.00  0.00     0.210 C 
ENDBRANCH  26  29
ENDBRANCH   3  23
TORSDOF 9
ENDMDL
MODEL 4
REMARK VINA RESULT:      -7.6      2.316      6.905
REMARK  9 active torsions:
REMARK  status: ('A' for Active; 'I' for Inactive)
REMARK    1  A    between atoms: C_2  and  N_3 
REMARK       I    between atoms: N_3  and  C_4 
REMARK    2  A    between atoms: C_4  and  C_5 
REMARK    3  A    between atoms: C_5  and  S_6 
REMARK    4  A    between atoms: S_6  and  C_7 
REMARK    5  A    between atoms: N_8  and  C_9 
REMARK    6  A    between atoms: C_9  and  C_10 
REMARK    7  A    between atoms: C_10  and  C_11 
REMARK    8  A    between atoms: C_17  and  C_18 
REMARK    9  A    between atoms: C_21  and  O_22 
ROOT
HETATM    1  C   UNL     1     -43.412  55.368 -53.205  1.00  0.00     0.192 A 
HETATM    2  N   UNL     1     -43.017  55.094 -54.490  1.00  0.00    -0.307 N 
HETATM    3  C   UNL     1     -43.276  56.249 -55.207  1.00  0.00     0.164 A 
HETATM    4  N   UNL     1     -43.840  57.122 -54.387  1.00  0.00    -0.128 NA
HETATM    5  N   UNL     1     -43.950  56.561 -53.149  1.00  0.00    -0.122 NA
ENDROOT
BRANCH   1   6
HETATM    6  S   UNL     1     -43.196  54.302 -51.861  1.00  0.00    -0.081 SA
BRANCH   6   7
HETATM    7  C   UNL     1     -43.017  55.483 -50.493  1.00  0.00     0.185 C 
BRANCH   7   8
HETATM    8  C   UNL     1     -41.685  56.209 -50.562  1.00  0.00     0.227 C 
HETATM    9  N   UNL     1     -41.768  57.518 -50.991  1.00  0.00    -0.357 N 
HETATM   10  H   UNL     1     -42.605  57.766 -51.524  1.00  0.00     0.162 HD
HETATM   11  O   UNL     1     -40.628  55.670 -50.238  1.00  0.00    -0.273 OA
BRANCH   9  12
HETATM   12  C   UNL     1     -40.592  58.348 -51.193  1.00  0.00     0.076 C 
HETATM   13  C   UNL     1     -40.633  59.541 -50.243  1.00  0.00     0.032 C 
HETATM   14  C   UNL     1     -40.494  58.817 -52.643  1.00  0.00     0.032 C 
ENDBRANCH   9  12
ENDBRANCH   7   8
ENDBRANCH   6   7
ENDBRANCH   1   6
BRANCH   2  15
HETATM   15  C   UNL     1     -42.411  53.863 -54.962  1.00  0.00     0.137 C 
BRANCH  15  16
HETATM   16  C   UNL     1     -40.889  53.876 -54.779  1.00  0.00     0.059 C 
BRANCH  16  17
HETATM   17  C   UNL     1     -40.378  52.742 -53.925  1.00  0.00    -0.057 A 
HETATM   18  C   UNL     1     -40.085  52.940 -52.568  1.00  0.00     0.007 A 
HETATM   19  C   UNL     1     -39.643  51.877 -51.776  1.00  0.00     0.001 A 
HETATM   20  C   UNL     1     -39.501  50.606 -52.329  1.00  0.00     0.000 A 
HETATM   21  C   UNL     1     -39.799  50.396 -53.673  1.00  0.00     0.001 A 
HETATM   22  C   UNL     1     -40.236  51.458 -54.468  1.00  0.00     0.007 A 
ENDBRANCH  16  17
ENDBRANCH  15  16
ENDBRANCH   2  15
BRANCH   3  23
HETATM   23  C   UNL     1     -42.937  56.547 -56.600  1.00  0.00     0.012 A 
HETATM   24  C   UNL     1     -43.214  55.682 -57.662  1.00  0.00     0.018 A 
HETATM   25  C   UNL     1     -42.883  56.042 -58.974  1.00  0.00     0.037 A 
HETATM   26  C   UNL     1     -42.296  57.278 -59.253  1.00  0.00     0.068 A 
HETATM   27  C   UNL     1     -42.030  58.154 -58.204  1.00  0.00     0.037 A 
HETATM   28  C   UNL     1     -42.352  57.790 -56.891  1.00  0.00     0.018 A 
BRANCH  26  29
HETATM   29  O   UNL     1     -42.038  57.509 -60.576  1.00  0.00    -0.356 OA
HETATM   30  C   UNL     1     -41.945  58.869 -60.982  1.00  0.00     0.210 C 
ENDBRANCH  26  29
ENDBRANCH   3  23
TORSDOF 9
ENDMDL
MODEL 5
REMARK VINA RESULT:      -7.4      1.967      3.112
REMARK  9 active torsions:
REMARK  status: ('A' for Active; 'I' for Inactive)
REMARK    1  A    between atoms: C_2  and  N_3 
REMARK       I    between atoms: N_3  and  C_4 
REMARK    2  A    between atoms: C_4  and  C_5 
REMARK    3  A    between atoms: C_5  and  S_6 
REMARK    4  A    between atoms: S_6  and  C_7 
REMARK    5  A    between atoms: N_8  and  C_9 
REMARK    6  A    between atoms: C_9  and  C_10 
REMARK    7  A    between atoms: C_10  and  C_11 
REMARK    8  A    between atoms: C_17  and  C_18 
REMARK    9  A    between atoms: C_21  and  O_22 
ROOT
HETATM    1  C   UNL     1     -44.293  58.800 -54.025  1.00  0.00     0.192 A 
HETATM    2  N   UNL     1     -43.190  58.049 -53.708  1.00  0.00    -0.307 N 
HETATM    3  C   UNL     1     -43.496  57.436 -52.506  1.00  0.00     0.164 A 
HETATM    4  N   UNL     1     -44.693  57.856 -52.126  1.00  0.00    -0.128 NA
HETATM    5  N   UNL     1     -45.174  58.727 -53.058  1.00  0.00    -0.122 NA
ENDROOT
BRANCH   1   6
HETATM    6  S   UNL     1     -44.493  59.681 -55.499  1.00  0.00    -0.081 SA
BRANCH   6   7
HETATM    7  C   UNL     1     -45.579  58.568 -56.436  1.00  0.00     0.185 C 
BRANCH   7   8
HETATM    8  C   UNL     1     -45.027  58.301 -57.826  1.00  0.00     0.227 C 
HETATM    9  N   UNL     1     -44.945  56.965 -58.162  1.00  0.00    -0.357 N 
HETATM   10  H   UNL     1     -44.929  56.303 -57.383  1.00  0.00     0.162 HD
HETATM   11  O   UNL     1     -44.704  59.210 -58.588  1.00  0.00    -0.273 OA
BRANCH   9  12
HETATM   12  C   UNL     1     -44.373  56.512 -59.419  1.00  0.00     0.076 C 
HETATM   13  C   UNL     1     -45.376  55.628 -60.154  1.00  0.00     0.032 C 
HETATM   14  C   UNL     1     -43.063  55.762 -59.187  1.00  0.00     0.032 C 
ENDBRANCH   9  12
ENDBRANCH   7   8
ENDBRANCH   6   7
ENDBRANCH   1   6
BRANCH   2  15
HETATM   15  C   UNL     1     -41.987  57.902 -54.507  1.00  0.00     0.137 C 
BRANCH  15  16
HETATM   16  C   UNL     1     -42.156  56.835 -55.594  1.00  0.00     0.059 C 
BRANCH  16  17
HETATM   17  C   UNL     1     -41.770  55.449 -55.139  1.00  0.00    -0.057 A 
HETATM   18  C   UNL     1     -40.503  55.198 -54.593  1.00  0.00     0.007 A 
HETATM   19  C   UNL     1     -40.166  53.919 -54.143  1.00  0.00     0.001 A 
HETATM   20  C   UNL     1     -41.093  52.883 -54.225  1.00  0.00     0.000 A 
HETATM   21  C   UNL     1     -42.358  53.122 -54.757  1.00  0.00     0.001 A 
HETATM   22  C   UNL     1     -42.696  54.399 -55.211  1.00  0.00     0.007 A 
ENDBRANCH  16  17
ENDBRANCH  15  16
ENDBRANCH   2  15
BRANCH   3  23
HETATM   23  C   UNL     1     -42.720  56.431 -51.776  1.00  0.00     0.012 A 
HETATM   24  C   UNL     1     -41.524  56.716 -51.110  1.00  0.00     0.018 A 
HETATM   25  C   UNL     1     -40.846  55.710 -50.410  1.00  0.00     0.037 A 
HETATM   26  C   UNL     1     -41.358  54.414 -50.340  1.00  0.00     0.068 A 
HETATM   27  C   UNL     1     -42.556  54.123 -50.987  1.00  0.00     0.037 A 
HETATM   28  C   UNL     1     -43.230  55.125 -51.695  1.00  0.00     0.018 A 
BRANCH  26  29
HETATM   29  O   UNL     1     -40.605  53.534 -49.614  1.00  0.00    -0.356 OA
HETATM   30  C   UNL     1     -40.396  53.849 -48.243  1.00  0.00     0.210 C 
ENDBRANCH  26  29
ENDBRANCH   3  23
TORSDOF 9
ENDMDL
MODEL 6
REMARK VINA RESULT:      -7.4      2.050      4.081
REMARK  9 active torsions:
REMARK  status: ('A' for Active; 'I' for Inactive)
REMARK    1  A    between atoms: C_2  and  N_3 
REMARK       I    between atoms: N_3  and  C_4 
REMARK    2  A    between atoms: C_4  and  C_5 
REMARK    3  A    between atoms: C_5  and  S_6 
REMARK    4  A    between atoms: S_6  and  C_7 
REMARK    5  A    between atoms: N_8  and  C_9 
REMARK    6  A    between atoms: C_9  and  C_10 
REMARK    7  A    between atoms: C_10  and  C_11 
REMARK    8  A    between atoms: C_17  and  C_18 
REMARK    9  A    between atoms: C_21  and  O_22 
ROOT
HETATM    1  C   UNL     1     -44.239  57.599 -56.488  1.00  0.00     0.192 A 
HETATM    2  N   UNL     1     -43.877  56.716 -55.502  1.00  0.00    -0.307 N 
HETATM    3  C   UNL     1     -42.911  55.905 -56.072  1.00  0.00     0.164 A 
HETATM    4  N   UNL     1     -42.765  56.271 -57.337  1.00  0.00    -0.128 NA
HETATM    5  N   UNL     1     -43.614  57.306 -57.600  1.00  0.00    -0.122 NA
ENDROOT
BRANCH   1   6
HETATM    6  S   UNL     1     -45.335  58.919 -56.272  1.00  0.00    -0.081 SA
BRANCH   6   7
HETATM    7  C   UNL     1     -46.818  58.293 -57.114  1.00  0.00     0.185 C 
BRANCH   7   8
HETATM    8  C   UNL     1     -46.583  58.146 -58.608  1.00  0.00     0.227 C 
HETATM    9  N   UNL     1     -46.535  56.841 -59.053  1.00  0.00    -0.357 N 
HETATM   10  H   UNL     1     -46.324  56.131 -58.349  1.00  0.00     0.162 HD
HETATM   11  O   UNL     1     -46.468  59.118 -59.351  1.00  0.00    -0.273 OA
BRANCH   9  12
HETATM   12  C   UNL     1     -46.245  56.501 -60.436  1.00  0.00     0.076 C 
HETATM   13  C   UNL     1     -47.546  56.371 -61.221  1.00  0.00     0.032 C 
HETATM   14  C   UNL     1     -45.433  55.210 -60.524  1.00  0.00     0.032 C 
ENDBRANCH   9  12
ENDBRANCH   7   8
ENDBRANCH   6   7
ENDBRANCH   1   6
BRANCH   2  15
HETATM   15  C   UNL     1     -44.379  56.689 -54.141  1.00  0.00     0.137 C 
BRANCH  15  16
HETATM   16  C   UNL     1     -43.330  57.191 -53.142  1.00  0.00     0.059 C 
BRANCH  16  17
HETATM   17  C   UNL     1     -42.751  56.098 -52.278  1.00  0.00    -0.057 A 
HETATM   18  C   UNL     1     -43.520  54.981 -51.921  1.00  0.00     0.007 A 
HETATM   19  C   UNL     1     -42.966  53.957 -51.149  1.00  0.00     0.001 A 
HETATM   20  C   UNL     1     -41.638  54.034 -50.736  1.00  0.00     0.000 A 
HETATM   21  C   UNL     1     -40.862  55.134 -51.093  1.00  0.00     0.001 A 
HETATM   22  C   UNL     1     -41.414  56.161 -51.861  1.00  0.00     0.007 A 
ENDBRANCH  16  17
ENDBRANCH  15  16
ENDBRANCH   2  15
BRANCH   3  23
HETATM   23  C   UNL     1     -42.100  54.871 -55.429  1.00  0.00     0.012 A 
HETATM   24  C   UNL     1     -42.610  53.635 -55.021  1.00  0.00     0.018 A 
HETATM   25  C   UNL     1     -41.770  52.681 -54.433  1.00  0.00     0.037 A 
HETATM   26  C   UNL     1     -40.407  52.930 -54.266  1.00  0.00     0.068 A 
HETATM   27  C   UNL     1     -39.885  54.152 -54.682  1.00  0.00     0.037 A 
HETATM   28  C   UNL     1     -40.726  55.110 -55.262  1.00  0.00     0.018 A 
BRANCH  26  29
HETATM   29  O   UNL     1     -39.700  51.910 -53.692  1.00  0.00    -0.356 OA
HETATM   30  C   UNL     1     -39.960  50.598 -54.177  1.00  0.00     0.210 C 
ENDBRANCH  26  29
ENDBRANCH   3  23
TORSDOF 9
ENDMDL
MODEL 7
REMARK VINA RESULT:      -7.2      2.654      4.650
REMARK  9 active torsions:
REMARK  status: ('A' for Active; 'I' for Inactive)
REMARK    1  A    between atoms: C_2  and  N_3 
REMARK       I    between atoms: N_3  and  C_4 
REMARK    2  A    between atoms: C_4  and  C_5 
REMARK    3  A    between atoms: C_5  and  S_6 
REMARK    4  A    between atoms: S_6  and  C_7 
REMARK    5  A    between atoms: N_8  and  C_9 
REMARK    6  A    between atoms: C_9  and  C_10 
REMARK    7  A    between atoms: C_10  and  C_11 
REMARK    8  A    between atoms: C_17  and  C_18 
REMARK    9  A    between atoms: C_21  and  O_22 
ROOT
HETATM    1  C   UNL     1     -44.192  57.770 -56.328  1.00  0.00     0.192 A 
HETATM    2  N   UNL     1     -43.800  56.887 -55.353  1.00  0.00    -0.307 N 
HETATM    3  C   UNL     1     -42.938  56.006 -55.981  1.00  0.00     0.164 A 
HETATM    4  N   UNL     1     -42.879  56.335 -57.263  1.00  0.00    -0.128 NA
HETATM    5  N   UNL     1     -43.683  57.414 -57.481  1.00  0.00    -0.122 NA
ENDROOT
BRANCH   1   6
HETATM    6  S   UNL     1     -45.183  59.159 -56.055  1.00  0.00    -0.081 SA
BRANCH   6   7
HETATM    7  C   UNL     1     -43.981  60.323 -55.349  1.00  0.00     0.185 C 
BRANCH   7   8
HETATM    8  C   UNL     1     -42.649  60.249 -56.076  1.00  0.00     0.227 C 
HETATM    9  N   UNL     1     -42.706  60.601 -57.409  1.00  0.00    -0.357 N 
HETATM   10  H   UNL     1     -43.625  60.545 -57.853  1.00  0.00     0.162 HD
HETATM   11  O   UNL     1     -41.610  59.922 -55.507  1.00  0.00    -0.273 OA
BRANCH   9  12
HETATM   12  C   UNL     1     -41.548  60.519 -58.286  1.00  0.00     0.076 C 
HETATM   13  C   UNL     1     -40.854  61.875 -58.351  1.00  0.00     0.032 C 
HETATM   14  C   UNL     1     -41.951  60.052 -59.683  1.00  0.00     0.032 C 
ENDBRANCH   9  12
ENDBRANCH   7   8
ENDBRANCH   6   7
ENDBRANCH   1   6
BRANCH   2  15
HETATM   15  C   UNL     1     -44.183  56.921 -53.954  1.00  0.00     0.137 C 
BRANCH  15  16
HETATM   16  C   UNL     1     -43.008  57.326 -53.056  1.00  0.00     0.059 C 
BRANCH  16  17
HETATM   17  C   UNL     1     -42.554  56.226 -52.129  1.00  0.00    -0.057 A 
HETATM   18  C   UNL     1     -43.365  55.108 -51.887  1.00  0.00     0.007 A 
HETATM   19  C   UNL     1     -42.923  54.079 -51.053  1.00  0.00     0.001 A 
HETATM   20  C   UNL     1     -41.664  54.150 -50.462  1.00  0.00     0.000 A 
HETATM   21  C   UNL     1     -40.845  55.251 -50.703  1.00  0.00     0.001 A 
HETATM   22  C   UNL     1     -41.287  56.284 -51.532  1.00  0.00     0.007 A 
ENDBRANCH  16  17
ENDBRANCH  15  16
ENDBRANCH   2  15
BRANCH   3  23
HETATM   23  C   UNL     1     -42.137  54.937 -55.381  1.00  0.00     0.012 A 
HETATM   24  C   UNL     1     -42.661  53.692 -55.022  1.00  0.00     0.018 A 
HETATM   25  C   UNL     1     -41.832  52.705 -54.475  1.00  0.00     0.037 A 
HETATM   26  C   UNL     1     -40.465  52.931 -54.301  1.00  0.00     0.068 A 
HETATM   27  C   UNL     1     -39.930  54.163 -54.669  1.00  0.00     0.037 A 
HETATM   28  C   UNL     1     -40.760  55.153 -55.208  1.00  0.00     0.018 A 
BRANCH  26  29
HETATM   29  O   UNL     1     -39.769  51.881 -53.770  1.00  0.00    -0.356 OA
HETATM   30  C   UNL     1     -40.101  50.584 -54.251  1.00  0.00     0.210 C 
ENDBRANCH  26  29
ENDBRANCH   3  23
TORSDOF 9
ENDMDL
MODEL 8
REMARK VINA RESULT:      -7.2      2.930      6.578
REMARK  9 active torsions:
REMARK  status: ('A' for Active; 'I' for Inactive)
REMARK    1  A    between atoms: C_2  and  N_3 
REMARK       I    between atoms: N_3  and  C_4 
REMARK    2  A    between atoms: C_4  and  C_5 
REMARK    3  A    between atoms: C_5  and  S_6 
REMARK    4  A    between atoms: S_6  and  C_7 
REMARK    5  A    between atoms: N_8  and  C_9 
REMARK    6  A    between atoms: C_9  and  C_10 
REMARK    7  A    between atoms: C_10  and  C_11 
REMARK    8  A    between atoms: C_17  and  C_18 
REMARK    9  A    between atoms: C_21  and  O_22 
ROOT
HETATM    1  C   UNL     1     -43.597  57.278 -53.433  1.00  0.00     0.192 A 
HETATM    2  N   UNL     1     -42.682  56.423 -53.994  1.00  0.00    -0.307 N 
HETATM    3  C   UNL     1     -42.523  55.401 -53.074  1.00  0.00     0.164 A 
HETATM    4  N   UNL     1     -43.269  55.683 -52.016  1.00  0.00    -0.128 NA
HETATM    5  N   UNL     1     -43.913  56.866 -52.231  1.00  0.00    -0.122 NA
ENDROOT
BRANCH   1   6
HETATM    6  S   UNL     1     -44.253  58.671 -54.220  1.00  0.00    -0.081 SA
BRANCH   6   7
HETATM    7  C   UNL     1     -43.289  60.003 -53.449  1.00  0.00     0.185 C 
BRANCH   7   8
HETATM    8  C   UNL     1     -41.888  59.535 -53.093  1.00  0.00     0.227 C 
HETATM    9  N   UNL     1     -41.761  59.033 -51.814  1.00  0.00    -0.357 N 
HETATM   10  H   UNL     1     -42.477  59.319 -51.143  1.00  0.00     0.162 HD
HETATM   11  O   UNL     1     -40.958  59.586 -53.894  1.00  0.00    -0.273 OA
BRANCH   9  12
HETATM   12  C   UNL     1     -40.483  58.607 -51.268  1.00  0.00     0.076 C 
HETATM   13  C   UNL     1     -40.658  57.300 -50.502  1.00  0.00     0.032 C 
HETATM   14  C   UNL     1     -39.886  59.685 -50.365  1.00  0.00     0.032 C 
ENDBRANCH   9  12
ENDBRANCH   7   8
ENDBRANCH   6   7
ENDBRANCH   1   6
BRANCH   2  15
HETATM   15  C   UNL     1     -42.064  56.556 -55.300  1.00  0.00     0.137 C 
BRANCH  15  16
HETATM   16  C   UNL     1     -42.981  56.041 -56.415  1.00  0.00     0.059 C 
BRANCH  16  17
HETATM   17  C   UNL     1     -42.712  56.678 -57.756  1.00  0.00    -0.057 A 
HETATM   18  C   UNL     1     -42.277  58.008 -57.847  1.00  0.00     0.007 A 
HETATM   19  C   UNL     1     -41.998  58.579 -59.090  1.00  0.00     0.001 A 
HETATM   20  C   UNL     1     -42.140  57.825 -60.253  1.00  0.00     0.000 A 
HETATM   21  C   UNL     1     -42.562  56.500 -60.175  1.00  0.00     0.001 A 
HETATM   22  C   UNL     1     -42.846  55.928 -58.933  1.00  0.00     0.007 A 
ENDBRANCH  16  17
ENDBRANCH  15  16
ENDBRANCH   2  15
BRANCH   3  23
HETATM   23  C   UNL     1     -41.752  54.164 -53.216  1.00  0.00     0.012 A 
HETATM   24  C   UNL     1     -41.818  53.343 -54.345  1.00  0.00     0.018 A 
HETATM   25  C   UNL     1     -41.034  52.185 -54.425  1.00  0.00     0.037 A 
HETATM   26  C   UNL     1     -40.155  51.840 -53.397  1.00  0.00     0.068 A 
HETATM   27  C   UNL     1     -40.071  52.660 -52.274  1.00  0.00     0.037 A 
HETATM   28  C   UNL     1     -40.861  53.813 -52.190  1.00  0.00     0.018 A 
BRANCH  26  29
HETATM   29  O   UNL     1     -39.440  50.694 -53.608  1.00  0.00    -0.356 OA
HETATM   30  C   UNL     1     -39.725  49.595 -52.750  1.00  0.00     0.210 C 
ENDBRANCH  26  29
ENDBRANCH   3  23
TORSDOF 9
ENDMDL
MODEL 9
REMARK VINA RESULT:      -7.1      2.982      6.470
REMARK  9 active torsions:
REMARK  status: ('A' for Active; 'I' for Inactive)
REMARK    1  A    between atoms: C_2  and  N_3 
REMARK       I    between atoms: N_3  and  C_4 
REMARK    2  A    between atoms: C_4  and  C_5 
REMARK    3  A    between atoms: C_5  and  S_6 
REMARK    4  A    between atoms: S_6  and  C_7 
REMARK    5  A    between atoms: N_8  and  C_9 
REMARK    6  A    between atoms: C_9  and  C_10 
REMARK    7  A    between atoms: C_10  and  C_11 
REMARK    8  A    between atoms: C_17  and  C_18 
REMARK    9  A    between atoms: C_21  and  O_22 
ROOT
HETATM    1  C   UNL     1     -41.365  58.599 -53.734  1.00  0.00     0.192 A 
HETATM    2  N   UNL     1     -41.829  57.632 -54.590  1.00  0.00    -0.307 N 
HETATM    3  C   UNL     1     -42.052  58.283 -55.791  1.00  0.00     0.164 A 
HETATM    4  N   UNL     1     -41.781  59.567 -55.617  1.00  0.00    -0.128 NA
HETATM    5  N   UNL     1     -41.383  59.766 -54.328  1.00  0.00    -0.122 NA
ENDROOT
BRANCH   1   6
HETATM    6  S   UNL     1     -40.814  58.302 -52.122  1.00  0.00    -0.081 SA
BRANCH   6   7
HETATM    7  C   UNL     1     -42.094  59.144 -51.146  1.00  0.00     0.185 C 
BRANCH   7   8
HETATM    8  C   UNL     1     -43.484  58.832 -51.675  1.00  0.00     0.227 C 
HETATM    9  N   UNL     1     -44.054  59.847 -52.415  1.00  0.00    -0.357 N 
HETATM   10  H   UNL     1     -43.676  60.785 -52.264  1.00  0.00     0.162 HD
HETATM   11  O   UNL     1     -44.035  57.753 -51.470  1.00  0.00    -0.273 OA
BRANCH   9  12
HETATM   12  C   UNL     1     -45.408  59.762 -52.939  1.00  0.00     0.076 C 
HETATM   13  C   UNL     1     -45.461  60.379 -54.334  1.00  0.00     0.032 C 
HETATM   14  C   UNL     1     -46.401  60.453 -52.007  1.00  0.00     0.032 C 
ENDBRANCH   9  12
ENDBRANCH   7   8
ENDBRANCH   6   7
ENDBRANCH   1   6
BRANCH   2  15
HETATM   15  C   UNL     1     -41.993  56.222 -54.292  1.00  0.00     0.137 C 
BRANCH  15  16
HETATM   16  C   UNL     1     -40.802  55.396 -54.791  1.00  0.00     0.059 C 
BRANCH  16  17
HETATM   17  C   UNL     1     -40.545  54.155 -53.972  1.00  0.00    -0.057 A 
HETATM   18  C   UNL     1     -40.119  52.966 -54.580  1.00  0.00     0.007 A 
HETATM   19  C   UNL     1     -39.852  51.832 -53.810  1.00  0.00     0.001 A 
HETATM   20  C   UNL     1     -39.998  51.877 -52.426  1.00  0.00     0.000 A 
HETATM   21  C   UNL     1     -40.412  53.056 -51.809  1.00  0.00     0.001 A 
HETATM   22  C   UNL     1     -40.684  54.190 -52.577  1.00  0.00     0.007 A 
ENDBRANCH  16  17
ENDBRANCH  15  16
ENDBRANCH   2  15
BRANCH   3  23
HETATM   23  C   UNL     1     -42.436  57.703 -57.080  1.00  0.00     0.012 A 
HETATM   24  C   UNL     1     -43.322  56.629 -57.207  1.00  0.00     0.018 A 
HETATM   25  C   UNL     1     -43.664  56.140 -58.474  1.00  0.00     0.037 A 
HETATM   26  C   UNL     1     -43.152  56.726 -59.633  1.00  0.00     0.068 A 
HETATM   27  C   UNL     1     -42.280  57.805 -59.518  1.00  0.00     0.037 A 
HETATM   28  C   UNL     1     -41.930  58.289 -58.251  1.00  0.00     0.018 A 
BRANCH  26  29
HETATM   29  O   UNL     1     -43.577  56.160 -60.802  1.00  0.00    -0.356 OA
HETATM   30  C   UNL     1     -44.847  55.520 -60.779  1.00  0.00     0.210 C 
ENDBRANCH  26  29
ENDBRANCH   3  23
TORSDOF 9
ENDMDL
MODEL 10
REMARK VINA RESULT:      -7.1      4.052      5.279
REMARK  9 active torsions:
REMARK  status: ('A' for Active; 'I' for Inactive)
REMARK    1  A    between atoms: C_2  and  N_3 
REMARK       I    between atoms: N_3  and  C_4 
REMARK    2  A    between atoms: C_4  and  C_5 
REMARK    3  A    between atoms: C_5  and  S_6 
REMARK    4  A    between atoms: S_6  and  C_7 
REMARK    5  A    between atoms: N_8  and  C_9 
REMARK    6  A    between atoms: C_9  and  C_10 
REMARK    7  A    between atoms: C_10  and  C_11 
REMARK    8  A    between atoms: C_17  and  C_18 
REMARK    9  A    between atoms: C_21  and  O_22 
ROOT
HETATM    1  C   UNL     1     -44.947  58.694 -52.041  1.00  0.00     0.192 A 
HETATM    2  N   UNL     1     -43.758  58.019 -52.153  1.00  0.00    -0.307 N 
HETATM    3  C   UNL     1     -43.829  56.993 -51.228  1.00  0.00     0.164 A 
HETATM    4  N   UNL     1     -44.979  57.106 -50.580  1.00  0.00    -0.128 NA
HETATM    5  N   UNL     1     -45.659  58.183 -51.068  1.00  0.00    -0.122 NA
ENDROOT
BRANCH   1   6
HETATM    6  S   UNL     1     -45.435  60.004 -53.059  1.00  0.00    -0.081 SA
BRANCH   6   7
HETATM    7  C   UNL     1     -46.758  60.754 -52.066  1.00  0.00     0.185 C 
BRANCH   7   8
HETATM    8  C   UNL     1     -47.433  61.890 -52.816  1.00  0.00     0.227 C 
HETATM    9  N   UNL     1     -48.812  61.846 -52.798  1.00  0.00    -0.357 N 
HETATM   10  H   UNL     1     -49.233  60.936 -52.602  1.00  0.00     0.162 HD
HETATM   11  O   UNL     1     -46.792  62.781 -53.370  1.00  0.00    -0.273 OA
BRANCH   9  12
HETATM   12  C   UNL     1     -49.630  62.805 -53.523  1.00  0.00     0.076 C 
HETATM   13  C   UNL     1     -50.866  63.156 -52.701  1.00  0.00     0.032 C 
HETATM   14  C   UNL     1     -50.032  62.258 -54.892  1.00  0.00     0.032 C 
ENDBRANCH   9  12
ENDBRANCH   7   8
ENDBRANCH   6   7
ENDBRANCH   1   6
BRANCH   2  15
HETATM   15  C   UNL     1     -42.687  58.308 -53.089  1.00  0.00     0.137 C 
BRANCH  15  16
HETATM   16  C   UNL     1     -42.930  57.644 -54.449  1.00  0.00     0.059 C 
BRANCH  16  17
HETATM   17  C   UNL     1     -42.305  56.276 -54.569  1.00  0.00    -0.057 A 
HETATM   18  C   UNL     1     -40.968  56.061 -54.206  1.00  0.00     0.007 A 
HETATM   19  C   UNL     1     -40.407  54.785 -54.289  1.00  0.00     0.001 A 
HETATM   20  C   UNL     1     -41.178  53.710 -54.725  1.00  0.00     0.000 A 
HETATM   21  C   UNL     1     -42.510  53.910 -55.080  1.00  0.00     0.001 A 
HETATM   22  C   UNL     1     -43.072  55.185 -55.002  1.00  0.00     0.007 A 
ENDBRANCH  16  17
ENDBRANCH  15  16
ENDBRANCH   2  15
BRANCH   3  23
HETATM   23  C   UNL     1     -42.881  55.899 -51.012  1.00  0.00     0.012 A 
HETATM   24  C   UNL     1     -43.128  54.579 -51.399  1.00  0.00     0.018 A 
HETATM   25  C   UNL     1     -42.165  53.585 -51.183  1.00  0.00     0.037 A 
HETATM   26  C   UNL     1     -40.933  53.892 -50.603  1.00  0.00     0.068 A 
HETATM   27  C   UNL     1     -40.671  55.207 -50.227  1.00  0.00     0.037 A 
HETATM   28  C   UNL     1     -41.636  56.200 -50.434  1.00  0.00     0.018 A 
BRANCH  26  29
HETATM   29  O   UNL     1     -40.080  52.833 -50.462  1.00  0.00    -0.356 OA
HETATM   30  C   UNL     1     -39.736  52.127 -51.648  1.00  0.00     0.210 C 
ENDBRANCH  26  29
ENDBRANCH   3  23
TORSDOF 9
ENDMDL
