MODEL 1
REMARK VINA RESULT:      -9.1      0.000      0.000
REMARK  4 active torsions:
REMARK  status: ('A' for Active; 'I' for Inactive)
REMARK       I    between atoms: N_10  and  C_11 
REMARK    1  A    between atoms: C_11  and  C_12 
REMARK    2  A    between atoms: C_12  and  O_13 
REMARK    3  A    between atoms: O_13  and  C_14 
REMARK    4  A    between atoms: C_15  and  C_16 
ROOT
HETATM    1  C   UNL     1     -39.666  49.784 -53.790  1.00  0.00     0.001 A 
HETATM    2  C   UNL     1     -40.138  50.969 -54.364  1.00  0.00     0.014 A 
HETATM    3  C   UNL     1     -40.321  52.107 -53.552  1.00  0.00     0.000 A 
HETATM    4  C   UNL     1     -40.023  52.011 -52.189  1.00  0.00     0.043 A 
HETATM    5  N   UNL     1     -40.282  53.242 -51.622  1.00  0.00    -0.358 N 
HETATM    6  H   UNL     1     -40.161  53.458 -50.642  1.00  0.00     0.166 HD
HETATM    7  C   UNL     1     -40.714  54.103 -52.586  1.00  0.00     0.020 A 
HETATM    8  C   UNL     1     -40.764  53.440 -53.794  1.00  0.00    -0.005 A 
HETATM    9  C   UNL     1     -41.194  54.081 -55.070  1.00  0.00     0.167 C 
HETATM   10  N   UNL     1     -41.632  55.477 -54.852  1.00  0.00    -0.346 N 
HETATM   11  C   UNL     1     -42.279  56.207 -55.849  1.00  0.00     0.244 C 
HETATM   12  O   UNL     1     -42.386  57.437 -55.795  1.00  0.00    -0.271 OA
HETATM   13  C   UNL     1     -40.994  56.238 -53.758  1.00  0.00     0.132 C 
HETATM   14  C   UNL     1     -41.085  55.526 -52.394  1.00  0.00     0.077 C 
HETATM   15  C   UNL     1     -39.553  50.831 -51.600  1.00  0.00     0.030 A 
HETATM   16  C   UNL     1     -39.379  49.718 -52.428  1.00  0.00     0.002 A 
ENDROOT
BRANCH  11  17
HETATM   17  C   UNL     1     -42.853  55.450 -57.049  1.00  0.00     0.278 C 
BRANCH  17  18
HETATM   18  O   UNL     1     -42.882  56.309 -58.182  1.00  0.00    -0.341 OA
BRANCH  18  19
HETATM   19  C   UNL     1     -43.923  56.142 -59.058  1.00  0.00     0.077 A 
HETATM   20  C   UNL     1     -44.843  57.206 -59.151  1.00  0.00    -0.001 A 
HETATM   21  C   UNL     1     -45.927  57.077 -60.044  1.00  0.00     0.012 A 
HETATM   22  C   UNL     1     -46.103  55.922 -60.804  1.00  0.00     0.001 A 
HETATM   23  C   UNL     1     -45.201  54.870 -60.683  1.00  0.00     0.003 A 
HETATM   24  C   UNL     1     -44.117  54.978 -59.812  1.00  0.00     0.037 A 
BRANCH  20  25
HETATM   25  C   UNL     1     -44.656  58.471 -58.334  1.00  0.00     0.144 C 
HETATM   26  S   UNL     1     -44.822  59.979 -59.352  1.00  0.00    -0.148 SA
HETATM   27  C   UNL     1     -45.478  61.017 -58.029  1.00  0.00     0.085 C 
HETATM   28  C   UNL     1     -46.519  60.193 -57.299  1.00  0.00     0.085 C 
HETATM   29  S   UNL     1     -45.808  58.571 -56.910  1.00  0.00    -0.148 SA
ENDBRANCH  20  25
ENDBRANCH  18  19
ENDBRANCH  17  18
ENDBRANCH  11  17
TORSDOF 4
ENDMDL
MODEL 2
REMARK VINA RESULT:      -8.6      1.722      3.000
REMARK  4 active torsions:
REMARK  status: ('A' for Active; 'I' for Inactive)
REMARK       I    between atoms: N_10  and  C_11 
REMARK    1  A    between atoms: C_11  and  C_12 
REMARK    2  A    between atoms: C_12  and  O_13 
REMARK    3  A    between atoms: O_13  and  C_14 
REMARK    4  A    between atoms: C_15  and  C_16 
ROOT
HETATM    1  C   UNL     1     -39.696  50.224 -54.179  1.00  0.00     0.001 A 
HETATM    2  C   UNL     1     -40.147  51.523 -54.438  1.00  0.00     0.014 A 
HETATM    3  C   UNL     1     -40.372  52.406 -53.363  1.00  0.00     0.000 A 
HETATM    4  C   UNL     1     -40.137  51.950 -52.062  1.00  0.00     0.043 A 
HETATM    5  N   UNL     1     -40.427  52.987 -51.201  1.00  0.00    -0.358 N 
HETATM    6  H   UNL     1     -40.352  52.935 -50.195  1.00  0.00     0.166 HD
HETATM    7  C   UNL     1     -40.819  54.077 -51.920  1.00  0.00     0.020 A 
HETATM    8  C   UNL     1     -40.811  53.758 -53.262  1.00  0.00    -0.005 A 
HETATM    9  C   UNL     1     -41.185  54.719 -54.340  1.00  0.00     0.167 C 
HETATM   10  N   UNL     1     -41.640  56.010 -53.779  1.00  0.00    -0.346 N 
HETATM   11  C   UNL     1     -42.245  56.983 -54.575  1.00  0.00     0.244 C 
HETATM   12  O   UNL     1     -42.360  58.155 -54.201  1.00  0.00    -0.271 OA
HETATM   13  C   UNL     1     -41.056  56.447 -52.494  1.00  0.00     0.132 C 
HETATM   14  C   UNL     1     -41.206  55.400 -51.374  1.00  0.00     0.077 C 
HETATM   15  C   UNL     1     -39.687  50.652 -51.788  1.00  0.00     0.030 A 
HETATM   16  C   UNL     1     -39.471  49.798 -52.873  1.00  0.00     0.002 A 
ENDROOT
BRANCH  11  17
HETATM   17  C   UNL     1     -42.759  56.576 -55.957  1.00  0.00     0.278 C 
BRANCH  17  18
HETATM   18  O   UNL     1     -43.592  57.605 -56.476  1.00  0.00    -0.341 OA
BRANCH  18  19
HETATM   19  C   UNL     1     -43.101  58.324 -57.534  1.00  0.00     0.077 A 
HETATM   20  C   UNL     1     -43.605  57.994 -58.807  1.00  0.00    -0.001 A 
HETATM   21  C   UNL     1     -43.129  58.714 -59.923  1.00  0.00     0.012 A 
HETATM   22  C   UNL     1     -42.169  59.714 -59.781  1.00  0.00     0.001 A 
HETATM   23  C   UNL     1     -41.662  60.013 -58.521  1.00  0.00     0.003 A 
HETATM   24  C   UNL     1     -42.124  59.319 -57.401  1.00  0.00     0.037 A 
BRANCH  20  25
HETATM   25  C   UNL     1     -44.656  56.912 -58.973  1.00  0.00     0.144 C 
HETATM   26  S   UNL     1     -46.065  57.470 -59.992  1.00  0.00    -0.148 SA
HETATM   27  C   UNL     1     -46.445  55.844 -60.679  1.00  0.00     0.085 C 
HETATM   28  C   UNL     1     -45.124  55.214 -61.071  1.00  0.00     0.085 C 
HETATM   29  S   UNL     1     -43.972  55.362 -59.679  1.00  0.00    -0.148 SA
ENDBRANCH  20  25
ENDBRANCH  18  19
ENDBRANCH  17  18
ENDBRANCH  11  17
TORSDOF 4
ENDMDL
MODEL 3
REMARK VINA RESULT:      -8.5      1.416      1.748
REMARK  4 active torsions:
REMARK  status: ('A' for Active; 'I' for Inactive)
REMARK       I    between atoms: N_10  and  C_11 
REMARK    1  A    between atoms: C_11  and  C_12 
REMARK    2  A    between atoms: C_12  and  O_13 
REMARK    3  A    between atoms: O_13  and  C_14 
REMARK    4  A    between atoms: C_15  and  C_16 
ROOT
HETATM    1  C   UNL     1     -39.781  50.139 -54.169  1.00  0.00     0.001 A 
HETATM    2  C   UNL     1     -40.309  51.420 -54.365  1.00  0.00     0.014 A 
HETATM    3  C   UNL     1     -40.446  52.289 -53.264  1.00  0.00     0.000 A 
HETATM    4  C   UNL     1     -40.048  51.836 -52.001  1.00  0.00     0.043 A 
HETATM    5  N   UNL     1     -40.280  52.858 -51.104  1.00  0.00    -0.358 N 
HETATM    6  H   UNL     1     -40.090  52.805 -50.113  1.00  0.00     0.166 HD
HETATM    7  C   UNL     1     -40.792  53.934 -51.765  1.00  0.00     0.020 A 
HETATM    8  C   UNL     1     -40.922  53.622 -53.102  1.00  0.00    -0.005 A 
HETATM    9  C   UNL     1     -41.453  54.571 -54.124  1.00  0.00     0.167 C 
HETATM   10  N   UNL     1     -41.892  55.841 -53.504  1.00  0.00    -0.346 N 
HETATM   11  C   UNL     1     -42.619  56.793 -54.218  1.00  0.00     0.244 C 
HETATM   12  O   UNL     1     -42.738  57.957 -53.824  1.00  0.00    -0.271 OA
HETATM   13  C   UNL     1     -41.184  56.296 -52.289  1.00  0.00     0.132 C 
HETATM   14  C   UNL     1     -41.166  55.239 -51.168  1.00  0.00     0.077 C 
HETATM   15  C   UNL     1     -39.521  50.556 -51.790  1.00  0.00     0.030 A 
HETATM   16  C   UNL     1     -39.394  49.716 -52.900  1.00  0.00     0.002 A 
ENDROOT
BRANCH  11  17
HETATM   17  C   UNL     1     -43.270  56.371 -55.538  1.00  0.00     0.278 C 
BRANCH  17  18
HETATM   18  O   UNL     1     -42.521  56.898 -56.626  1.00  0.00    -0.341 OA
BRANCH  18  19
HETATM   19  C   UNL     1     -43.068  56.764 -57.875  1.00  0.00     0.077 A 
HETATM   20  C   UNL     1     -43.525  57.945 -58.491  1.00  0.00    -0.001 A 
HETATM   21  C   UNL     1     -44.090  57.853 -59.781  1.00  0.00     0.012 A 
HETATM   22  C   UNL     1     -44.216  56.624 -60.427  1.00  0.00     0.001 A 
HETATM   23  C   UNL     1     -43.782  55.463 -59.797  1.00  0.00     0.003 A 
HETATM   24  C   UNL     1     -43.212  55.531 -58.525  1.00  0.00     0.037 A 
BRANCH  20  25
HETATM   25  C   UNL     1     -43.386  59.289 -57.800  1.00  0.00     0.144 C 
HETATM   26  S   UNL     1     -41.774  60.077 -58.143  1.00  0.00    -0.148 SA
HETATM   27  C   UNL     1     -42.379  61.775 -58.035  1.00  0.00     0.085 C 
HETATM   28  C   UNL     1     -43.689  61.824 -58.794  1.00  0.00     0.085 C 
HETATM   29  S   UNL     1     -44.736  60.453 -58.236  1.00  0.00    -0.148 SA
ENDBRANCH  20  25
ENDBRANCH  18  19
ENDBRANCH  17  18
ENDBRANCH  11  17
TORSDOF 4
ENDMDL
MODEL 4
REMARK VINA RESULT:      -8.1      3.019      4.863
REMARK  4 active torsions:
REMARK  status: ('A' for Active; 'I' for Inactive)
REMARK       I    between atoms: N_10  and  C_11 
REMARK    1  A    between atoms: C_11  and  C_12 
REMARK    2  A    between atoms: C_12  and  O_13 
REMARK    3  A    between atoms: O_13  and  C_14 
REMARK    4  A    between atoms: C_15  and  C_16 
ROOT
HETATM    1  C   UNL     1     -39.758  50.406 -54.357  1.00  0.00     0.001 A 
HETATM    2  C   UNL     1     -40.093  51.699 -53.941  1.00  0.00     0.014 A 
HETATM    3  C   UNL     1     -40.174  51.983 -52.563  1.00  0.00     0.000 A 
HETATM    4  C   UNL     1     -39.915  50.955 -51.651  1.00  0.00     0.043 A 
HETATM    5  N   UNL     1     -40.057  51.480 -50.384  1.00  0.00    -0.358 N 
HETATM    6  H   UNL     1     -39.934  50.956 -49.529  1.00  0.00     0.166 HD
HETATM    7  C   UNL     1     -40.378  52.802 -50.474  1.00  0.00     0.020 A 
HETATM    8  C   UNL     1     -40.472  53.153 -51.805  1.00  0.00    -0.005 A 
HETATM    9  C   UNL     1     -40.808  54.529 -52.274  1.00  0.00     0.167 C 
HETATM   10  N   UNL     1     -41.105  55.429 -51.138  1.00  0.00    -0.346 N 
HETATM   11  C   UNL     1     -41.653  56.697 -51.331  1.00  0.00     0.244 C 
HETATM   12  O   UNL     1     -41.633  57.559 -50.447  1.00  0.00    -0.271 OA
HETATM   13  C   UNL     1     -40.413  55.173 -49.857  1.00  0.00     0.132 C 
HETATM   14  C   UNL     1     -40.605  53.733 -49.343  1.00  0.00     0.077 C 
HETATM   15  C   UNL     1     -39.581  49.656 -52.054  1.00  0.00     0.030 A 
HETATM   16  C   UNL     1     -39.506  49.401 -53.426  1.00  0.00     0.002 A 
ENDROOT
BRANCH  11  17
HETATM   17  C   UNL     1     -42.277  57.021 -52.690  1.00  0.00     0.278 C 
BRANCH  17  18
HETATM   18  O   UNL     1     -43.679  56.791 -52.635  1.00  0.00    -0.341 OA
BRANCH  18  19
HETATM   19  C   UNL     1     -44.475  57.880 -52.391  1.00  0.00     0.077 A 
HETATM   20  C   UNL     1     -44.704  58.747 -53.478  1.00  0.00    -0.001 A 
HETATM   21  C   UNL     1     -45.522  59.878 -53.272  1.00  0.00     0.012 A 
HETATM   22  C   UNL     1     -46.076  60.150 -52.022  1.00  0.00     0.001 A 
HETATM   23  C   UNL     1     -45.821  59.299 -50.953  1.00  0.00     0.003 A 
HETATM   24  C   UNL     1     -45.021  58.170 -51.135  1.00  0.00     0.037 A 
BRANCH  20  25
HETATM   25  C   UNL     1     -44.112  58.457 -54.845  1.00  0.00     0.144 C 
HETATM   26  S   UNL     1     -45.389  58.389 -56.149  1.00  0.00    -0.148 SA
HETATM   27  C   UNL     1     -44.321  58.987 -57.477  1.00  0.00     0.085 C 
HETATM   28  C   UNL     1     -43.536  60.156 -56.916  1.00  0.00     0.085 C 
HETATM   29  S   UNL     1     -42.816  59.663 -55.327  1.00  0.00    -0.148 SA
ENDBRANCH  20  25
ENDBRANCH  18  19
ENDBRANCH  17  18
ENDBRANCH  11  17
TORSDOF 4
ENDMDL
MODEL 5
REMARK VINA RESULT:      -8.1      3.779      7.947
REMARK  4 active torsions:
REMARK  status: ('A' for Active; 'I' for Inactive)
REMARK       I    between atoms: N_10  and  C_11 
REMARK    1  A    between atoms: C_11  and  C_12 
REMARK    2  A    between atoms: C_12  and  O_13 
REMARK    3  A    between atoms: O_13  and  C_14 
REMARK    4  A    between atoms: C_15  and  C_16 
ROOT
HETATM    1  C   UNL     1     -40.191  59.323 -50.411  1.00  0.00     0.001 A 
HETATM    2  C   UNL     1     -40.421  58.464 -51.491  1.00  0.00     0.014 A 
HETATM    3  C   UNL     1     -41.632  58.557 -52.206  1.00  0.00     0.000 A 
HETATM    4  C   UNL     1     -42.572  59.513 -51.807  1.00  0.00     0.043 A 
HETATM    5  N   UNL     1     -43.655  59.406 -52.653  1.00  0.00    -0.358 N 
HETATM    6  H   UNL     1     -44.489  59.973 -52.592  1.00  0.00     0.166 HD
HETATM    7  C   UNL     1     -43.417  58.429 -53.573  1.00  0.00     0.020 A 
HETATM    8  C   UNL     1     -42.181  57.869 -53.326  1.00  0.00    -0.005 A 
HETATM    9  C   UNL     1     -41.595  56.767 -54.144  1.00  0.00     0.167 C 
HETATM   10  N   UNL     1     -42.540  56.306 -55.185  1.00  0.00    -0.346 N 
HETATM   11  C   UNL     1     -42.308  55.148 -55.926  1.00  0.00     0.244 C 
HETATM   12  O   UNL     1     -42.913  54.910 -56.976  1.00  0.00    -0.271 OA
HETATM   13  C   UNL     1     -43.484  57.296 -55.746  1.00  0.00     0.132 C 
HETATM   14  C   UNL     1     -44.324  58.008 -54.668  1.00  0.00     0.077 C 
HETATM   15  C   UNL     1     -42.357  60.378 -50.727  1.00  0.00     0.030 A 
HETATM   16  C   UNL     1     -41.146  60.265 -50.037  1.00  0.00     0.002 A 
ENDROOT
BRANCH  11  17
HETATM   17  C   UNL     1     -41.253  54.161 -55.421  1.00  0.00     0.278 C 
BRANCH  17  18
HETATM   18  O   UNL     1     -41.755  53.471 -54.284  1.00  0.00    -0.341 OA
BRANCH  18  19
HETATM   19  C   UNL     1     -40.963  52.483 -53.760  1.00  0.00     0.077 A 
HETATM   20  C   UNL     1     -40.425  52.720 -52.480  1.00  0.00    -0.001 A 
HETATM   21  C   UNL     1     -39.608  51.725 -51.902  1.00  0.00     0.012 A 
HETATM   22  C   UNL     1     -39.318  50.544 -52.583  1.00  0.00     0.001 A 
HETATM   23  C   UNL     1     -39.836  50.334 -53.856  1.00  0.00     0.003 A 
HETATM   24  C   UNL     1     -40.653  51.300 -54.445  1.00  0.00     0.037 A 
BRANCH  20  25
HETATM   25  C   UNL     1     -40.741  53.999 -51.726  1.00  0.00     0.144 C 
HETATM   26  S   UNL     1     -42.513  54.131 -51.306  1.00  0.00    -0.148 SA
HETATM   27  C   UNL     1     -42.267  55.073 -49.786  1.00  0.00     0.085 C 
HETATM   28  C   UNL     1     -41.118  54.419 -49.046  1.00  0.00     0.085 C 
HETATM   29  S   UNL     1     -39.740  54.187 -50.200  1.00  0.00    -0.148 SA
ENDBRANCH  20  25
ENDBRANCH  18  19
ENDBRANCH  17  18
ENDBRANCH  11  17
TORSDOF 4
ENDMDL
MODEL 6
REMARK VINA RESULT:      -8.1      2.890      3.996
REMARK  4 active torsions:
REMARK  status: ('A' for Active; 'I' for Inactive)
REMARK       I    between atoms: N_10  and  C_11 
REMARK    1  A    between atoms: C_11  and  C_12 
REMARK    2  A    between atoms: C_12  and  O_13 
REMARK    3  A    between atoms: O_13  and  C_14 
REMARK    4  A    between atoms: C_15  and  C_16 
ROOT
HETATM    1  C   UNL     1     -39.482  50.548 -54.547  1.00  0.00     0.001 A 
HETATM    2  C   UNL     1     -39.774  51.791 -53.974  1.00  0.00     0.014 A 
HETATM    3  C   UNL     1     -39.973  51.882 -52.582  1.00  0.00     0.000 A 
HETATM    4  C   UNL     1     -39.873  50.717 -51.814  1.00  0.00     0.043 A 
HETATM    5  N   UNL     1     -40.106  51.066 -50.500  1.00  0.00    -0.358 N 
HETATM    6  H   UNL     1     -40.102  50.418 -49.726  1.00  0.00     0.166 HD
HETATM    7  C   UNL     1     -40.332  52.408 -50.421  1.00  0.00     0.020 A 
HETATM    8  C   UNL     1     -40.271  52.951 -51.687  1.00  0.00    -0.005 A 
HETATM    9  C   UNL     1     -40.470  54.401 -51.974  1.00  0.00     0.167 C 
HETATM   10  N   UNL     1     -40.820  55.151 -50.748  1.00  0.00    -0.346 N 
HETATM   11  C   UNL     1     -41.265  56.472 -50.797  1.00  0.00     0.244 C 
HETATM   12  O   UNL     1     -41.279  57.196 -49.796  1.00  0.00    -0.271 OA
HETATM   13  C   UNL     1     -40.277  54.663 -49.463  1.00  0.00     0.132 C 
HETATM   14  C   UNL     1     -40.610  53.183 -49.188  1.00  0.00     0.077 C 
HETATM   15  C   UNL     1     -39.583  49.467 -52.374  1.00  0.00     0.030 A 
HETATM   16  C   UNL     1     -39.389  49.405 -53.757  1.00  0.00     0.002 A 
ENDROOT
BRANCH  11  17
HETATM   17  C   UNL     1     -41.729  57.033 -52.143  1.00  0.00     0.278 C 
BRANCH  17  18
HETATM   18  O   UNL     1     -42.949  56.409 -52.522  1.00  0.00    -0.341 OA
BRANCH  18  19
HETATM   19  C   UNL     1     -43.026  55.932 -53.805  1.00  0.00     0.077 A 
HETATM   20  C   UNL     1     -43.271  56.882 -54.816  1.00  0.00    -0.001 A 
HETATM   21  C   UNL     1     -43.353  56.434 -56.151  1.00  0.00     0.012 A 
HETATM   22  C   UNL     1     -43.218  55.084 -56.469  1.00  0.00     0.001 A 
HETATM   23  C   UNL     1     -43.001  54.153 -55.458  1.00  0.00     0.003 A 
HETATM   24  C   UNL     1     -42.908  54.574 -54.130  1.00  0.00     0.037 A 
BRANCH  20  25
HETATM   25  C   UNL     1     -43.412  58.356 -54.482  1.00  0.00     0.144 C 
HETATM   26  S   UNL     1     -42.120  59.370 -55.282  1.00  0.00    -0.148 SA
HETATM   27  C   UNL     1     -43.136  60.853 -55.450  1.00  0.00     0.085 C 
HETATM   28  C   UNL     1     -44.494  60.401 -55.949  1.00  0.00     0.085 C 
HETATM   29  S   UNL     1     -45.064  59.025 -54.915  1.00  0.00    -0.148 SA
ENDBRANCH  20  25
ENDBRANCH  18  19
ENDBRANCH  17  18
ENDBRANCH  11  17
TORSDOF 4
ENDMDL
MODEL 7
REMARK VINA RESULT:      -8.1      2.135      3.879
REMARK  4 active torsions:
REMARK  status: ('A' for Active; 'I' for Inactive)
REMARK       I    between atoms: N_10  and  C_11 
REMARK    1  A    between atoms: C_11  and  C_12 
REMARK    2  A    between atoms: C_12  and  O_13 
REMARK    3  A    between atoms: O_13  and  C_14 
REMARK    4  A    between atoms: C_15  and  C_16 
ROOT
HETATM    1  C   UNL     1     -39.847  50.562 -54.363  1.00  0.00     0.001 A 
HETATM    2  C   UNL     1     -40.307  51.872 -54.190  1.00  0.00     0.014 A 
HETATM    3  C   UNL     1     -40.363  52.421 -52.893  1.00  0.00     0.000 A 
HETATM    4  C   UNL     1     -39.956  51.629 -51.813  1.00  0.00     0.043 A 
HETATM    5  N   UNL     1     -40.104  52.384 -50.668  1.00  0.00    -0.358 N 
HETATM    6  H   UNL     1     -39.889  52.059 -49.736  1.00  0.00     0.166 HD
HETATM    7  C   UNL     1     -40.573  53.620 -50.998  1.00  0.00     0.020 A 
HETATM    8  C   UNL     1     -40.759  53.683 -52.363  1.00  0.00    -0.005 A 
HETATM    9  C   UNL     1     -41.263  54.894 -53.073  1.00  0.00     0.167 C 
HETATM   10  N   UNL     1     -41.612  55.972 -52.121  1.00  0.00    -0.346 N 
HETATM   11  C   UNL     1     -42.305  57.113 -52.525  1.00  0.00     0.244 C 
HETATM   12  O   UNL     1     -42.345  58.134 -51.832  1.00  0.00    -0.271 OA
HETATM   13  C   UNL     1     -40.845  56.052 -50.859  1.00  0.00     0.132 C 
HETATM   14  C   UNL     1     -40.856  54.734 -50.061  1.00  0.00     0.077 C 
HETATM   15  C   UNL     1     -39.496  50.316 -51.972  1.00  0.00     0.030 A 
HETATM   16  C   UNL     1     -39.449  49.798 -53.269  1.00  0.00     0.002 A 
ENDROOT
BRANCH  11  17
HETATM   17  C   UNL     1     -43.015  57.090 -53.880  1.00  0.00     0.278 C 
BRANCH  17  18
HETATM   18  O   UNL     1     -42.336  57.951 -54.786  1.00  0.00    -0.341 OA
BRANCH  18  19
HETATM   19  C   UNL     1     -43.072  58.962 -55.347  1.00  0.00     0.077 A 
HETATM   20  C   UNL     1     -43.127  58.994 -56.755  1.00  0.00    -0.001 A 
HETATM   21  C   UNL     1     -43.878  60.015 -57.373  1.00  0.00     0.012 A 
HETATM   22  C   UNL     1     -44.536  60.985 -56.618  1.00  0.00     0.001 A 
HETATM   23  C   UNL     1     -44.453  60.956 -55.230  1.00  0.00     0.003 A 
HETATM   24  C   UNL     1     -43.722  59.950 -54.596  1.00  0.00     0.037 A 
BRANCH  20  25
HETATM   25  C   UNL     1     -42.422  57.938 -57.586  1.00  0.00     0.144 C 
HETATM   26  S   UNL     1     -43.416  56.415 -57.753  1.00  0.00    -0.148 SA
HETATM   27  C   UNL     1     -42.786  55.968 -59.386  1.00  0.00     0.085 C 
HETATM   28  C   UNL     1     -42.769  57.238 -60.212  1.00  0.00     0.085 C 
HETATM   29  S   UNL     1     -41.955  58.545 -59.254  1.00  0.00    -0.148 SA
ENDBRANCH  20  25
ENDBRANCH  18  19
ENDBRANCH  17  18
ENDBRANCH  11  17
TORSDOF 4
ENDMDL
MODEL 8
REMARK VINA RESULT:      -8.1      4.220      5.800
REMARK  4 active torsions:
REMARK  status: ('A' for Active; 'I' for Inactive)
REMARK       I    between atoms: N_10  and  C_11 
REMARK    1  A    between atoms: C_11  and  C_12 
REMARK    2  A    between atoms: C_12  and  O_13 
REMARK    3  A    between atoms: O_13  and  C_14 
REMARK    4  A    between atoms: C_15  and  C_16 
ROOT
HETATM    1  C   UNL     1     -40.168  50.836 -50.036  1.00  0.00     0.001 A 
HETATM    2  C   UNL     1     -40.469  52.100 -50.554  1.00  0.00     0.014 A 
HETATM    3  C   UNL     1     -40.288  52.345 -51.931  1.00  0.00     0.000 A 
HETATM    4  C   UNL     1     -39.808  51.309 -52.737  1.00  0.00     0.043 A 
HETATM    5  N   UNL     1     -39.719  51.794 -54.025  1.00  0.00    -0.358 N 
HETATM    6  H   UNL     1     -39.394  51.259 -54.818  1.00  0.00     0.166 HD
HETATM    7  C   UNL     1     -40.143  53.089 -54.052  1.00  0.00     0.020 A 
HETATM    8  C   UNL     1     -40.493  53.475 -52.775  1.00  0.00    -0.005 A 
HETATM    9  C   UNL     1     -41.003  54.835 -52.434  1.00  0.00     0.167 C 
HETATM   10  N   UNL     1     -41.001  55.724 -53.617  1.00  0.00    -0.346 N 
HETATM   11  C   UNL     1     -41.225  57.096 -53.504  1.00  0.00     0.244 C 
HETATM   12  O   UNL     1     -41.516  57.794 -54.480  1.00  0.00    -0.271 OA
HETATM   13  C   UNL     1     -41.210  55.107 -54.943  1.00  0.00     0.132 C 
HETATM   14  C   UNL     1     -40.216  53.968 -55.243  1.00  0.00     0.077 C 
HETATM   15  C   UNL     1     -39.500  50.040 -52.231  1.00  0.00     0.030 A 
HETATM   16  C   UNL     1     -39.690  49.823 -50.863  1.00  0.00     0.002 A 
ENDROOT
BRANCH  11  17
HETATM   17  C   UNL     1     -41.123  57.738 -52.118  1.00  0.00     0.278 C 
BRANCH  17  18
HETATM   18  O   UNL     1     -41.813  58.981 -52.119  1.00  0.00    -0.341 OA
BRANCH  18  19
HETATM   19  C   UNL     1     -43.114  58.966 -51.688  1.00  0.00     0.077 A 
HETATM   20  C   UNL     1     -43.715  60.219 -51.457  1.00  0.00    -0.001 A 
HETATM   21  C   UNL     1     -45.056  60.248 -51.018  1.00  0.00     0.012 A 
HETATM   22  C   UNL     1     -45.768  59.071 -50.795  1.00  0.00     0.001 A 
HETATM   23  C   UNL     1     -45.154  57.841 -51.004  1.00  0.00     0.003 A 
HETATM   24  C   UNL     1     -43.831  57.787 -51.446  1.00  0.00     0.037 A 
BRANCH  20  25
HETATM   25  C   UNL     1     -42.952  61.507 -51.704  1.00  0.00     0.144 C 
HETATM   26  S   UNL     1     -43.332  62.231 -53.337  1.00  0.00    -0.148 SA
HETATM   27  C   UNL     1     -43.088  63.948 -52.833  1.00  0.00     0.085 C 
HETATM   28  C   UNL     1     -43.771  64.112 -51.491  1.00  0.00     0.085 C 
HETATM   29  S   UNL     1     -43.243  62.764 -50.400  1.00  0.00    -0.148 SA
ENDBRANCH  20  25
ENDBRANCH  18  19
ENDBRANCH  17  18
ENDBRANCH  11  17
TORSDOF 4
ENDMDL
MODEL 9
REMARK VINA RESULT:      -8.1      1.567      2.085
REMARK  4 active torsions:
REMARK  status: ('A' for Active; 'I' for Inactive)
REMARK       I    between atoms: N_10  and  C_11 
REMARK    1  A    between atoms: C_11  and  C_12 
REMARK    2  A    between atoms: C_12  and  O_13 
REMARK    3  A    between atoms: O_13  and  C_14 
REMARK    4  A    between atoms: C_15  and  C_16 
ROOT
HETATM    1  C   UNL     1     -40.197  51.103 -54.263  1.00  0.00     0.001 A 
HETATM    2  C   UNL     1     -40.860  52.333 -54.323  1.00  0.00     0.014 A 
HETATM    3  C   UNL     1     -40.835  53.189 -53.203  1.00  0.00     0.000 A 
HETATM    4  C   UNL     1     -40.144  52.774 -52.060  1.00  0.00     0.043 A 
HETATM    5  N   UNL     1     -40.268  53.773 -51.116  1.00  0.00    -0.358 N 
HETATM    6  H   UNL     1     -39.870  53.738 -50.189  1.00  0.00     0.166 HD
HETATM    7  C   UNL     1     -40.996  54.801 -51.638  1.00  0.00     0.020 A 
HETATM    8  C   UNL     1     -41.377  54.476 -52.923  1.00  0.00    -0.005 A 
HETATM    9  C   UNL     1     -42.189  55.376 -53.795  1.00  0.00     0.167 C 
HETATM   10  N   UNL     1     -42.593  56.604 -53.076  1.00  0.00    -0.346 N 
HETATM   11  C   UNL     1     -43.531  57.489 -53.606  1.00  0.00     0.244 C 
HETATM   12  O   UNL     1     -43.662  58.639 -53.177  1.00  0.00    -0.271 OA
HETATM   13  C   UNL     1     -41.687  57.120 -52.028  1.00  0.00     0.132 C 
HETATM   14  C   UNL     1     -41.345  56.069 -50.954  1.00  0.00     0.077 C 
HETATM   15  C   UNL     1     -39.479  51.544 -51.985  1.00  0.00     0.030 A 
HETATM   16  C   UNL     1     -39.518  50.716 -53.110  1.00  0.00     0.002 A 
ENDROOT
BRANCH  11  17
HETATM   17  C   UNL     1     -44.407  57.011 -54.767  1.00  0.00     0.278 C 
BRANCH  17  18
HETATM   18  O   UNL     1     -44.312  57.935 -55.844  1.00  0.00    -0.341 OA
BRANCH  18  19
HETATM   19  C   UNL     1     -43.992  57.420 -57.073  1.00  0.00     0.077 A 
HETATM   20  C   UNL     1     -44.557  58.066 -58.191  1.00  0.00    -0.001 A 
HETATM   21  C   UNL     1     -44.249  57.571 -59.476  1.00  0.00     0.012 A 
HETATM   22  C   UNL     1     -43.425  56.459 -59.644  1.00  0.00     0.001 A 
HETATM   23  C   UNL     1     -42.895  55.817 -58.530  1.00  0.00     0.003 A 
HETATM   24  C   UNL     1     -43.179  56.293 -57.249  1.00  0.00     0.037 A 
BRANCH  20  25
HETATM   25  C   UNL     1     -45.449  59.282 -58.021  1.00  0.00     0.144 C 
HETATM   26  S   UNL     1     -45.144  60.545 -59.305  1.00  0.00    -0.148 SA
HETATM   27  C   UNL     1     -46.834  61.179 -59.337  1.00  0.00     0.085 C 
HETATM   28  C   UNL     1     -47.754  59.975 -59.328  1.00  0.00     0.085 C 
HETATM   29  S   UNL     1     -47.233  58.854 -58.002  1.00  0.00    -0.148 SA
ENDBRANCH  20  25
ENDBRANCH  18  19
ENDBRANCH  17  18
ENDBRANCH  11  17
TORSDOF 4
ENDMDL
MODEL 10
REMARK VINA RESULT:      -8.0      4.191      6.499
REMARK  4 active torsions:
REMARK  status: ('A' for Active; 'I' for Inactive)
REMARK       I    between atoms: N_10  and  C_11 
REMARK    1  A    between atoms: C_11  and  C_12 
REMARK    2  A    between atoms: C_12  and  O_13 
REMARK    3  A    between atoms: O_13  and  C_14 
REMARK    4  A    between atoms: C_15  and  C_16 
ROOT
HETATM    1  C   UNL     1     -40.241  52.195 -50.641  1.00  0.00     0.001 A 
HETATM    2  C   UNL     1     -41.146  53.138 -51.140  1.00  0.00     0.014 A 
HETATM    3  C   UNL     1     -41.209  53.373 -52.528  1.00  0.00     0.000 A 
HETATM    4  C   UNL     1     -40.355  52.650 -53.367  1.00  0.00     0.043 A 
HETATM    5  N   UNL     1     -40.605  53.055 -54.662  1.00  0.00    -0.358 N 
HETATM    6  H   UNL     1     -40.126  52.701 -55.477  1.00  0.00     0.166 HD
HETATM    7  C   UNL     1     -41.595  53.992 -54.659  1.00  0.00     0.020 A 
HETATM    8  C   UNL     1     -41.990  54.228 -53.358  1.00  0.00    -0.005 A 
HETATM    9  C   UNL     1     -43.059  55.198 -52.983  1.00  0.00     0.167 C 
HETATM   10  N   UNL     1     -43.570  55.923 -54.167  1.00  0.00    -0.346 N 
HETATM   11  C   UNL     1     -44.412  57.028 -54.044  1.00  0.00     0.244 C 
HETATM   12  O   UNL     1     -45.073  57.457 -54.995  1.00  0.00    -0.271 OA
HETATM   13  C   UNL     1     -43.559  55.217 -55.465  1.00  0.00     0.132 C 
HETATM   14  C   UNL     1     -42.168  54.672 -55.845  1.00  0.00     0.077 C 
HETATM   15  C   UNL     1     -39.442  51.704 -52.882  1.00  0.00     0.030 A 
HETATM   16  C   UNL     1     -39.403  51.491 -51.502  1.00  0.00     0.002 A 
ENDROOT
BRANCH  11  17
HETATM   17  C   UNL     1     -44.523  57.709 -52.677  1.00  0.00     0.278 C 
BRANCH  17  18
HETATM   18  O   UNL     1     -43.839  58.955 -52.711  1.00  0.00    -0.341 OA
BRANCH  18  19
HETATM   19  C   UNL     1     -42.748  59.084 -51.892  1.00  0.00     0.077 A 
HETATM   20  C   UNL     1     -42.750  60.180 -51.008  1.00  0.00    -0.001 A 
HETATM   21  C   UNL     1     -41.647  60.346 -50.144  1.00  0.00     0.012 A 
HETATM   22  C   UNL     1     -40.568  59.464 -50.173  1.00  0.00     0.001 A 
HETATM   23  C   UNL     1     -40.568  58.400 -51.069  1.00  0.00     0.003 A 
HETATM   24  C   UNL     1     -41.652  58.211 -51.927  1.00  0.00     0.037 A 
BRANCH  20  25
HETATM   25  C   UNL     1     -43.923  61.142 -50.962  1.00  0.00     0.144 C 
HETATM   26  S   UNL     1     -45.246  60.563 -49.844  1.00  0.00    -0.148 SA
HETATM   27  C   UNL     1     -45.814  62.210 -49.370  1.00  0.00     0.085 C 
HETATM   28  C   UNL     1     -44.576  63.039 -49.097  1.00  0.00     0.085 C 
HETATM   29  S   UNL     1     -43.426  62.842 -50.485  1.00  0.00    -0.148 SA
ENDBRANCH  20  25
ENDBRANCH  18  19
ENDBRANCH  17  18
ENDBRANCH  11  17
TORSDOF 4
ENDMDL
