MODEL 1
REMARK VINA RESULT:      -8.4      0.000      0.000
REMARK  7 active torsions:
REMARK  status: ('A' for Active; 'I' for Inactive)
REMARK    1  A    between atoms: C_8  and  C_9 
REMARK    2  A    between atoms: C_9  and  N_10 
REMARK    3  A    between atoms: C_9  and  C_14 
REMARK       I    between atoms: C_14  and  N_15 
REMARK    4  A    between atoms: N_15  and  C_16 
REMARK    5  A    between atoms: C_16  and  C_17 
REMARK    6  A    between atoms: C_17  and  C_18 
REMARK    7  A    between atoms: C_17  and  C_24 
ROOT
HETATM    1  C   UNL     1     -43.244  56.240 -55.966  1.00  0.00     0.253 C 
HETATM    2  N   UNL     1     -42.439  55.139 -56.129  1.00  0.00    -0.358 N 
HETATM    3  O   UNL     1     -44.020  56.408 -55.023  1.00  0.00    -0.271 OA
HETATM    4  H   UNL     1     -41.814  55.058 -56.920  1.00  0.00     0.162 HD
ENDROOT
BRANCH   2   5
HETATM    5  C   UNL     1     -42.456  54.009 -55.195  1.00  0.00     0.141 C 
BRANCH   5   6
HETATM    6  C   UNL     1     -41.306  54.039 -54.124  1.00  0.00     0.026 C 
HETATM    7  C   UNL     1     -40.119  54.795 -54.785  1.00  0.00     0.027 C 
BRANCH   6   8
HETATM    8  C   UNL     1     -41.871  54.799 -52.887  1.00  0.00    -0.044 A 
HETATM    9  C   UNL     1     -43.008  54.326 -52.197  1.00  0.00     0.008 A 
HETATM   10  C   UNL     1     -43.513  54.997 -51.079  1.00  0.00     0.001 A 
HETATM   11  C   UNL     1     -42.910  56.169 -50.639  1.00  0.00     0.000 A 
HETATM   12  C   UNL     1     -41.807  56.674 -51.320  1.00  0.00     0.001 A 
HETATM   13  C   UNL     1     -41.296  56.000 -52.434  1.00  0.00     0.008 A 
ENDBRANCH   6   8
BRANCH   6  14
HETATM   14  C   UNL     1     -40.726  52.642 -53.763  1.00  0.00    -0.044 A 
HETATM   15  C   UNL     1     -40.774  51.539 -54.633  1.00  0.00     0.008 A 
HETATM   16  C   UNL     1     -40.225  50.305 -54.269  1.00  0.00     0.001 A 
HETATM   17  C   UNL     1     -39.595  50.151 -53.037  1.00  0.00     0.000 A 
HETATM   18  C   UNL     1     -39.498  51.236 -52.174  1.00  0.00     0.001 A 
HETATM   19  C   UNL     1     -40.047  52.467 -52.536  1.00  0.00     0.008 A 
ENDBRANCH   6  14
ENDBRANCH   5   6
ENDBRANCH   2   5
BRANCH   1  20
HETATM   20  C   UNL     1     -43.221  57.284 -57.102  1.00  0.00     0.311 C 
BRANCH  20  21
HETATM   21  C   UNL     1     -44.423  57.161 -57.981  1.00  0.00     0.031 A 
HETATM   22  C   UNL     1     -44.686  56.269 -59.015  1.00  0.00     0.035 A 
HETATM   23  C   UNL     1     -43.931  55.134 -59.606  1.00  0.00     0.070 C 
HETATM   24  N   UNL     1     -45.935  56.589 -59.483  1.00  0.00    -0.282 N 
HETATM   25  H   UNL     1     -46.469  56.146 -60.227  1.00  0.00     0.189 HD
HETATM   26  N   UNL     1     -46.487  57.623 -58.844  1.00  0.00    -0.179 NA
HETATM   27  C   UNL     1     -45.595  57.975 -57.919  1.00  0.00     0.061 A 
HETATM   28  C   UNL     1     -45.918  59.095 -56.996  1.00  0.00     0.073 C 
ENDBRANCH  20  21
BRANCH  20  29
HETATM   29  N   UNL     1     -41.952  57.095 -57.875  1.00  0.00    -0.062 N 
HETATM   30  H   UNL     1     -41.247  57.784 -57.592  1.00  0.00     0.275 HD
HETATM   31  H   UNL     1     -41.571  56.177 -57.602  1.00  0.00     0.275 HD
HETATM   32  H   UNL     1     -42.104  57.123 -58.886  1.00  0.00     0.275 HD
ENDBRANCH  20  29
ENDBRANCH   1  20
TORSDOF 7
ENDMDL
MODEL 2
REMARK VINA RESULT:      -8.2      1.846      3.121
REMARK  7 active torsions:
REMARK  status: ('A' for Active; 'I' for Inactive)
REMARK    1  A    between atoms: C_8  and  C_9 
REMARK    2  A    between atoms: C_9  and  N_10 
REMARK    3  A    between atoms: C_9  and  C_14 
REMARK       I    between atoms: C_14  and  N_15 
REMARK    4  A    between atoms: N_15  and  C_16 
REMARK    5  A    between atoms: C_16  and  C_17 
REMARK    6  A    between atoms: C_17  and  C_18 
REMARK    7  A    between atoms: C_17  and  C_24 
ROOT
HETATM    1  C   UNL     1     -43.379  55.940 -56.337  1.00  0.00     0.253 C 
HETATM    2  N   UNL     1     -43.360  55.187 -55.189  1.00  0.00    -0.358 N 
HETATM    3  O   UNL     1     -42.805  55.635 -57.385  1.00  0.00    -0.271 OA
HETATM    4  H   UNL     1     -43.858  55.484 -54.359  1.00  0.00     0.162 HD
ENDROOT
BRANCH   2   5
HETATM    5  C   UNL     1     -42.603  53.937 -55.082  1.00  0.00     0.141 C 
BRANCH   5   6
HETATM    6  C   UNL     1     -41.416  53.986 -54.053  1.00  0.00     0.026 C 
HETATM    7  C   UNL     1     -40.280  54.796 -54.741  1.00  0.00     0.027 C 
BRANCH   6   8
HETATM    8  C   UNL     1     -41.962  54.703 -52.781  1.00  0.00    -0.044 A 
HETATM    9  C   UNL     1     -41.309  55.833 -52.243  1.00  0.00     0.008 A 
HETATM   10  C   UNL     1     -41.800  56.487 -51.110  1.00  0.00     0.001 A 
HETATM   11  C   UNL     1     -42.940  56.013 -50.471  1.00  0.00     0.000 A 
HETATM   12  C   UNL     1     -43.585  54.882 -50.962  1.00  0.00     0.001 A 
HETATM   13  C   UNL     1     -43.099  54.232 -52.101  1.00  0.00     0.008 A 
ENDBRANCH   6   8
BRANCH   6  14
HETATM   14  C   UNL     1     -40.776  52.604 -53.740  1.00  0.00    -0.044 A 
HETATM   15  C   UNL     1     -40.817  51.517 -54.631  1.00  0.00     0.008 A 
HETATM   16  C   UNL     1     -40.214  50.296 -54.312  1.00  0.00     0.001 A 
HETATM   17  C   UNL     1     -39.536  50.141 -53.106  1.00  0.00     0.000 A 
HETATM   18  C   UNL     1     -39.446  51.211 -52.224  1.00  0.00     0.001 A 
HETATM   19  C   UNL     1     -40.049  52.429 -52.542  1.00  0.00     0.008 A 
ENDBRANCH   6  14
ENDBRANCH   5   6
ENDBRANCH   2   5
BRANCH   1  20
HETATM   20  C   UNL     1     -44.102  57.301 -56.258  1.00  0.00     0.311 C 
BRANCH  20  21
HETATM   21  C   UNL     1     -43.190  58.377 -55.768  1.00  0.00     0.031 A 
HETATM   22  C   UNL     1     -43.023  58.893 -54.486  1.00  0.00     0.035 A 
HETATM   23  C   UNL     1     -43.636  58.581 -53.170  1.00  0.00     0.070 C 
HETATM   24  N   UNL     1     -42.054  59.858 -54.590  1.00  0.00    -0.282 N 
HETATM   25  H   UNL     1     -41.657  60.442 -53.857  1.00  0.00     0.189 HD
HETATM   26  N   UNL     1     -41.597  60.013 -55.833  1.00  0.00    -0.179 NA
HETATM   27  C   UNL     1     -42.259  59.114 -56.561  1.00  0.00     0.061 A 
HETATM   28  C   UNL     1     -41.957  58.999 -58.012  1.00  0.00     0.073 C 
ENDBRANCH  20  21
BRANCH  20  29
HETATM   29  N   UNL     1     -45.292  57.138 -55.363  1.00  0.00    -0.062 N 
HETATM   30  H   UNL     1     -46.107  57.627 -55.747  1.00  0.00     0.275 HD
HETATM   31  H   UNL     1     -45.537  56.136 -55.372  1.00  0.00     0.275 HD
HETATM   32  H   UNL     1     -45.103  57.441 -54.404  1.00  0.00     0.275 HD
ENDBRANCH  20  29
ENDBRANCH   1  20
TORSDOF 7
ENDMDL
MODEL 3
REMARK VINA RESULT:      -8.2      2.462      5.031
REMARK  7 active torsions:
REMARK  status: ('A' for Active; 'I' for Inactive)
REMARK    1  A    between atoms: C_8  and  C_9 
REMARK    2  A    between atoms: C_9  and  N_10 
REMARK    3  A    between atoms: C_9  and  C_14 
REMARK       I    between atoms: C_14  and  N_15 
REMARK    4  A    between atoms: N_15  and  C_16 
REMARK    5  A    between atoms: C_16  and  C_17 
REMARK    6  A    between atoms: C_17  and  C_18 
REMARK    7  A    between atoms: C_17  and  C_24 
ROOT
HETATM    1  C   UNL     1     -43.664  56.602 -55.696  1.00  0.00     0.253 C 
HETATM    2  N   UNL     1     -43.938  55.811 -54.607  1.00  0.00    -0.358 N 
HETATM    3  O   UNL     1     -42.817  56.343 -56.554  1.00  0.00    -0.271 OA
HETATM    4  H   UNL     1     -44.652  56.070 -53.938  1.00  0.00     0.162 HD
ENDROOT
BRANCH   2   5
HETATM    5  C   UNL     1     -43.204  54.573 -54.331  1.00  0.00     0.141 C 
BRANCH   5   6
HETATM    6  C   UNL     1     -42.396  54.589 -52.983  1.00  0.00     0.026 C 
HETATM    7  C   UNL     1     -43.437  54.363 -51.851  1.00  0.00     0.027 C 
BRANCH   6   8
HETATM    8  C   UNL     1     -41.362  53.426 -53.072  1.00  0.00    -0.044 A 
HETATM    9  C   UNL     1     -40.561  53.074 -51.965  1.00  0.00     0.008 A 
HETATM   10  C   UNL     1     -39.641  52.024 -52.034  1.00  0.00     0.001 A 
HETATM   11  C   UNL     1     -39.481  51.317 -53.220  1.00  0.00     0.000 A 
HETATM   12  C   UNL     1     -40.234  51.664 -54.337  1.00  0.00     0.001 A 
HETATM   13  C   UNL     1     -41.162  52.709 -54.266  1.00  0.00     0.008 A 
ENDBRANCH   6   8
BRANCH   6  14
HETATM   14  C   UNL     1     -41.739  55.956 -52.641  1.00  0.00    -0.044 A 
HETATM   15  C   UNL     1     -40.976  56.697 -53.562  1.00  0.00     0.008 A 
HETATM   16  C   UNL     1     -40.417  57.930 -53.213  1.00  0.00     0.001 A 
HETATM   17  C   UNL     1     -40.626  58.463 -51.944  1.00  0.00     0.000 A 
HETATM   18  C   UNL     1     -41.408  57.771 -51.027  1.00  0.00     0.001 A 
HETATM   19  C   UNL     1     -41.965  56.540 -51.375  1.00  0.00     0.008 A 
ENDBRANCH   6  14
ENDBRANCH   5   6
ENDBRANCH   2   5
BRANCH   1  20
HETATM   20  C   UNL     1     -44.419  57.945 -55.781  1.00  0.00     0.311 C 
BRANCH  20  21
HETATM   21  C   UNL     1     -43.829  58.963 -54.862  1.00  0.00     0.031 A 
HETATM   22  C   UNL     1     -44.044  59.171 -53.503  1.00  0.00     0.035 A 
HETATM   23  C   UNL     1     -44.880  58.489 -52.482  1.00  0.00     0.070 C 
HETATM   24  N   UNL     1     -43.247  60.231 -53.152  1.00  0.00    -0.282 N 
HETATM   25  H   UNL     1     -43.128  60.661 -52.237  1.00  0.00     0.189 HD
HETATM   26  N   UNL     1     -42.551  60.727 -54.176  1.00  0.00    -0.179 NA
HETATM   27  C   UNL     1     -42.876  59.964 -55.218  1.00  0.00     0.061 A 
HETATM   28  C   UNL     1     -42.238  60.233 -56.534  1.00  0.00     0.073 C 
ENDBRANCH  20  21
BRANCH  20  29
HETATM   29  N   UNL     1     -45.859  57.683 -55.463  1.00  0.00    -0.062 N 
HETATM   30  H   UNL     1     -45.948  56.976 -54.726  1.00  0.00     0.275 HD
HETATM   31  H   UNL     1     -46.239  58.554 -55.063  1.00  0.00     0.275 HD
HETATM   32  H   UNL     1     -46.399  57.417 -56.291  1.00  0.00     0.275 HD
ENDBRANCH  20  29
ENDBRANCH   1  20
TORSDOF 7
ENDMDL
MODEL 4
REMARK VINA RESULT:      -8.0      1.660      4.278
REMARK  7 active torsions:
REMARK  status: ('A' for Active; 'I' for Inactive)
REMARK    1  A    between atoms: C_8  and  C_9 
REMARK    2  A    between atoms: C_9  and  N_10 
REMARK    3  A    between atoms: C_9  and  C_14 
REMARK       I    between atoms: C_14  and  N_15 
REMARK    4  A    between atoms: N_15  and  C_16 
REMARK    5  A    between atoms: C_16  and  C_17 
REMARK    6  A    between atoms: C_17  and  C_18 
REMARK    7  A    between atoms: C_17  and  C_24 
ROOT
HETATM    1  C   UNL     1     -42.321  56.637 -55.887  1.00  0.00     0.253 C 
HETATM    2  N   UNL     1     -41.841  55.353 -55.801  1.00  0.00    -0.358 N 
HETATM    3  O   UNL     1     -41.971  57.566 -55.157  1.00  0.00    -0.271 OA
HETATM    4  H   UNL     1     -42.159  54.631 -56.435  1.00  0.00     0.162 HD
ENDROOT
BRANCH   2   5
HETATM    5  C   UNL     1     -40.872  54.944 -54.781  1.00  0.00     0.141 C 
BRANCH   5   6
HETATM    6  C   UNL     1     -41.502  54.177 -53.562  1.00  0.00     0.026 C 
HETATM    7  C   UNL     1     -43.021  54.049 -53.870  1.00  0.00     0.027 C 
BRANCH   6   8
HETATM    8  C   UNL     1     -40.796  52.790 -53.497  1.00  0.00    -0.044 A 
HETATM    9  C   UNL     1     -41.019  51.810 -54.487  1.00  0.00     0.008 A 
HETATM   10  C   UNL     1     -40.379  50.568 -54.441  1.00  0.00     0.001 A 
HETATM   11  C   UNL     1     -39.520  50.266 -53.391  1.00  0.00     0.000 A 
HETATM   12  C   UNL     1     -39.306  51.202 -52.384  1.00  0.00     0.001 A 
HETATM   13  C   UNL     1     -39.940  52.448 -52.434  1.00  0.00     0.008 A 
ENDBRANCH   6   8
BRANCH   6  14
HETATM   14  C   UNL     1     -41.442  54.950 -52.214  1.00  0.00    -0.044 A 
HETATM   15  C   UNL     1     -41.023  56.289 -52.111  1.00  0.00     0.008 A 
HETATM   16  C   UNL     1     -41.000  56.947 -50.877  1.00  0.00     0.001 A 
HETATM   17  C   UNL     1     -41.416  56.291 -49.722  1.00  0.00     0.000 A 
HETATM   18  C   UNL     1     -41.871  54.981 -49.800  1.00  0.00     0.001 A 
HETATM   19  C   UNL     1     -41.894  54.323 -51.031  1.00  0.00     0.008 A 
ENDBRANCH   6  14
ENDBRANCH   5   6
ENDBRANCH   2   5
BRANCH   1  20
HETATM   20  C   UNL     1     -43.440  56.887 -56.919  1.00  0.00     0.311 C 
BRANCH  20  21
HETATM   21  C   UNL     1     -42.883  57.117 -58.286  1.00  0.00     0.031 A 
HETATM   22  C   UNL     1     -42.119  58.172 -58.773  1.00  0.00     0.035 A 
HETATM   23  C   UNL     1     -41.566  59.406 -58.158  1.00  0.00     0.070 C 
HETATM   24  N   UNL     1     -41.870  57.883 -60.091  1.00  0.00    -0.282 N 
HETATM   25  H   UNL     1     -41.331  58.417 -60.769  1.00  0.00     0.189 HD
HETATM   26  N   UNL     1     -42.425  56.738 -60.491  1.00  0.00    -0.179 NA
HETATM   27  C   UNL     1     -43.030  56.248 -59.409  1.00  0.00     0.061 A 
HETATM   28  C   UNL     1     -43.731  54.941 -59.505  1.00  0.00     0.073 C 
ENDBRANCH  20  21
BRANCH  20  29
HETATM   29  N   UNL     1     -44.247  58.059 -56.448  1.00  0.00    -0.062 N 
HETATM   30  H   UNL     1     -44.455  58.694 -57.224  1.00  0.00     0.275 HD
HETATM   31  H   UNL     1     -45.157  57.688 -56.138  1.00  0.00     0.275 HD
HETATM   32  H   UNL     1     -43.794  58.558 -55.678  1.00  0.00     0.275 HD
ENDBRANCH  20  29
ENDBRANCH   1  20
TORSDOF 7
ENDMDL
MODEL 5
REMARK VINA RESULT:      -7.8      0.717      1.919
REMARK  7 active torsions:
REMARK  status: ('A' for Active; 'I' for Inactive)
REMARK    1  A    between atoms: C_8  and  C_9 
REMARK    2  A    between atoms: C_9  and  N_10 
REMARK    3  A    between atoms: C_9  and  C_14 
REMARK       I    between atoms: C_14  and  N_15 
REMARK    4  A    between atoms: N_15  and  C_16 
REMARK    5  A    between atoms: C_16  and  C_17 
REMARK    6  A    between atoms: C_17  and  C_18 
REMARK    7  A    between atoms: C_17  and  C_24 
ROOT
HETATM    1  C   UNL     1     -43.148  56.230 -56.546  1.00  0.00     0.253 C 
HETATM    2  N   UNL     1     -42.392  55.089 -56.436  1.00  0.00    -0.358 N 
HETATM    3  O   UNL     1     -43.909  56.654 -55.673  1.00  0.00    -0.271 OA
HETATM    4  H   UNL     1     -41.777  54.793 -57.183  1.00  0.00     0.162 HD
ENDROOT
BRANCH   2   5
HETATM    5  C   UNL     1     -42.449  54.220 -55.257  1.00  0.00     0.141 C 
BRANCH   5   6
HETATM    6  C   UNL     1     -41.294  54.463 -54.219  1.00  0.00     0.026 C 
HETATM    7  C   UNL     1     -40.134  55.131 -55.010  1.00  0.00     0.027 C 
BRANCH   6   8
HETATM    8  C   UNL     1     -41.875  55.403 -53.121  1.00  0.00    -0.044 A 
HETATM    9  C   UNL     1     -43.100  55.112 -52.484  1.00  0.00     0.008 A 
HETATM   10  C   UNL     1     -43.621  55.946 -51.489  1.00  0.00     0.001 A 
HETATM   11  C   UNL     1     -42.942  57.102 -51.125  1.00  0.00     0.000 A 
HETATM   12  C   UNL     1     -41.747  57.430 -51.759  1.00  0.00     0.001 A 
HETATM   13  C   UNL     1     -41.222  56.592 -52.748  1.00  0.00     0.008 A 
ENDBRANCH   6   8
BRANCH   6  14
HETATM   14  C   UNL     1     -40.670  53.164 -53.634  1.00  0.00    -0.044 A 
HETATM   15  C   UNL     1     -40.309  53.024 -52.282  1.00  0.00     0.008 A 
HETATM   16  C   UNL     1     -39.764  51.830 -51.799  1.00  0.00     0.001 A 
HETATM   17  C   UNL     1     -39.587  50.742 -52.649  1.00  0.00     0.000 A 
HETATM   18  C   UNL     1     -39.971  50.840 -53.981  1.00  0.00     0.001 A 
HETATM   19  C   UNL     1     -40.515  52.031 -54.464  1.00  0.00     0.008 A 
ENDBRANCH   6  14
ENDBRANCH   5   6
ENDBRANCH   2   5
BRANCH   1  20
HETATM   20  C   UNL     1     -43.091  56.967 -57.900  1.00  0.00     0.311 C 
BRANCH  20  21
HETATM   21  C   UNL     1     -44.450  57.106 -58.505  1.00  0.00     0.031 A 
HETATM   22  C   UNL     1     -45.356  58.159 -58.433  1.00  0.00     0.035 A 
HETATM   23  C   UNL     1     -45.325  59.494 -57.783  1.00  0.00     0.070 C 
HETATM   24  N   UNL     1     -46.444  57.773 -59.174  1.00  0.00    -0.282 N 
HETATM   25  H   UNL     1     -47.301  58.289 -59.362  1.00  0.00     0.189 HD
HETATM   26  N   UNL     1     -46.316  56.555 -59.701  1.00  0.00    -0.179 NA
HETATM   27  C   UNL     1     -45.108  56.138 -59.323  1.00  0.00     0.061 A 
HETATM   28  C   UNL     1     -44.630  54.806 -59.777  1.00  0.00     0.073 C 
ENDBRANCH  20  21
BRANCH  20  29
HETATM   29  N   UNL     1     -42.163  56.207 -58.798  1.00  0.00    -0.062 N 
HETATM   30  H   UNL     1     -42.601  56.026 -59.707  1.00  0.00     0.275 HD
HETATM   31  H   UNL     1     -41.362  56.827 -58.992  1.00  0.00     0.275 HD
HETATM   32  H   UNL     1     -41.835  55.337 -58.372  1.00  0.00     0.275 HD
ENDBRANCH  20  29
ENDBRANCH   1  20
TORSDOF 7
ENDMDL
MODEL 6
REMARK VINA RESULT:      -7.8      1.618      2.938
REMARK  7 active torsions:
REMARK  status: ('A' for Active; 'I' for Inactive)
REMARK    1  A    between atoms: C_8  and  C_9 
REMARK    2  A    between atoms: C_9  and  N_10 
REMARK    3  A    between atoms: C_9  and  C_14 
REMARK       I    between atoms: C_14  and  N_15 
REMARK    4  A    between atoms: N_15  and  C_16 
REMARK    5  A    between atoms: C_16  and  C_17 
REMARK    6  A    between atoms: C_17  and  C_18 
REMARK    7  A    between atoms: C_17  and  C_24 
ROOT
HETATM    1  C   UNL     1     -44.022  57.066 -55.989  1.00  0.00     0.253 C 
HETATM    2  N   UNL     1     -43.598  55.795 -55.688  1.00  0.00    -0.358 N 
HETATM    3  O   UNL     1     -44.099  57.989 -55.175  1.00  0.00    -0.271 OA
HETATM    4  H   UNL     1     -43.547  55.077 -56.400  1.00  0.00     0.162 HD
ENDROOT
BRANCH   2   5
HETATM    5  C   UNL     1     -43.226  55.391 -54.330  1.00  0.00     0.141 C 
BRANCH   5   6
HETATM    6  C   UNL     1     -41.697  55.555 -54.003  1.00  0.00     0.026 C 
HETATM    7  C   UNL     1     -40.977  55.718 -55.372  1.00  0.00     0.027 C 
BRANCH   6   8
HETATM    8  C   UNL     1     -41.568  56.828 -53.115  1.00  0.00    -0.044 A 
HETATM    9  C   UNL     1     -42.506  57.108 -52.098  1.00  0.00     0.008 A 
HETATM   10  C   UNL     1     -42.388  58.243 -51.290  1.00  0.00     0.001 A 
HETATM   11  C   UNL     1     -41.345  59.138 -51.495  1.00  0.00     0.000 A 
HETATM   12  C   UNL     1     -40.424  58.903 -52.511  1.00  0.00     0.001 A 
HETATM   13  C   UNL     1     -40.536  57.764 -53.315  1.00  0.00     0.008 A 
ENDBRANCH   6   8
BRANCH   6  14
HETATM   14  C   UNL     1     -41.037  54.301 -53.362  1.00  0.00    -0.044 A 
HETATM   15  C   UNL     1     -40.831  54.162 -51.978  1.00  0.00     0.008 A 
HETATM   16  C   UNL     1     -40.246  53.008 -51.446  1.00  0.00     0.001 A 
HETATM   17  C   UNL     1     -39.875  51.958 -52.281  1.00  0.00     0.000 A 
HETATM   18  C   UNL     1     -40.103  52.053 -53.648  1.00  0.00     0.001 A 
HETATM   19  C   UNL     1     -40.686  53.204 -54.180  1.00  0.00     0.008 A 
ENDBRANCH   6  14
ENDBRANCH   5   6
ENDBRANCH   2   5
BRANCH   1  20
HETATM   20  C   UNL     1     -44.516  57.306 -57.430  1.00  0.00     0.311 C 
BRANCH  20  21
HETATM   21  C   UNL     1     -43.409  57.148 -58.421  1.00  0.00     0.031 A 
HETATM   22  C   UNL     1     -42.288  57.941 -58.642  1.00  0.00     0.035 A 
HETATM   23  C   UNL     1     -41.764  59.176 -58.002  1.00  0.00     0.070 C 
HETATM   24  N   UNL     1     -41.595  57.342 -59.662  1.00  0.00    -0.282 N 
HETATM   25  H   UNL     1     -40.716  57.627 -60.088  1.00  0.00     0.189 HD
HETATM   26  N   UNL     1     -42.188  56.239 -60.123  1.00  0.00    -0.179 NA
HETATM   27  C   UNL     1     -43.280  56.094 -59.375  1.00  0.00     0.061 A 
HETATM   28  C   UNL     1     -44.165  54.922 -59.611  1.00  0.00     0.073 C 
ENDBRANCH  20  21
BRANCH  20  29
HETATM   29  N   UNL     1     -45.116  58.678 -57.488  1.00  0.00    -0.062 N 
HETATM   30  H   UNL     1     -44.575  59.337 -56.921  1.00  0.00     0.275 HD
HETATM   31  H   UNL     1     -45.021  59.003 -58.462  1.00  0.00     0.275 HD
HETATM   32  H   UNL     1     -46.102  58.683 -57.215  1.00  0.00     0.275 HD
ENDBRANCH  20  29
ENDBRANCH   1  20
TORSDOF 7
ENDMDL
MODEL 7
REMARK VINA RESULT:      -7.8      1.494      4.169
REMARK  7 active torsions:
REMARK  status: ('A' for Active; 'I' for Inactive)
REMARK    1  A    between atoms: C_8  and  C_9 
REMARK    2  A    between atoms: C_9  and  N_10 
REMARK    3  A    between atoms: C_9  and  C_14 
REMARK       I    between atoms: C_14  and  N_15 
REMARK    4  A    between atoms: N_15  and  C_16 
REMARK    5  A    between atoms: C_16  and  C_17 
REMARK    6  A    between atoms: C_17  and  C_18 
REMARK    7  A    between atoms: C_17  and  C_24 
ROOT
HETATM    1  C   UNL     1     -42.153  56.669 -56.247  1.00  0.00     0.253 C 
HETATM    2  N   UNL     1     -41.856  55.328 -56.209  1.00  0.00    -0.358 N 
HETATM    3  O   UNL     1     -41.711  57.506 -55.457  1.00  0.00    -0.271 OA
HETATM    4  H   UNL     1     -42.242  54.686 -56.890  1.00  0.00     0.162 HD
ENDROOT
BRANCH   2   5
HETATM    5  C   UNL     1     -40.997  54.742 -55.177  1.00  0.00     0.141 C 
BRANCH   5   6
HETATM    6  C   UNL     1     -41.774  53.953 -54.062  1.00  0.00     0.026 C 
HETATM    7  C   UNL     1     -43.150  53.572 -54.679  1.00  0.00     0.027 C 
BRANCH   6   8
HETATM    8  C   UNL     1     -40.913  52.698 -53.725  1.00  0.00    -0.044 A 
HETATM    9  C   UNL     1     -40.885  51.580 -54.585  1.00  0.00     0.008 A 
HETATM   10  C   UNL     1     -40.105  50.456 -54.295  1.00  0.00     0.001 A 
HETATM   11  C   UNL     1     -39.355  50.413 -53.126  1.00  0.00     0.000 A 
HETATM   12  C   UNL     1     -39.390  51.489 -52.244  1.00  0.00     0.001 A 
HETATM   13  C   UNL     1     -40.163  52.617 -52.538  1.00  0.00     0.008 A 
ENDBRANCH   6   8
BRANCH   6  14
HETATM   14  C   UNL     1     -42.131  54.796 -52.805  1.00  0.00    -0.044 A 
HETATM   15  C   UNL     1     -41.462  55.983 -52.458  1.00  0.00     0.008 A 
HETATM   16  C   UNL     1     -41.829  56.716 -51.325  1.00  0.00     0.001 A 
HETATM   17  C   UNL     1     -42.887  56.293 -50.525  1.00  0.00     0.000 A 
HETATM   18  C   UNL     1     -43.590  55.144 -50.866  1.00  0.00     0.001 A 
HETATM   19  C   UNL     1     -43.224  54.412 -51.996  1.00  0.00     0.008 A 
ENDBRANCH   6  14
ENDBRANCH   5   6
ENDBRANCH   2   5
BRANCH   1  20
HETATM   20  C   UNL     1     -43.182  57.118 -57.304  1.00  0.00     0.311 C 
BRANCH  20  21
HETATM   21  C   UNL     1     -44.217  58.018 -56.713  1.00  0.00     0.031 A 
HETATM   22  C   UNL     1     -44.923  57.905 -55.520  1.00  0.00     0.035 A 
HETATM   23  C   UNL     1     -44.911  56.914 -54.413  1.00  0.00     0.070 C 
HETATM   24  N   UNL     1     -45.741  59.004 -55.458  1.00  0.00    -0.282 N 
HETATM   25  H   UNL     1     -46.394  59.271 -54.725  1.00  0.00     0.189 HD
HETATM   26  N   UNL     1     -45.629  59.803 -56.521  1.00  0.00    -0.179 NA
HETATM   27  C   UNL     1     -44.699  59.234 -57.286  1.00  0.00     0.061 A 
HETATM   28  C   UNL     1     -44.304  59.899 -58.556  1.00  0.00     0.073 C 
ENDBRANCH  20  21
BRANCH  20  29
HETATM   29  N   UNL     1     -43.796  55.888 -57.900  1.00  0.00    -0.062 N 
HETATM   30  H   UNL     1     -44.760  55.766 -57.574  1.00  0.00     0.275 HD
HETATM   31  H   UNL     1     -43.863  56.051 -58.916  1.00  0.00     0.275 HD
HETATM   32  H   UNL     1     -43.240  55.049 -57.719  1.00  0.00     0.275 HD
ENDBRANCH  20  29
ENDBRANCH   1  20
TORSDOF 7
ENDMDL
MODEL 8
REMARK VINA RESULT:      -7.7      1.465      4.021
REMARK  7 active torsions:
REMARK  status: ('A' for Active; 'I' for Inactive)
REMARK    1  A    between atoms: C_8  and  C_9 
REMARK    2  A    between atoms: C_9  and  N_10 
REMARK    3  A    between atoms: C_9  and  C_14 
REMARK       I    between atoms: C_14  and  N_15 
REMARK    4  A    between atoms: N_15  and  C_16 
REMARK    5  A    between atoms: C_16  and  C_17 
REMARK    6  A    between atoms: C_17  and  C_18 
REMARK    7  A    between atoms: C_17  and  C_24 
ROOT
HETATM    1  C   UNL     1     -43.323  56.167 -56.408  1.00  0.00     0.253 C 
HETATM    2  N   UNL     1     -43.736  55.902 -55.125  1.00  0.00    -0.358 N 
HETATM    3  O   UNL     1     -42.716  55.370 -57.127  1.00  0.00    -0.271 OA
HETATM    4  H   UNL     1     -44.239  56.593 -54.583  1.00  0.00     0.162 HD
ENDROOT
BRANCH   2   5
HETATM    5  C   UNL     1     -43.452  54.629 -54.456  1.00  0.00     0.141 C 
BRANCH   5   6
HETATM    6  C   UNL     1     -42.613  54.768 -53.134  1.00  0.00     0.026 C 
HETATM    7  C   UNL     1     -43.613  54.559 -51.962  1.00  0.00     0.027 C 
BRANCH   6   8
HETATM    8  C   UNL     1     -41.524  53.655 -53.183  1.00  0.00    -0.044 A 
HETATM    9  C   UNL     1     -40.828  53.263 -52.019  1.00  0.00     0.008 A 
HETATM   10  C   UNL     1     -39.858  52.257 -52.053  1.00  0.00     0.001 A 
HETATM   11  C   UNL     1     -39.542  51.636 -53.255  1.00  0.00     0.000 A 
HETATM   12  C   UNL     1     -40.189  52.025 -54.424  1.00  0.00     0.001 A 
HETATM   13  C   UNL     1     -41.166  53.026 -54.389  1.00  0.00     0.008 A 
ENDBRANCH   6   8
BRANCH   6  14
HETATM   14  C   UNL     1     -42.019  56.185 -52.893  1.00  0.00    -0.044 A 
HETATM   15  C   UNL     1     -40.949  56.709 -53.639  1.00  0.00     0.008 A 
HETATM   16  C   UNL     1     -40.458  57.996 -53.395  1.00  0.00     0.001 A 
HETATM   17  C   UNL     1     -41.040  58.797 -52.417  1.00  0.00     0.000 A 
HETATM   18  C   UNL     1     -42.125  58.319 -51.692  1.00  0.00     0.001 A 
HETATM   19  C   UNL     1     -42.615  57.035 -51.934  1.00  0.00     0.008 A 
ENDBRANCH   6  14
ENDBRANCH   5   6
ENDBRANCH   2   5
BRANCH   1  20
HETATM   20  C   UNL     1     -43.569  57.597 -56.930  1.00  0.00     0.311 C 
BRANCH  20  21
HETATM   21  C   UNL     1     -44.176  57.585 -58.295  1.00  0.00     0.031 A 
HETATM   22  C   UNL     1     -43.579  57.393 -59.537  1.00  0.00     0.035 A 
HETATM   23  C   UNL     1     -42.186  57.118 -59.972  1.00  0.00     0.070 C 
HETATM   24  N   UNL     1     -44.591  57.472 -60.459  1.00  0.00    -0.282 N 
HETATM   25  H   UNL     1     -44.540  57.368 -61.470  1.00  0.00     0.189 HD
HETATM   26  N   UNL     1     -45.784  57.714 -59.912  1.00  0.00    -0.179 NA
HETATM   27  C   UNL     1     -45.559  57.770 -58.600  1.00  0.00     0.061 A 
HETATM   28  C   UNL     1     -46.705  57.997 -57.681  1.00  0.00     0.073 C 
ENDBRANCH  20  21
BRANCH  20  29
HETATM   29  N   UNL     1     -42.258  58.323 -56.917  1.00  0.00    -0.062 N 
HETATM   30  H   UNL     1     -42.037  58.660 -55.974  1.00  0.00     0.275 HD
HETATM   31  H   UNL     1     -41.531  57.629 -57.144  1.00  0.00     0.275 HD
HETATM   32  H   UNL     1     -42.231  59.090 -57.594  1.00  0.00     0.275 HD
ENDBRANCH  20  29
ENDBRANCH   1  20
TORSDOF 7
ENDMDL
MODEL 9
REMARK VINA RESULT:      -7.5      1.652      2.648
REMARK  7 active torsions:
REMARK  status: ('A' for Active; 'I' for Inactive)
REMARK    1  A    between atoms: C_8  and  C_9 
REMARK    2  A    between atoms: C_9  and  N_10 
REMARK    3  A    between atoms: C_9  and  C_14 
REMARK       I    between atoms: C_14  and  N_15 
REMARK    4  A    between atoms: N_15  and  C_16 
REMARK    5  A    between atoms: C_16  and  C_17 
REMARK    6  A    between atoms: C_17  and  C_18 
REMARK    7  A    between atoms: C_17  and  C_24 
ROOT
HETATM    1  C   UNL     1     -44.312  56.888 -54.678  1.00  0.00     0.253 C 
HETATM    2  N   UNL     1     -43.656  55.723 -54.992  1.00  0.00    -0.358 N 
HETATM    3  O   UNL     1     -44.476  57.312 -53.532  1.00  0.00    -0.271 OA
HETATM    4  H   UNL     1     -43.543  55.428 -55.953  1.00  0.00     0.162 HD
ENDROOT
BRANCH   2   5
HETATM    5  C   UNL     1     -43.110  54.828 -53.968  1.00  0.00     0.141 C 
BRANCH   5   6
HETATM    6  C   UNL     1     -41.560  54.965 -53.749  1.00  0.00     0.026 C 
HETATM    7  C   UNL     1     -40.958  55.331 -55.135  1.00  0.00     0.027 C 
BRANCH   6   8
HETATM    8  C   UNL     1     -41.359  56.101 -52.702  1.00  0.00    -0.044 A 
HETATM    9  C   UNL     1     -40.784  57.338 -53.066  1.00  0.00     0.008 A 
HETATM   10  C   UNL     1     -40.612  58.365 -52.134  1.00  0.00     0.001 A 
HETATM   11  C   UNL     1     -40.987  58.173 -50.810  1.00  0.00     0.000 A 
HETATM   12  C   UNL     1     -41.527  56.953 -50.416  1.00  0.00     0.001 A 
HETATM   13  C   UNL     1     -41.707  55.927 -51.350  1.00  0.00     0.008 A 
ENDBRANCH   6   8
BRANCH   6  14
HETATM   14  C   UNL     1     -40.846  53.643 -53.350  1.00  0.00    -0.044 A 
HETATM   15  C   UNL     1     -40.478  53.333 -52.029  1.00  0.00     0.008 A 
HETATM   16  C   UNL     1     -39.850  52.123 -51.716  1.00  0.00     0.001 A 
HETATM   17  C   UNL     1     -39.596  51.185 -52.713  1.00  0.00     0.000 A 
HETATM   18  C   UNL     1     -39.984  51.448 -54.021  1.00  0.00     0.001 A 
HETATM   19  C   UNL     1     -40.610  52.655 -54.333  1.00  0.00     0.008 A 
ENDBRANCH   6  14
ENDBRANCH   5   6
ENDBRANCH   2   5
BRANCH   1  20
HETATM   20  C   UNL     1     -44.955  57.655 -55.851  1.00  0.00     0.311 C 
BRANCH  20  21
HETATM   21  C   UNL     1     -43.949  57.991 -56.903  1.00  0.00     0.031 A 
HETATM   22  C   UNL     1     -43.905  57.630 -58.246  1.00  0.00     0.035 A 
HETATM   23  C   UNL     1     -44.801  56.831 -59.121  1.00  0.00     0.070 C 
HETATM   24  N   UNL     1     -42.773  58.211 -58.757  1.00  0.00    -0.282 N 
HETATM   25  H   UNL     1     -42.417  58.181 -59.710  1.00  0.00     0.189 HD
HETATM   26  N   UNL     1     -42.081  58.903 -57.850  1.00  0.00    -0.179 NA
HETATM   27  C   UNL     1     -42.784  58.797 -56.723  1.00  0.00     0.061 A 
HETATM   28  C   UNL     1     -42.297  59.493 -55.503  1.00  0.00     0.073 C 
ENDBRANCH  20  21
BRANCH  20  29
HETATM   29  N   UNL     1     -45.603  58.887 -55.296  1.00  0.00    -0.062 N 
HETATM   30  H   UNL     1     -46.372  59.198 -55.897  1.00  0.00     0.275 HD
HETATM   31  H   UNL     1     -46.040  58.615 -54.401  1.00  0.00     0.275 HD
HETATM   32  H   UNL     1     -44.932  59.643 -55.140  1.00  0.00     0.275 HD
ENDBRANCH  20  29
ENDBRANCH   1  20
TORSDOF 7
ENDMDL
MODEL 10
REMARK VINA RESULT:      -7.4      1.593      4.164
REMARK  7 active torsions:
REMARK  status: ('A' for Active; 'I' for Inactive)
REMARK    1  A    between atoms: C_8  and  C_9 
REMARK    2  A    between atoms: C_9  and  N_10 
REMARK    3  A    between atoms: C_9  and  C_14 
REMARK       I    between atoms: C_14  and  N_15 
REMARK    4  A    between atoms: N_15  and  C_16 
REMARK    5  A    between atoms: C_16  and  C_17 
REMARK    6  A    between atoms: C_17  and  C_18 
REMARK    7  A    between atoms: C_17  and  C_24 
ROOT
HETATM    1  C   UNL     1     -42.331  56.949 -56.038  1.00  0.00     0.253 C 
HETATM    2  N   UNL     1     -41.937  55.636 -56.122  1.00  0.00    -0.358 N 
HETATM    3  O   UNL     1     -41.959  57.738 -55.167  1.00  0.00    -0.271 OA
HETATM    4  H   UNL     1     -42.268  55.035 -56.865  1.00  0.00     0.162 HD
ENDROOT
BRANCH   2   5
HETATM    5  C   UNL     1     -41.045  55.019 -55.135  1.00  0.00     0.141 C 
BRANCH   5   6
HETATM    6  C   UNL     1     -41.789  54.292 -53.957  1.00  0.00     0.026 C 
HETATM    7  C   UNL     1     -43.212  53.955 -54.486  1.00  0.00     0.027 C 
BRANCH   6   8
HETATM    8  C   UNL     1     -40.963  53.011 -53.634  1.00  0.00    -0.044 A 
HETATM    9  C   UNL     1     -40.350  52.836 -52.375  1.00  0.00     0.008 A 
HETATM   10  C   UNL     1     -39.617  51.684 -52.075  1.00  0.00     0.001 A 
HETATM   11  C   UNL     1     -39.458  50.690 -53.034  1.00  0.00     0.000 A 
HETATM   12  C   UNL     1     -40.025  50.852 -54.295  1.00  0.00     0.001 A 
HETATM   13  C   UNL     1     -40.766  52.001 -54.593  1.00  0.00     0.008 A 
ENDBRANCH   6   8
BRANCH   6  14
HETATM   14  C   UNL     1     -42.039  55.182 -52.706  1.00  0.00    -0.044 A 
HETATM   15  C   UNL     1     -43.137  55.009 -51.845  1.00  0.00     0.008 A 
HETATM   16  C   UNL     1     -43.312  55.825 -50.723  1.00  0.00     0.001 A 
HETATM   17  C   UNL     1     -42.383  56.816 -50.422  1.00  0.00     0.000 A 
HETATM   18  C   UNL     1     -41.267  56.983 -51.233  1.00  0.00     0.001 A 
HETATM   19  C   UNL     1     -41.092  56.169 -52.354  1.00  0.00     0.008 A 
ENDBRANCH   6  14
ENDBRANCH   5   6
ENDBRANCH   2   5
BRANCH   1  20
HETATM   20  C   UNL     1     -43.382  57.420 -57.064  1.00  0.00     0.311 C 
BRANCH  20  21
HETATM   21  C   UNL     1     -42.785  57.585 -58.423  1.00  0.00     0.031 A 
HETATM   22  C   UNL     1     -42.840  56.746 -59.532  1.00  0.00     0.035 A 
HETATM   23  C   UNL     1     -43.495  55.440 -59.796  1.00  0.00     0.070 C 
HETATM   24  N   UNL     1     -42.129  57.378 -60.520  1.00  0.00    -0.282 N 
HETATM   25  H   UNL     1     -41.961  57.074 -61.477  1.00  0.00     0.189 HD
HETATM   26  N   UNL     1     -41.611  58.545 -60.131  1.00  0.00    -0.179 NA
HETATM   27  C   UNL     1     -42.010  58.698 -58.870  1.00  0.00     0.061 A 
HETATM   28  C   UNL     1     -41.625  59.934 -58.137  1.00  0.00     0.073 C 
ENDBRANCH  20  21
BRANCH  20  29
HETATM   29  N   UNL     1     -43.973  58.702 -56.562  1.00  0.00    -0.062 N 
HETATM   30  H   UNL     1     -43.386  59.501 -56.821  1.00  0.00     0.275 HD
HETATM   31  H   UNL     1     -44.864  58.836 -57.064  1.00  0.00     0.275 HD
HETATM   32  H   UNL     1     -44.142  58.684 -55.554  1.00  0.00     0.275 HD
ENDBRANCH  20  29
ENDBRANCH   1  20
TORSDOF 7
ENDMDL
