MODEL 1
REMARK VINA RESULT:      -8.2      0.000      0.000
REMARK  6 active torsions:
REMARK  status: ('A' for Active; 'I' for Inactive)
REMARK    1  A    between atoms: C_4  and  C_5 
REMARK    2  A    between atoms: C_6  and  O_7 
REMARK    3  A    between atoms: O_7  and  C_8 
REMARK    4  A    between atoms: C_8  and  C_9 
REMARK       I    between atoms: C_9  and  N_10 
REMARK    5  A    between atoms: N_10  and  N_11 
REMARK    6  A    between atoms: C_12  and  C_13 
ROOT
HETATM    1  O   UNL     1     -39.701  53.026 -51.406  1.00  0.00    -0.341 OA
ENDROOT
BRANCH   1   2
HETATM    2  C   UNL     1     -39.780  51.973 -52.285  1.00  0.00     0.080 A 
HETATM    3  C   UNL     1     -40.455  52.169 -53.506  1.00  0.00     0.007 A 
HETATM    4  C   UNL     1     -40.578  51.067 -54.373  1.00  0.00     0.015 A 
HETATM    5  C   UNL     1     -40.059  49.815 -54.031  1.00  0.00     0.001 A 
HETATM    6  C   UNL     1     -39.415  49.638 -52.809  1.00  0.00     0.003 A 
HETATM    7  C   UNL     1     -39.281  50.715 -51.933  1.00  0.00     0.037 A 
BRANCH   3   8
HETATM    8  C   UNL     1     -41.015  53.473 -53.902  1.00  0.00    -0.023 A 
HETATM    9  C   UNL     1     -42.326  53.838 -53.551  1.00  0.00     0.012 A 
HETATM   10  C   UNL     1     -42.850  55.079 -53.918  1.00  0.00     0.001 A 
HETATM   11  C   UNL     1     -42.069  55.982 -54.634  1.00  0.00     0.000 A 
HETATM   12  C   UNL     1     -40.765  55.643 -54.987  1.00  0.00     0.001 A 
HETATM   13  C   UNL     1     -40.243  54.397 -54.625  1.00  0.00     0.012 A 
ENDBRANCH   3   8
ENDBRANCH   1   2
BRANCH   1  14
HETATM   14  C   UNL     1     -40.491  52.820 -50.231  1.00  0.00     0.280 C 
BRANCH  14  15
HETATM   15  C   UNL     1     -40.969  54.151 -49.656  1.00  0.00     0.261 C 
HETATM   16  N   UNL     1     -40.968  55.179 -50.586  1.00  0.00    -0.246 N 
HETATM   17  H   UNL     1     -40.616  54.989 -51.522  1.00  0.00     0.192 HD
HETATM   18  O   UNL     1     -41.329  54.251 -48.484  1.00  0.00    -0.269 OA
BRANCH  16  19
HETATM   19  N   UNL     1     -41.397  56.424 -50.237  1.00  0.00    -0.182 NA
HETATM   20  C   UNL     1     -41.490  57.274 -51.208  1.00  0.00     0.168 C 
BRANCH  20  21
HETATM   21  C   UNL     1     -41.933  58.612 -50.928  1.00  0.00     0.051 A 
HETATM   22  N   UNL     1     -43.259  58.986 -50.935  1.00  0.00    -0.365 N 
HETATM   23  H   UNL     1     -44.020  58.350 -51.139  1.00  0.00     0.165 HD
HETATM   24  C   UNL     1     -43.370  60.316 -50.625  1.00  0.00     0.088 A 
HETATM   25  C   UNL     1     -42.102  60.812 -50.429  1.00  0.00     0.019 A 
HETATM   26  C   UNL     1     -41.195  59.740 -50.618  1.00  0.00     0.032 A 
ENDBRANCH  20  21
ENDBRANCH  16  19
ENDBRANCH  14  15
ENDBRANCH   1  14
TORSDOF 6
ENDMDL
MODEL 2
REMARK VINA RESULT:      -7.8      4.229      6.477
REMARK  6 active torsions:
REMARK  status: ('A' for Active; 'I' for Inactive)
REMARK    1  A    between atoms: C_4  and  C_5 
REMARK    2  A    between atoms: C_6  and  O_7 
REMARK    3  A    between atoms: O_7  and  C_8 
REMARK    4  A    between atoms: C_8  and  C_9 
REMARK       I    between atoms: C_9  and  N_10 
REMARK    5  A    between atoms: N_10  and  N_11 
REMARK    6  A    between atoms: C_12  and  C_13 
ROOT
HETATM    1  O   UNL     1     -41.099  54.008 -53.818  1.00  0.00    -0.341 OA
ENDROOT
BRANCH   1   2
HETATM    2  C   UNL     1     -40.617  52.748 -53.557  1.00  0.00     0.080 A 
HETATM    3  C   UNL     1     -40.340  52.401 -52.219  1.00  0.00     0.007 A 
HETATM    4  C   UNL     1     -39.795  51.128 -51.970  1.00  0.00     0.015 A 
HETATM    5  C   UNL     1     -39.523  50.240 -53.014  1.00  0.00     0.001 A 
HETATM    6  C   UNL     1     -39.783  50.611 -54.331  1.00  0.00     0.003 A 
HETATM    7  C   UNL     1     -40.323  51.868 -54.603  1.00  0.00     0.037 A 
BRANCH   3   8
HETATM    8  C   UNL     1     -40.614  53.310 -51.092  1.00  0.00    -0.023 A 
HETATM    9  C   UNL     1     -41.899  53.839 -50.880  1.00  0.00     0.012 A 
HETATM   10  C   UNL     1     -42.157  54.691 -49.805  1.00  0.00     0.001 A 
HETATM   11  C   UNL     1     -41.138  55.022 -48.916  1.00  0.00     0.000 A 
HETATM   12  C   UNL     1     -39.858  54.506 -49.106  1.00  0.00     0.001 A 
HETATM   13  C   UNL     1     -39.599  53.657 -50.186  1.00  0.00     0.012 A 
ENDBRANCH   3   8
ENDBRANCH   1   2
BRANCH   1  14
HETATM   14  C   UNL     1     -40.922  54.390 -55.186  1.00  0.00     0.280 C 
BRANCH  14  15
HETATM   15  C   UNL     1     -42.264  54.713 -55.839  1.00  0.00     0.261 C 
HETATM   16  N   UNL     1     -42.166  55.661 -56.846  1.00  0.00    -0.246 N 
HETATM   17  H   UNL     1     -41.259  56.086 -57.028  1.00  0.00     0.192 HD
HETATM   18  O   UNL     1     -43.299  54.149 -55.489  1.00  0.00    -0.269 OA
BRANCH  16  19
HETATM   19  N   UNL     1     -43.270  56.037 -57.548  1.00  0.00    -0.182 NA
HETATM   20  C   UNL     1     -43.466  55.406 -58.660  1.00  0.00     0.168 C 
BRANCH  20  21
HETATM   21  C   UNL     1     -44.609  55.741 -59.465  1.00  0.00     0.051 A 
HETATM   22  N   UNL     1     -45.625  56.563 -59.029  1.00  0.00    -0.365 N 
HETATM   23  H   UNL     1     -45.647  56.989 -58.110  1.00  0.00     0.165 HD
HETATM   24  C   UNL     1     -46.567  56.703 -60.014  1.00  0.00     0.088 A 
HETATM   25  C   UNL     1     -46.162  55.955 -61.096  1.00  0.00     0.019 A 
HETATM   26  C   UNL     1     -44.928  55.349 -60.752  1.00  0.00     0.032 A 
ENDBRANCH  20  21
ENDBRANCH  16  19
ENDBRANCH  14  15
ENDBRANCH   1  14
TORSDOF 6
ENDMDL
MODEL 3
REMARK VINA RESULT:      -7.6      3.561      6.071
REMARK  6 active torsions:
REMARK  status: ('A' for Active; 'I' for Inactive)
REMARK    1  A    between atoms: C_4  and  C_5 
REMARK    2  A    between atoms: C_6  and  O_7 
REMARK    3  A    between atoms: O_7  and  C_8 
REMARK    4  A    between atoms: C_8  and  C_9 
REMARK       I    between atoms: C_9  and  N_10 
REMARK    5  A    between atoms: N_10  and  N_11 
REMARK    6  A    between atoms: C_12  and  C_13 
ROOT
HETATM    1  O   UNL     1     -42.562  53.670 -52.521  1.00  0.00    -0.341 OA
ENDROOT
BRANCH   1   2
HETATM    2  C   UNL     1     -41.680  54.001 -51.521  1.00  0.00     0.080 A 
HETATM    3  C   UNL     1     -40.515  53.222 -51.370  1.00  0.00     0.007 A 
HETATM    4  C   UNL     1     -39.649  53.537 -50.308  1.00  0.00     0.015 A 
HETATM    5  C   UNL     1     -39.937  54.579 -49.421  1.00  0.00     0.001 A 
HETATM    6  C   UNL     1     -41.104  55.322 -49.576  1.00  0.00     0.003 A 
HETATM    7  C   UNL     1     -41.980  55.029 -50.621  1.00  0.00     0.037 A 
BRANCH   3   8
HETATM    8  C   UNL     1     -40.177  52.116 -52.284  1.00  0.00    -0.023 A 
HETATM    9  C   UNL     1     -39.838  50.845 -51.791  1.00  0.00     0.012 A 
HETATM   10  C   UNL     1     -39.529  49.796 -52.659  1.00  0.00     0.001 A 
HETATM   11  C   UNL     1     -39.564  49.998 -54.036  1.00  0.00     0.000 A 
HETATM   12  C   UNL     1     -39.903  51.249 -54.546  1.00  0.00     0.001 A 
HETATM   13  C   UNL     1     -40.206  52.300 -53.675  1.00  0.00     0.012 A 
ENDBRANCH   3   8
ENDBRANCH   1   2
BRANCH   1  14
HETATM   14  C   UNL     1     -43.229  54.813 -53.066  1.00  0.00     0.280 C 
BRANCH  14  15
HETATM   15  C   UNL     1     -42.545  55.283 -54.348  1.00  0.00     0.261 C 
HETATM   16  N   UNL     1     -43.381  55.255 -55.453  1.00  0.00    -0.246 N 
HETATM   17  H   UNL     1     -44.325  54.890 -55.341  1.00  0.00     0.192 HD
HETATM   18  O   UNL     1     -41.375  55.660 -54.348  1.00  0.00    -0.269 OA
BRANCH  16  19
HETATM   19  N   UNL     1     -42.930  55.673 -56.668  1.00  0.00    -0.182 NA
HETATM   20  C   UNL     1     -43.133  56.921 -56.939  1.00  0.00     0.168 C 
BRANCH  20  21
HETATM   21  C   UNL     1     -42.690  57.445 -58.202  1.00  0.00     0.051 A 
HETATM   22  N   UNL     1     -42.189  56.657 -59.214  1.00  0.00    -0.365 N 
HETATM   23  H   UNL     1     -42.092  55.650 -59.145  1.00  0.00     0.165 HD
HETATM   24  C   UNL     1     -41.859  57.434 -60.293  1.00  0.00     0.088 A 
HETATM   25  C   UNL     1     -42.138  58.743 -59.971  1.00  0.00     0.019 A 
HETATM   26  C   UNL     1     -42.662  58.752 -58.655  1.00  0.00     0.032 A 
ENDBRANCH  20  21
ENDBRANCH  16  19
ENDBRANCH  14  15
ENDBRANCH   1  14
TORSDOF 6
ENDMDL
MODEL 4
REMARK VINA RESULT:      -7.6      3.790      6.559
REMARK  6 active torsions:
REMARK  status: ('A' for Active; 'I' for Inactive)
REMARK    1  A    between atoms: C_4  and  C_5 
REMARK    2  A    between atoms: C_6  and  O_7 
REMARK    3  A    between atoms: O_7  and  C_8 
REMARK    4  A    between atoms: C_8  and  C_9 
REMARK       I    between atoms: C_9  and  N_10 
REMARK    5  A    between atoms: N_10  and  N_11 
REMARK    6  A    between atoms: C_12  and  C_13 
ROOT
HETATM    1  O   UNL     1     -40.770  54.684 -53.002  1.00  0.00    -0.341 OA
ENDROOT
BRANCH   1   2
HETATM    2  C   UNL     1     -40.710  54.471 -51.646  1.00  0.00     0.080 A 
HETATM    3  C   UNL     1     -40.449  53.166 -51.183  1.00  0.00     0.007 A 
HETATM    4  C   UNL     1     -40.446  52.951 -49.793  1.00  0.00     0.015 A 
HETATM    5  C   UNL     1     -40.706  53.993 -48.898  1.00  0.00     0.001 A 
HETATM    6  C   UNL     1     -40.984  55.270 -49.377  1.00  0.00     0.003 A 
HETATM    7  C   UNL     1     -40.993  55.509 -50.751  1.00  0.00     0.037 A 
BRANCH   3   8
HETATM    8  C   UNL     1     -40.170  52.043 -52.096  1.00  0.00    -0.023 A 
HETATM    9  C   UNL     1     -40.336  52.177 -53.485  1.00  0.00     0.012 A 
HETATM   10  C   UNL     1     -40.061  51.115 -54.348  1.00  0.00     0.001 A 
HETATM   11  C   UNL     1     -39.605  49.902 -53.838  1.00  0.00     0.000 A 
HETATM   12  C   UNL     1     -39.429  49.750 -52.464  1.00  0.00     0.001 A 
HETATM   13  C   UNL     1     -39.710  50.812 -51.601  1.00  0.00     0.012 A 
ENDBRANCH   3   8
ENDBRANCH   1   2
BRANCH   1  14
HETATM   14  C   UNL     1     -41.680  55.731 -53.354  1.00  0.00     0.280 C 
BRANCH  14  15
HETATM   15  C   UNL     1     -42.613  55.286 -54.477  1.00  0.00     0.261 C 
HETATM   16  N   UNL     1     -42.176  55.672 -55.735  1.00  0.00    -0.246 N 
HETATM   17  H   UNL     1     -41.334  56.241 -55.805  1.00  0.00     0.192 HD
HETATM   18  O   UNL     1     -43.629  54.634 -54.245  1.00  0.00    -0.269 OA
BRANCH  16  19
HETATM   19  N   UNL     1     -42.883  55.326 -56.846  1.00  0.00    -0.182 NA
HETATM   20  C   UNL     1     -43.303  56.312 -57.570  1.00  0.00     0.168 C 
BRANCH  20  21
HETATM   21  C   UNL     1     -44.058  56.036 -58.761  1.00  0.00     0.051 A 
HETATM   22  N   UNL     1     -45.317  56.546 -58.993  1.00  0.00    -0.365 N 
HETATM   23  H   UNL     1     -45.806  57.149 -58.343  1.00  0.00     0.165 HD
HETATM   24  C   UNL     1     -45.778  56.116 -60.209  1.00  0.00     0.088 A 
HETATM   25  C   UNL     1     -44.812  55.309 -60.766  1.00  0.00     0.019 A 
HETATM   26  C   UNL     1     -43.728  55.259 -59.856  1.00  0.00     0.032 A 
ENDBRANCH  20  21
ENDBRANCH  16  19
ENDBRANCH  14  15
ENDBRANCH   1  14
TORSDOF 6
ENDMDL
MODEL 5
REMARK VINA RESULT:      -7.5      1.712      3.362
REMARK  6 active torsions:
REMARK  status: ('A' for Active; 'I' for Inactive)
REMARK    1  A    between atoms: C_4  and  C_5 
REMARK    2  A    between atoms: C_6  and  O_7 
REMARK    3  A    between atoms: O_7  and  C_8 
REMARK    4  A    between atoms: C_8  and  C_9 
REMARK       I    between atoms: C_9  and  N_10 
REMARK    5  A    between atoms: N_10  and  N_11 
REMARK    6  A    between atoms: C_12  and  C_13 
ROOT
HETATM    1  O   UNL     1     -40.481  53.686 -53.922  1.00  0.00    -0.341 OA
ENDROOT
BRANCH   1   2
HETATM    2  C   UNL     1     -40.218  52.390 -53.547  1.00  0.00     0.080 A 
HETATM    3  C   UNL     1     -40.183  52.085 -52.171  1.00  0.00     0.007 A 
HETATM    4  C   UNL     1     -39.857  50.768 -51.799  1.00  0.00     0.015 A 
HETATM    5  C   UNL     1     -39.563  49.796 -52.759  1.00  0.00     0.001 A 
HETATM    6  C   UNL     1     -39.580  50.124 -54.112  1.00  0.00     0.003 A 
HETATM    7  C   UNL     1     -39.901  51.423 -54.506  1.00  0.00     0.037 A 
BRANCH   3   8
HETATM    8  C   UNL     1     -40.488  53.083 -51.130  1.00  0.00    -0.023 A 
HETATM    9  C   UNL     1     -39.464  53.675 -50.371  1.00  0.00     0.012 A 
HETATM   10  C   UNL     1     -39.754  54.629 -49.393  1.00  0.00     0.001 A 
HETATM   11  C   UNL     1     -41.073  55.014 -49.164  1.00  0.00     0.000 A 
HETATM   12  C   UNL     1     -42.101  54.443 -49.909  1.00  0.00     0.001 A 
HETATM   13  C   UNL     1     -41.810  53.484 -50.884  1.00  0.00     0.012 A 
ENDBRANCH   3   8
ENDBRANCH   1   2
BRANCH   1  14
HETATM   14  C   UNL     1     -41.714  53.809 -54.638  1.00  0.00     0.280 C 
BRANCH  14  15
HETATM   15  C   UNL     1     -42.491  55.039 -54.176  1.00  0.00     0.261 C 
HETATM   16  N   UNL     1     -41.753  55.873 -53.350  1.00  0.00    -0.246 N 
HETATM   17  H   UNL     1     -40.812  55.587 -53.085  1.00  0.00     0.192 HD
HETATM   18  O   UNL     1     -43.647  55.241 -54.542  1.00  0.00    -0.269 OA
BRANCH  16  19
HETATM   19  N   UNL     1     -42.294  57.029 -52.876  1.00  0.00    -0.182 NA
HETATM   20  C   UNL     1     -41.683  57.558 -51.866  1.00  0.00     0.168 C 
BRANCH  20  21
HETATM   21  C   UNL     1     -42.188  58.780 -51.303  1.00  0.00     0.051 A 
HETATM   22  N   UNL     1     -43.526  59.009 -51.070  1.00  0.00    -0.365 N 
HETATM   23  H   UNL     1     -44.255  58.337 -51.280  1.00  0.00     0.165 HD
HETATM   24  C   UNL     1     -43.700  60.252 -50.523  1.00  0.00     0.088 A 
HETATM   25  C   UNL     1     -42.461  60.841 -50.412  1.00  0.00     0.019 A 
HETATM   26  C   UNL     1     -41.507  59.915 -50.902  1.00  0.00     0.032 A 
ENDBRANCH  20  21
ENDBRANCH  16  19
ENDBRANCH  14  15
ENDBRANCH   1  14
TORSDOF 6
ENDMDL
MODEL 6
REMARK VINA RESULT:      -7.4      4.314      6.988
REMARK  6 active torsions:
REMARK  status: ('A' for Active; 'I' for Inactive)
REMARK    1  A    between atoms: C_4  and  C_5 
REMARK    2  A    between atoms: C_6  and  O_7 
REMARK    3  A    between atoms: O_7  and  C_8 
REMARK    4  A    between atoms: C_8  and  C_9 
REMARK       I    between atoms: C_9  and  N_10 
REMARK    5  A    between atoms: N_10  and  N_11 
REMARK    6  A    between atoms: C_12  and  C_13 
ROOT
HETATM    1  O   UNL     1     -41.379  55.974 -53.674  1.00  0.00    -0.341 OA
ENDROOT
BRANCH   1   2
HETATM    2  C   UNL     1     -42.172  55.687 -52.590  1.00  0.00     0.080 A 
HETATM    3  C   UNL     1     -42.144  54.378 -52.068  1.00  0.00     0.007 A 
HETATM    4  C   UNL     1     -43.002  54.082 -50.993  1.00  0.00     0.015 A 
HETATM    5  C   UNL     1     -43.864  55.049 -50.466  1.00  0.00     0.001 A 
HETATM    6  C   UNL     1     -43.891  56.329 -51.011  1.00  0.00     0.003 A 
HETATM    7  C   UNL     1     -43.051  56.647 -52.078  1.00  0.00     0.037 A 
BRANCH   3   8
HETATM    8  C   UNL     1     -41.250  53.333 -52.596  1.00  0.00    -0.023 A 
HETATM    9  C   UNL     1     -41.340  52.906 -53.932  1.00  0.00     0.012 A 
HETATM   10  C   UNL     1     -40.484  51.924 -54.432  1.00  0.00     0.001 A 
HETATM   11  C   UNL     1     -39.515  51.357 -53.608  1.00  0.00     0.000 A 
HETATM   12  C   UNL     1     -39.405  51.770 -52.283  1.00  0.00     0.001 A 
HETATM   13  C   UNL     1     -40.267  52.750 -51.781  1.00  0.00     0.012 A 
ENDBRANCH   3   8
ENDBRANCH   1   2
BRANCH   1  14
HETATM   14  C   UNL     1     -41.503  57.335 -54.100  1.00  0.00     0.280 C 
BRANCH  14  15
HETATM   15  C   UNL     1     -42.458  57.448 -55.286  1.00  0.00     0.261 C 
HETATM   16  N   UNL     1     -41.985  56.825 -56.430  1.00  0.00    -0.246 N 
HETATM   17  H   UNL     1     -41.057  56.406 -56.408  1.00  0.00     0.192 HD
HETATM   18  O   UNL     1     -43.539  58.025 -55.185  1.00  0.00    -0.269 OA
BRANCH  16  19
HETATM   19  N   UNL     1     -42.733  56.810 -57.567  1.00  0.00    -0.182 NA
HETATM   20  C   UNL     1     -43.341  55.697 -57.821  1.00  0.00     0.168 C 
BRANCH  20  21
HETATM   21  C   UNL     1     -44.152  55.594 -59.003  1.00  0.00     0.051 A 
HETATM   22  N   UNL     1     -45.261  56.379 -59.229  1.00  0.00    -0.365 N 
HETATM   23  H   UNL     1     -45.591  57.084 -58.581  1.00  0.00     0.165 HD
HETATM   24  C   UNL     1     -45.821  56.059 -60.437  1.00  0.00     0.088 A 
HETATM   25  C   UNL     1     -45.074  55.047 -60.995  1.00  0.00     0.019 A 
HETATM   26  C   UNL     1     -44.021  54.753 -60.092  1.00  0.00     0.032 A 
ENDBRANCH  20  21
ENDBRANCH  16  19
ENDBRANCH  14  15
ENDBRANCH   1  14
TORSDOF 6
ENDMDL
MODEL 7
REMARK VINA RESULT:      -7.1      3.223      5.105
REMARK  6 active torsions:
REMARK  status: ('A' for Active; 'I' for Inactive)
REMARK    1  A    between atoms: C_4  and  C_5 
REMARK    2  A    between atoms: C_6  and  O_7 
REMARK    3  A    between atoms: O_7  and  C_8 
REMARK    4  A    between atoms: C_8  and  C_9 
REMARK       I    between atoms: C_9  and  N_10 
REMARK    5  A    between atoms: N_10  and  N_11 
REMARK    6  A    between atoms: C_12  and  C_13 
ROOT
HETATM    1  O   UNL     1     -41.895  56.865 -51.246  1.00  0.00    -0.341 OA
ENDROOT
BRANCH   1   2
HETATM    2  C   UNL     1     -41.405  55.695 -50.718  1.00  0.00     0.080 A 
HETATM    3  C   UNL     1     -41.287  54.575 -51.564  1.00  0.00     0.007 A 
HETATM    4  C   UNL     1     -40.836  53.368 -50.998  1.00  0.00     0.015 A 
HETATM    5  C   UNL     1     -40.528  53.277 -49.638  1.00  0.00     0.001 A 
HETATM    6  C   UNL     1     -40.673  54.390 -48.815  1.00  0.00     0.003 A 
HETATM    7  C   UNL     1     -41.118  55.598 -49.352  1.00  0.00     0.037 A 
BRANCH   3   8
HETATM    8  C   UNL     1     -41.602  54.632 -53.003  1.00  0.00    -0.023 A 
HETATM    9  C   UNL     1     -42.913  54.431 -53.468  1.00  0.00     0.012 A 
HETATM   10  C   UNL     1     -43.212  54.498 -54.830  1.00  0.00     0.001 A 
HETATM   11  C   UNL     1     -42.205  54.775 -55.752  1.00  0.00     0.000 A 
HETATM   12  C   UNL     1     -40.900  54.981 -55.312  1.00  0.00     0.001 A 
HETATM   13  C   UNL     1     -40.602  54.909 -53.948  1.00  0.00     0.012 A 
ENDBRANCH   3   8
ENDBRANCH   1   2
BRANCH   1  14
HETATM   14  C   UNL     1     -40.989  57.960 -51.089  1.00  0.00     0.280 C 
BRANCH  14  15
HETATM   15  C   UNL     1     -40.632  58.570 -52.442  1.00  0.00     0.261 C 
HETATM   16  N   UNL     1     -41.645  58.448 -53.380  1.00  0.00    -0.246 N 
HETATM   17  H   UNL     1     -42.488  57.938 -53.123  1.00  0.00     0.192 HD
HETATM   18  O   UNL     1     -39.550  59.125 -52.630  1.00  0.00    -0.269 OA
BRANCH  16  19
HETATM   19  N   UNL     1     -41.494  58.969 -54.629  1.00  0.00    -0.182 NA
HETATM   20  C   UNL     1     -42.255  58.457 -55.542  1.00  0.00     0.168 C 
BRANCH  20  21
HETATM   21  C   UNL     1     -42.160  58.948 -56.890  1.00  0.00     0.051 A 
HETATM   22  N   UNL     1     -41.885  60.262 -57.198  1.00  0.00    -0.365 N 
HETATM   23  H   UNL     1     -41.732  60.981 -56.501  1.00  0.00     0.165 HD
HETATM   24  C   UNL     1     -41.850  60.426 -58.557  1.00  0.00     0.088 A 
HETATM   25  C   UNL     1     -42.119  59.207 -59.137  1.00  0.00     0.019 A 
HETATM   26  C   UNL     1     -42.313  58.274 -58.088  1.00  0.00     0.032 A 
ENDBRANCH  20  21
ENDBRANCH  16  19
ENDBRANCH  14  15
ENDBRANCH   1  14
TORSDOF 6
ENDMDL
MODEL 8
REMARK VINA RESULT:      -6.9      2.049      2.965
REMARK  6 active torsions:
REMARK  status: ('A' for Active; 'I' for Inactive)
REMARK    1  A    between atoms: C_4  and  C_5 
REMARK    2  A    between atoms: C_6  and  O_7 
REMARK    3  A    between atoms: O_7  and  C_8 
REMARK    4  A    between atoms: C_8  and  C_9 
REMARK       I    between atoms: C_9  and  N_10 
REMARK    5  A    between atoms: N_10  and  N_11 
REMARK    6  A    between atoms: C_12  and  C_13 
ROOT
HETATM    1  O   UNL     1     -41.795  54.478 -50.646  1.00  0.00    -0.341 OA
ENDROOT
BRANCH   1   2
HETATM    2  C   UNL     1     -41.061  53.576 -51.376  1.00  0.00     0.080 A 
HETATM    3  C   UNL     1     -41.087  53.671 -52.782  1.00  0.00     0.007 A 
HETATM    4  C   UNL     1     -40.376  52.707 -53.519  1.00  0.00     0.015 A 
HETATM    5  C   UNL     1     -39.676  51.679 -52.882  1.00  0.00     0.001 A 
HETATM    6  C   UNL     1     -39.681  51.589 -51.493  1.00  0.00     0.003 A 
HETATM    7  C   UNL     1     -40.379  52.533 -50.739  1.00  0.00     0.037 A 
BRANCH   3   8
HETATM    8  C   UNL     1     -41.814  54.741 -53.489  1.00  0.00    -0.023 A 
HETATM    9  C   UNL     1     -41.153  55.902 -53.926  1.00  0.00     0.012 A 
HETATM   10  C   UNL     1     -41.841  56.908 -54.607  1.00  0.00     0.001 A 
HETATM   11  C   UNL     1     -43.202  56.767 -54.870  1.00  0.00     0.000 A 
HETATM   12  C   UNL     1     -43.874  55.623 -54.450  1.00  0.00     0.001 A 
HETATM   13  C   UNL     1     -43.185  54.618 -53.764  1.00  0.00     0.012 A 
ENDBRANCH   3   8
ENDBRANCH   1   2
BRANCH   1  14
HETATM   14  C   UNL     1     -40.984  55.502 -50.063  1.00  0.00     0.280 C 
BRANCH  14  15
HETATM   15  C   UNL     1     -41.431  56.884 -50.532  1.00  0.00     0.261 C 
HETATM   16  N   UNL     1     -42.783  56.948 -50.832  1.00  0.00    -0.246 N 
HETATM   17  H   UNL     1     -43.336  56.095 -50.770  1.00  0.00     0.192 HD
HETATM   18  O   UNL     1     -40.642  57.824 -50.600  1.00  0.00    -0.269 OA
BRANCH  16  19
HETATM   19  N   UNL     1     -43.346  58.120 -51.235  1.00  0.00    -0.182 NA
HETATM   20  C   UNL     1     -44.594  58.054 -51.570  1.00  0.00     0.168 C 
BRANCH  20  21
HETATM   21  C   UNL     1     -45.266  59.246 -52.010  1.00  0.00     0.051 A 
HETATM   22  N   UNL     1     -45.393  59.596 -53.336  1.00  0.00    -0.365 N 
HETATM   23  H   UNL     1     -45.022  59.044 -54.100  1.00  0.00     0.165 HD
HETATM   24  C   UNL     1     -46.085  60.773 -53.443  1.00  0.00     0.088 A 
HETATM   25  C   UNL     1     -46.399  61.197 -52.172  1.00  0.00     0.019 A 
HETATM   26  C   UNL     1     -45.884  60.235 -51.267  1.00  0.00     0.032 A 
ENDBRANCH  20  21
ENDBRANCH  16  19
ENDBRANCH  14  15
ENDBRANCH   1  14
TORSDOF 6
ENDMDL
MODEL 9
REMARK VINA RESULT:      -6.8      3.037      4.302
REMARK  6 active torsions:
REMARK  status: ('A' for Active; 'I' for Inactive)
REMARK    1  A    between atoms: C_4  and  C_5 
REMARK    2  A    between atoms: C_6  and  O_7 
REMARK    3  A    between atoms: O_7  and  C_8 
REMARK    4  A    between atoms: C_8  and  C_9 
REMARK       I    between atoms: C_9  and  N_10 
REMARK    5  A    between atoms: N_10  and  N_11 
REMARK    6  A    between atoms: C_12  and  C_13 
ROOT
HETATM    1  O   UNL     1     -42.122  53.560 -54.600  1.00  0.00    -0.341 OA
ENDROOT
BRANCH   1   2
HETATM    2  C   UNL     1     -41.219  52.836 -53.858  1.00  0.00     0.080 A 
HETATM    3  C   UNL     1     -41.023  53.192 -52.509  1.00  0.00     0.007 A 
HETATM    4  C   UNL     1     -40.056  52.480 -51.776  1.00  0.00     0.015 A 
HETATM    5  C   UNL     1     -39.303  51.461 -52.368  1.00  0.00     0.001 A 
HETATM    6  C   UNL     1     -39.497  51.141 -53.708  1.00  0.00     0.003 A 
HETATM    7  C   UNL     1     -40.450  51.833 -54.456  1.00  0.00     0.037 A 
BRANCH   3   8
HETATM    8  C   UNL     1     -41.797  54.259 -51.850  1.00  0.00    -0.023 A 
HETATM    9  C   UNL     1     -41.253  55.542 -51.665  1.00  0.00     0.012 A 
HETATM   10  C   UNL     1     -41.993  56.555 -51.051  1.00  0.00     0.001 A 
HETATM   11  C   UNL     1     -43.293  56.305 -50.619  1.00  0.00     0.000 A 
HETATM   12  C   UNL     1     -43.852  55.042 -50.797  1.00  0.00     0.001 A 
HETATM   13  C   UNL     1     -43.108  54.027 -51.407  1.00  0.00     0.012 A 
ENDBRANCH   3   8
ENDBRANCH   1   2
BRANCH   1  14
HETATM   14  C   UNL     1     -41.488  54.527 -55.443  1.00  0.00     0.280 C 
BRANCH  14  15
HETATM   15  C   UNL     1     -42.399  55.731 -55.669  1.00  0.00     0.261 C 
HETATM   16  N   UNL     1     -43.251  55.978 -54.604  1.00  0.00    -0.246 N 
HETATM   17  H   UNL     1     -43.242  55.336 -53.814  1.00  0.00     0.192 HD
HETATM   18  O   UNL     1     -42.332  56.400 -56.698  1.00  0.00    -0.269 OA
BRANCH  16  19
HETATM   19  N   UNL     1     -44.106  57.038 -54.637  1.00  0.00    -0.182 NA
HETATM   20  C   UNL     1     -43.813  58.016 -53.842  1.00  0.00     0.168 C 
BRANCH  20  21
HETATM   21  C   UNL     1     -44.664  59.173 -53.812  1.00  0.00     0.051 A 
HETATM   22  N   UNL     1     -45.274  59.634 -52.666  1.00  0.00    -0.365 N 
HETATM   23  H   UNL     1     -45.172  59.192 -51.760  1.00  0.00     0.165 HD
HETATM   24  C   UNL     1     -46.012  60.753 -52.947  1.00  0.00     0.088 A 
HETATM   25  C   UNL     1     -45.890  61.013 -54.293  1.00  0.00     0.019 A 
HETATM   26  C   UNL     1     -45.040  60.019 -54.839  1.00  0.00     0.032 A 
ENDBRANCH  20  21
ENDBRANCH  16  19
ENDBRANCH  14  15
ENDBRANCH   1  14
TORSDOF 6
ENDMDL
MODEL 10
REMARK VINA RESULT:      -6.6      3.517      6.153
REMARK  6 active torsions:
REMARK  status: ('A' for Active; 'I' for Inactive)
REMARK    1  A    between atoms: C_4  and  C_5 
REMARK    2  A    between atoms: C_6  and  O_7 
REMARK    3  A    between atoms: O_7  and  C_8 
REMARK    4  A    between atoms: C_8  and  C_9 
REMARK       I    between atoms: C_9  and  N_10 
REMARK    5  A    between atoms: N_10  and  N_11 
REMARK    6  A    between atoms: C_12  and  C_13 
ROOT
HETATM    1  O   UNL     1     -40.848  54.754 -52.579  1.00  0.00    -0.341 OA
ENDROOT
BRANCH   1   2
HETATM    2  C   UNL     1     -40.835  54.453 -51.238  1.00  0.00     0.080 A 
HETATM    3  C   UNL     1     -41.216  55.455 -50.323  1.00  0.00     0.007 A 
HETATM    4  C   UNL     1     -41.145  55.152 -48.951  1.00  0.00     0.015 A 
HETATM    5  C   UNL     1     -40.699  53.904 -48.506  1.00  0.00     0.001 A 
HETATM    6  C   UNL     1     -40.305  52.937 -49.427  1.00  0.00     0.003 A 
HETATM    7  C   UNL     1     -40.366  53.213 -50.793  1.00  0.00     0.037 A 
BRANCH   3   8
HETATM    8  C   UNL     1     -41.693  56.781 -50.753  1.00  0.00    -0.023 A 
HETATM    9  C   UNL     1     -43.018  56.975 -51.179  1.00  0.00     0.012 A 
HETATM   10  C   UNL     1     -43.469  58.235 -51.575  1.00  0.00     0.001 A 
HETATM   11  C   UNL     1     -42.606  59.327 -51.543  1.00  0.00     0.000 A 
HETATM   12  C   UNL     1     -41.290  59.158 -51.119  1.00  0.00     0.001 A 
HETATM   13  C   UNL     1     -40.837  57.894 -50.728  1.00  0.00     0.012 A 
ENDBRANCH   3   8
ENDBRANCH   1   2
BRANCH   1  14
HETATM   14  C   UNL     1     -41.586  53.800 -53.348  1.00  0.00     0.280 C 
BRANCH  14  15
HETATM   15  C   UNL     1     -41.530  54.140 -54.835  1.00  0.00     0.261 C 
HETATM   16  N   UNL     1     -42.746  54.570 -55.343  1.00  0.00    -0.246 N 
HETATM   17  H   UNL     1     -43.557  54.576 -54.726  1.00  0.00     0.192 HD
HETATM   18  O   UNL     1     -40.484  54.048 -55.475  1.00  0.00    -0.269 OA
BRANCH  16  19
HETATM   19  N   UNL     1     -42.856  54.942 -56.648  1.00  0.00    -0.182 NA
HETATM   20  C   UNL     1     -43.297  56.141 -56.852  1.00  0.00     0.168 C 
BRANCH  20  21
HETATM   21  C   UNL     1     -43.445  56.614 -58.201  1.00  0.00     0.051 A 
HETATM   22  N   UNL     1     -44.630  56.542 -58.901  1.00  0.00    -0.365 N 
HETATM   23  H   UNL     1     -45.483  56.149 -58.521  1.00  0.00     0.165 HD
HETATM   24  C   UNL     1     -44.466  57.076 -60.152  1.00  0.00     0.088 A 
HETATM   25  C   UNL     1     -43.157  57.487 -60.268  1.00  0.00     0.019 A 
HETATM   26  C   UNL     1     -42.513  57.197 -59.039  1.00  0.00     0.032 A 
ENDBRANCH  20  21
ENDBRANCH  16  19
ENDBRANCH  14  15
ENDBRANCH   1  14
TORSDOF 6
ENDMDL
