MODEL 1
REMARK VINA RESULT:      -8.2      0.000      0.000
REMARK  8 active torsions:
REMARK  status: ('A' for Active; 'I' for Inactive)
REMARK    1  A    between atoms: N_5  and  C_7 
REMARK    2  A    between atoms: C_7  and  C_8 
REMARK    3  A    between atoms: N_9  and  C_10 
REMARK    4  A    between atoms: C_14  and  N_15 
REMARK    5  A    between atoms: C_18  and  C_19 
REMARK       I    between atoms: C_19  and  N_20 
REMARK    6  A    between atoms: N_20  and  N_21 
REMARK    7  A    between atoms: C_22  and  C_23 
REMARK    8  A    between atoms: C_24  and  O_25 
ROOT
HETATM    1  C   UNL     1     -42.206  58.138 -54.381  1.00  0.00     0.096 A 
HETATM    2  N   UNL     1     -41.503  59.133 -53.699  1.00  0.00    -0.215 N 
HETATM    3  N   UNL     1     -41.388  60.215 -54.519  1.00  0.00     0.012 NA
HETATM    4  N   UNL     1     -41.883  59.922 -55.709  1.00  0.00    -0.152 NA
HETATM    5  C   UNL     1     -42.373  58.653 -55.659  1.00  0.00     0.170 A 
ENDROOT
BRANCH   5   6
HETATM    6  C   UNL     1     -42.972  57.969 -56.796  1.00  0.00     0.293 C 
HETATM    7  N   UNL     1     -43.794  58.773 -57.562  1.00  0.00    -0.242 N 
HETATM    8  H   UNL     1     -43.925  59.751 -57.306  1.00  0.00     0.192 HD
HETATM    9  O   UNL     1     -42.709  56.785 -57.008  1.00  0.00    -0.264 OA
BRANCH   7  10
HETATM   10  N   UNL     1     -44.454  58.252 -58.632  1.00  0.00    -0.183 NA
HETATM   11  C   UNL     1     -45.704  58.585 -58.732  1.00  0.00     0.153 C 
BRANCH  11  12
HETATM   12  C   UNL     1     -46.549  58.075 -59.832  1.00  0.00     0.017 A 
HETATM   13  C   UNL     1     -46.610  56.714 -60.158  1.00  0.00     0.077 A 
HETATM   14  C   UNL     1     -47.428  56.277 -61.197  1.00  0.00     0.039 A 
HETATM   15  C   UNL     1     -48.189  57.197 -61.919  1.00  0.00     0.022 A 
HETATM   16  C   UNL     1     -48.125  58.552 -61.596  1.00  0.00     0.012 A 
HETATM   17 BR   UNL     1     -49.154  59.798 -62.578  1.00  0.00    -0.051 Br
HETATM   18  C   UNL     1     -47.310  59.000 -60.556  1.00  0.00     0.034 A 
BRANCH  13  19
HETATM   19  O   UNL     1     -45.896  55.752 -59.496  1.00  0.00    -0.360 OA
HETATM   20  H   UNL     1     -45.434  56.184 -58.746  1.00  0.00     0.217 HD
ENDBRANCH  13  19
ENDBRANCH  11  12
ENDBRANCH   7  10
ENDBRANCH   5   6
BRANCH   1  21
HETATM   21  C   UNL     1     -42.712  56.866 -53.813  1.00  0.00     0.296 C 
BRANCH  21  22
HETATM   22  N   UNL     1     -42.087  55.624 -54.408  1.00  0.00    -0.066 N 
HETATM   23  C   UNL     1     -40.585  55.604 -54.301  1.00  0.00     0.235 C 
HETATM   24  C   UNL     1     -40.028  54.371 -54.998  1.00  0.00     0.032 C 
HETATM   25  C   UNL     1     -40.633  53.063 -54.476  1.00  0.00    -0.016 C 
HETATM   26  C   UNL     1     -40.122  52.722 -53.073  1.00  0.00     0.010 C 
HETATM   27  C   UNL     1     -42.163  53.141 -54.525  1.00  0.00     0.032 C 
HETATM   28  C   UNL     1     -42.722  54.377 -53.835  1.00  0.00     0.235 C 
HETATM   29  H   UNL     1     -42.354  55.635 -55.414  1.00  0.00     0.280 HD
ENDBRANCH  21  22
ENDBRANCH   1  21
BRANCH   2  30
HETATM   30  C   UNL     1     -40.916  59.105 -52.412  1.00  0.00     0.225 A 
HETATM   31  N   UNL     1     -39.589  59.146 -52.277  1.00  0.00    -0.081 NA
HETATM   32  O   UNL     1     -39.392  59.132 -50.894  1.00  0.00    -0.103 OA
HETATM   33  N   UNL     1     -40.603  59.107 -50.217  1.00  0.00    -0.083 NA
HETATM   34  C   UNL     1     -41.547  59.093 -51.156  1.00  0.00     0.201 A 
BRANCH  34  35
HETATM   35  N   UNL     1     -42.866  59.070 -50.908  1.00  0.00    -0.379 N 
HETATM   36  H   UNL     1     -43.529  59.243 -51.659  1.00  0.00     0.158 HD
HETATM   37  H   UNL     1     -43.276  58.692 -50.056  1.00  0.00     0.158 HD
ENDBRANCH  34  35
ENDBRANCH   2  30
TORSDOF 8
ENDMDL
MODEL 2
REMARK VINA RESULT:      -8.1      4.047      7.905
REMARK  8 active torsions:
REMARK  status: ('A' for Active; 'I' for Inactive)
REMARK    1  A    between atoms: N_5  and  C_7 
REMARK    2  A    between atoms: C_7  and  C_8 
REMARK    3  A    between atoms: N_9  and  C_10 
REMARK    4  A    between atoms: C_14  and  N_15 
REMARK    5  A    between atoms: C_18  and  C_19 
REMARK       I    between atoms: C_19  and  N_20 
REMARK    6  A    between atoms: N_20  and  N_21 
REMARK    7  A    between atoms: C_22  and  C_23 
REMARK    8  A    between atoms: C_24  and  O_25 
ROOT
HETATM    1  C   UNL     1     -42.695  58.203 -56.238  1.00  0.00     0.096 A 
HETATM    2  N   UNL     1     -42.556  58.194 -57.628  1.00  0.00    -0.215 N 
HETATM    3  N   UNL     1     -41.845  59.297 -57.994  1.00  0.00     0.012 NA
HETATM    4  N   UNL     1     -41.620  60.050 -56.931  1.00  0.00    -0.152 NA
HETATM    5  C   UNL     1     -42.144  59.415 -55.848  1.00  0.00     0.170 A 
ENDROOT
BRANCH   5   6
HETATM    6  C   UNL     1     -42.116  59.958 -54.497  1.00  0.00     0.293 C 
HETATM    7  N   UNL     1     -43.306  60.538 -54.103  1.00  0.00    -0.242 N 
HETATM    8  H   UNL     1     -44.099  60.549 -54.743  1.00  0.00     0.192 HD
HETATM    9  O   UNL     1     -41.096  59.855 -53.816  1.00  0.00    -0.264 OA
BRANCH   7  10
HETATM   10  N   UNL     1     -43.408  61.124 -52.879  1.00  0.00    -0.183 NA
HETATM   11  C   UNL     1     -44.261  60.577 -52.068  1.00  0.00     0.153 C 
BRANCH  11  12
HETATM   12  C   UNL     1     -44.492  61.121 -50.714  1.00  0.00     0.017 A 
HETATM   13  C   UNL     1     -45.170  60.398 -49.724  1.00  0.00     0.077 A 
HETATM   14  C   UNL     1     -45.356  60.946 -48.457  1.00  0.00     0.039 A 
HETATM   15  C   UNL     1     -44.867  62.221 -48.172  1.00  0.00     0.022 A 
HETATM   16  C   UNL     1     -44.194  62.941 -49.159  1.00  0.00     0.012 A 
HETATM   17 BR   UNL     1     -43.534  64.670 -48.771  1.00  0.00    -0.051 Br
HETATM   18  C   UNL     1     -44.001  62.400 -50.430  1.00  0.00     0.034 A 
BRANCH  13  19
HETATM   19  O   UNL     1     -45.677  59.143 -49.926  1.00  0.00    -0.360 OA
HETATM   20  H   UNL     1     -46.006  58.809 -49.065  1.00  0.00     0.217 HD
ENDBRANCH  13  19
ENDBRANCH  11  12
ENDBRANCH   7  10
ENDBRANCH   5   6
BRANCH   1  21
HETATM   21  C   UNL     1     -43.239  57.110 -55.398  1.00  0.00     0.296 C 
BRANCH  21  22
HETATM   22  N   UNL     1     -42.377  55.868 -55.352  1.00  0.00    -0.066 N 
HETATM   23  C   UNL     1     -41.026  56.104 -54.730  1.00  0.00     0.235 C 
HETATM   24  C   UNL     1     -40.189  54.835 -54.801  1.00  0.00     0.032 C 
HETATM   25  C   UNL     1     -40.881  53.623 -54.168  1.00  0.00    -0.016 C 
HETATM   26  C   UNL     1     -40.920  53.726 -52.641  1.00  0.00     0.010 C 
HETATM   27  C   UNL     1     -42.282  53.453 -54.767  1.00  0.00     0.032 C 
HETATM   28  C   UNL     1     -43.119  54.723 -54.702  1.00  0.00     0.235 C 
HETATM   29  H   UNL     1     -42.245  55.587 -56.346  1.00  0.00     0.280 HD
ENDBRANCH  21  22
ENDBRANCH   1  21
BRANCH   2  30
HETATM   30  C   UNL     1     -43.075  57.288 -58.583  1.00  0.00     0.225 A 
HETATM   31  N   UNL     1     -44.336  56.863 -58.491  1.00  0.00    -0.081 NA
HETATM   32  O   UNL     1     -44.490  56.027 -59.600  1.00  0.00    -0.103 OA
HETATM   33  N   UNL     1     -43.326  55.980 -60.355  1.00  0.00    -0.083 NA
HETATM   34  C   UNL     1     -42.451  56.763 -59.728  1.00  0.00     0.201 A 
BRANCH  34  35
HETATM   35  N   UNL     1     -41.195  56.987 -60.146  1.00  0.00    -0.379 N 
HETATM   36  H   UNL     1     -40.908  57.924 -60.418  1.00  0.00     0.158 HD
HETATM   37  H   UNL     1     -40.432  56.326 -60.027  1.00  0.00     0.158 HD
ENDBRANCH  34  35
ENDBRANCH   2  30
TORSDOF 8
ENDMDL
MODEL 3
REMARK VINA RESULT:      -7.8      3.096      5.147
REMARK  8 active torsions:
REMARK  status: ('A' for Active; 'I' for Inactive)
REMARK    1  A    between atoms: N_5  and  C_7 
REMARK    2  A    between atoms: C_7  and  C_8 
REMARK    3  A    between atoms: N_9  and  C_10 
REMARK    4  A    between atoms: C_14  and  N_15 
REMARK    5  A    between atoms: C_18  and  C_19 
REMARK       I    between atoms: C_19  and  N_20 
REMARK    6  A    between atoms: N_20  and  N_21 
REMARK    7  A    between atoms: C_22  and  C_23 
REMARK    8  A    between atoms: C_24  and  O_25 
ROOT
HETATM    1  C   UNL     1     -42.009  54.777 -52.778  1.00  0.00     0.096 A 
HETATM    2  N   UNL     1     -41.097  54.119 -51.951  1.00  0.00    -0.215 N 
HETATM    3  N   UNL     1     -40.234  53.418 -52.738  1.00  0.00     0.012 NA
HETATM    4  N   UNL     1     -40.613  53.511 -54.001  1.00  0.00    -0.152 NA
HETATM    5  C   UNL     1     -41.706  54.320 -54.053  1.00  0.00     0.170 A 
ENDROOT
BRANCH   5   6
HETATM    6  C   UNL     1     -42.426  54.635 -55.279  1.00  0.00     0.293 C 
HETATM    7  N   UNL     1     -41.874  55.676 -55.998  1.00  0.00    -0.242 N 
HETATM    8  H   UNL     1     -41.035  56.141 -55.654  1.00  0.00     0.192 HD
HETATM    9  O   UNL     1     -43.416  53.975 -55.594  1.00  0.00    -0.264 OA
BRANCH   7  10
HETATM   10  N   UNL     1     -42.470  56.105 -57.145  1.00  0.00    -0.183 NA
HETATM   11  C   UNL     1     -42.516  57.392 -57.302  1.00  0.00     0.153 C 
BRANCH  11  12
HETATM   12  C   UNL     1     -43.153  57.999 -58.489  1.00  0.00     0.017 A 
HETATM   13  C   UNL     1     -44.468  57.697 -58.867  1.00  0.00     0.077 A 
HETATM   14  C   UNL     1     -45.032  58.301 -59.988  1.00  0.00     0.039 A 
HETATM   15  C   UNL     1     -44.286  59.208 -60.741  1.00  0.00     0.022 A 
HETATM   16  C   UNL     1     -42.975  59.504 -60.366  1.00  0.00     0.012 A 
HETATM   17 BR   UNL     1     -41.964  60.732 -61.389  1.00  0.00    -0.051 Br
HETATM   18  C   UNL     1     -42.402  58.907 -59.243  1.00  0.00     0.034 A 
BRANCH  13  19
HETATM   19  O   UNL     1     -45.263  56.821 -58.180  1.00  0.00    -0.360 OA
HETATM   20  H   UNL     1     -45.663  57.306 -57.426  1.00  0.00     0.217 HD
ENDBRANCH  13  19
ENDBRANCH  11  12
ENDBRANCH   7  10
ENDBRANCH   5   6
BRANCH   1  21
HETATM   21  C   UNL     1     -43.009  55.789 -52.361  1.00  0.00     0.296 C 
BRANCH  21  22
HETATM   22  N   UNL     1     -42.416  57.116 -51.942  1.00  0.00    -0.066 N 
HETATM   23  C   UNL     1     -41.348  57.614 -52.879  1.00  0.00     0.235 C 
HETATM   24  C   UNL     1     -40.742  58.903 -52.343  1.00  0.00     0.032 C 
HETATM   25  C   UNL     1     -41.787  59.991 -52.075  1.00  0.00    -0.016 C 
HETATM   26  C   UNL     1     -42.340  60.580 -53.376  1.00  0.00     0.010 C 
HETATM   27  C   UNL     1     -42.900  59.434 -51.181  1.00  0.00     0.032 C 
HETATM   28  C   UNL     1     -43.503  58.141 -51.711  1.00  0.00     0.235 C 
HETATM   29  H   UNL     1     -41.991  56.946 -51.007  1.00  0.00     0.280 HD
ENDBRANCH  21  22
ENDBRANCH   1  21
BRANCH   2  30
HETATM   30  C   UNL     1     -41.028  54.069 -50.538  1.00  0.00     0.225 A 
HETATM   31  N   UNL     1     -41.370  55.134 -49.811  1.00  0.00    -0.081 NA
HETATM   32  O   UNL     1     -41.206  54.703 -48.491  1.00  0.00    -0.103 OA
HETATM   33  N   UNL     1     -40.792  53.380 -48.445  1.00  0.00    -0.083 NA
HETATM   34  C   UNL     1     -40.685  52.985 -49.711  1.00  0.00     0.201 A 
BRANCH  34  35
HETATM   35  N   UNL     1     -40.307  51.756 -50.095  1.00  0.00    -0.379 N 
HETATM   36  H   UNL     1     -41.008  51.059 -50.336  1.00  0.00     0.158 HD
HETATM   37  H   UNL     1     -39.356  51.512 -50.361  1.00  0.00     0.158 HD
ENDBRANCH  34  35
ENDBRANCH   2  30
TORSDOF 8
ENDMDL
MODEL 4
REMARK VINA RESULT:      -7.7      5.853      7.946
REMARK  8 active torsions:
REMARK  status: ('A' for Active; 'I' for Inactive)
REMARK    1  A    between atoms: N_5  and  C_7 
REMARK    2  A    between atoms: C_7  and  C_8 
REMARK    3  A    between atoms: N_9  and  C_10 
REMARK    4  A    between atoms: C_14  and  N_15 
REMARK    5  A    between atoms: C_18  and  C_19 
REMARK       I    between atoms: C_19  and  N_20 
REMARK    6  A    between atoms: N_20  and  N_21 
REMARK    7  A    between atoms: C_22  and  C_23 
REMARK    8  A    between atoms: C_24  and  O_25 
ROOT
HETATM    1  C   UNL     1     -44.750  59.745 -51.749  1.00  0.00     0.096 A 
HETATM    2  N   UNL     1     -45.576  60.354 -50.803  1.00  0.00    -0.215 N 
HETATM    3  N   UNL     1     -46.217  59.377 -50.102  1.00  0.00     0.012 NA
HETATM    4  N   UNL     1     -45.925  58.197 -50.622  1.00  0.00    -0.152 NA
HETATM    5  C   UNL     1     -45.045  58.393 -51.641  1.00  0.00     0.170 A 
ENDROOT
BRANCH   5   6
HETATM    6  C   UNL     1     -44.517  57.322 -52.474  1.00  0.00     0.293 C 
HETATM    7  N   UNL     1     -43.838  56.349 -51.768  1.00  0.00    -0.242 N 
HETATM    8  H   UNL     1     -43.752  56.426 -50.756  1.00  0.00     0.192 HD
HETATM    9  O   UNL     1     -44.715  57.336 -53.689  1.00  0.00    -0.264 OA
BRANCH   7  10
HETATM   10  N   UNL     1     -43.254  55.310 -52.426  1.00  0.00    -0.183 NA
HETATM   11  C   UNL     1     -42.021  55.068 -52.103  1.00  0.00     0.153 C 
BRANCH  11  12
HETATM   12  C   UNL     1     -41.255  53.984 -52.753  1.00  0.00     0.017 A 
HETATM   13  C   UNL     1     -40.969  53.989 -54.124  1.00  0.00     0.077 A 
HETATM   14  C   UNL     1     -40.235  52.951 -54.693  1.00  0.00     0.039 A 
HETATM   15  C   UNL     1     -39.785  51.899 -53.896  1.00  0.00     0.022 A 
HETATM   16  C   UNL     1     -40.073  51.892 -52.531  1.00  0.00     0.012 A 
HETATM   17 BR   UNL     1     -39.463  50.463 -51.453  1.00  0.00    -0.051 Br
HETATM   18  C   UNL     1     -40.805  52.929 -51.952  1.00  0.00     0.034 A 
BRANCH  13  19
HETATM   19  O   UNL     1     -41.375  54.986 -54.970  1.00  0.00    -0.360 OA
HETATM   20  H   UNL     1     -40.636  55.626 -55.056  1.00  0.00     0.217 HD
ENDBRANCH  13  19
ENDBRANCH  11  12
ENDBRANCH   7  10
ENDBRANCH   5   6
BRANCH   1  21
HETATM   21  C   UNL     1     -43.741  60.415 -52.603  1.00  0.00     0.296 C 
BRANCH  21  22
HETATM   22  N   UNL     1     -42.312  60.226 -52.146  1.00  0.00    -0.066 N 
HETATM   23  C   UNL     1     -42.176  60.107 -50.650  1.00  0.00     0.235 C 
HETATM   24  C   UNL     1     -40.707  60.010 -50.264  1.00  0.00     0.032 C 
HETATM   25  C   UNL     1     -39.975  58.867 -50.975  1.00  0.00    -0.016 C 
HETATM   26  C   UNL     1     -40.395  57.499 -50.428  1.00  0.00     0.010 C 
HETATM   27  C   UNL     1     -40.193  58.970 -52.488  1.00  0.00     0.032 C 
HETATM   28  C   UNL     1     -41.661  59.074 -52.876  1.00  0.00     0.235 C 
HETATM   29  H   UNL     1     -41.805  61.079 -52.463  1.00  0.00     0.280 HD
ENDBRANCH  21  22
ENDBRANCH   1  21
BRANCH   2  30
HETATM   30  C   UNL     1     -45.825  61.727 -50.570  1.00  0.00     0.225 A 
HETATM   31  N   UNL     1     -46.394  62.477 -51.515  1.00  0.00    -0.081 NA
HETATM   32  O   UNL     1     -46.504  63.737 -50.922  1.00  0.00    -0.103 OA
HETATM   33  N   UNL     1     -46.021  63.721 -49.620  1.00  0.00    -0.083 NA
HETATM   34  C   UNL     1     -45.604  62.476 -49.401  1.00  0.00     0.201 A 
BRANCH  34  35
HETATM   35  N   UNL     1     -45.067  62.047 -48.248  1.00  0.00    -0.379 N 
HETATM   36  H   UNL     1     -45.527  61.315 -47.712  1.00  0.00     0.158 HD
HETATM   37  H   UNL     1     -44.116  62.256 -47.952  1.00  0.00     0.158 HD
ENDBRANCH  34  35
ENDBRANCH   2  30
TORSDOF 8
ENDMDL
MODEL 5
REMARK VINA RESULT:      -7.7      3.978      8.002
REMARK  8 active torsions:
REMARK  status: ('A' for Active; 'I' for Inactive)
REMARK    1  A    between atoms: N_5  and  C_7 
REMARK    2  A    between atoms: C_7  and  C_8 
REMARK    3  A    between atoms: N_9  and  C_10 
REMARK    4  A    between atoms: C_14  and  N_15 
REMARK    5  A    between atoms: C_18  and  C_19 
REMARK       I    between atoms: C_19  and  N_20 
REMARK    6  A    between atoms: N_20  and  N_21 
REMARK    7  A    between atoms: C_22  and  C_23 
REMARK    8  A    between atoms: C_24  and  O_25 
ROOT
HETATM    1  C   UNL     1     -42.538  60.312 -55.144  1.00  0.00     0.096 A 
HETATM    2  N   UNL     1     -43.442  61.371 -55.044  1.00  0.00    -0.215 N 
HETATM    3  N   UNL     1     -43.451  61.805 -53.752  1.00  0.00     0.012 NA
HETATM    4  N   UNL     1     -42.688  61.016 -53.015  1.00  0.00    -0.152 NA
HETATM    5  C   UNL     1     -42.133  60.083 -53.837  1.00  0.00     0.170 A 
ENDROOT
BRANCH   5   6
HETATM    6  C   UNL     1     -41.253  59.018 -53.377  1.00  0.00     0.293 C 
HETATM    7  N   UNL     1     -41.911  57.843 -53.072  1.00  0.00    -0.242 N 
HETATM    8  H   UNL     1     -42.922  57.785 -53.185  1.00  0.00     0.192 HD
HETATM    9  O   UNL     1     -40.039  59.212 -53.310  1.00  0.00    -0.264 OA
BRANCH   7  10
HETATM   10  N   UNL     1     -41.216  56.776 -52.589  1.00  0.00    -0.183 NA
HETATM   11  C   UNL     1     -41.621  55.614 -53.000  1.00  0.00     0.153 C 
BRANCH  11  12
HETATM   12  C   UNL     1     -40.974  54.368 -52.540  1.00  0.00     0.017 A 
HETATM   13  C   UNL     1     -40.533  54.198 -51.221  1.00  0.00     0.077 A 
HETATM   14  C   UNL     1     -39.937  53.003 -50.828  1.00  0.00     0.039 A 
HETATM   15  C   UNL     1     -39.774  51.969 -51.752  1.00  0.00     0.022 A 
HETATM   16  C   UNL     1     -40.210  52.141 -53.066  1.00  0.00     0.012 A 
HETATM   17 BR   UNL     1     -39.986  50.740 -54.316  1.00  0.00    -0.051 Br
HETATM   18  C   UNL     1     -40.811  53.334 -53.468  1.00  0.00     0.034 A 
BRANCH  13  19
HETATM   19  O   UNL     1     -40.659  55.163 -50.259  1.00  0.00    -0.360 OA
HETATM   20  H   UNL     1     -41.614  55.359 -50.153  1.00  0.00     0.217 HD
ENDBRANCH  13  19
ENDBRANCH  11  12
ENDBRANCH   7  10
ENDBRANCH   5   6
BRANCH   1  21
HETATM   21  C   UNL     1     -42.079  59.657 -56.392  1.00  0.00     0.296 C 
BRANCH  21  22
HETATM   22  N   UNL     1     -42.939  58.496 -56.840  1.00  0.00    -0.066 N 
HETATM   23  C   UNL     1     -43.522  58.684 -58.216  1.00  0.00     0.235 C 
HETATM   24  C   UNL     1     -44.441  57.519 -58.557  1.00  0.00     0.032 C 
HETATM   25  C   UNL     1     -43.752  56.156 -58.435  1.00  0.00    -0.016 C 
HETATM   26  C   UNL     1     -42.745  55.926 -59.565  1.00  0.00     0.010 C 
HETATM   27  C   UNL     1     -43.103  56.023 -57.053  1.00  0.00     0.032 C 
HETATM   28  C   UNL     1     -42.189  57.190 -56.706  1.00  0.00     0.235 C 
HETATM   29  H   UNL     1     -43.715  58.444 -56.149  1.00  0.00     0.280 HD
ENDBRANCH  21  22
ENDBRANCH   1  21
BRANCH   2  30
HETATM   30  C   UNL     1     -44.292  61.931 -56.026  1.00  0.00     0.225 A 
HETATM   31  N   UNL     1     -43.950  63.062 -56.646  1.00  0.00    -0.081 NA
HETATM   32  O   UNL     1     -44.997  63.280 -57.545  1.00  0.00    -0.103 OA
HETATM   33  N   UNL     1     -45.941  62.265 -57.470  1.00  0.00    -0.083 NA
HETATM   34  C   UNL     1     -45.503  61.428 -56.532  1.00  0.00     0.201 A 
BRANCH  34  35
HETATM   35  N   UNL     1     -46.139  60.306 -56.158  1.00  0.00    -0.379 N 
HETATM   36  H   UNL     1     -46.525  59.680 -56.861  1.00  0.00     0.158 HD
HETATM   37  H   UNL     1     -46.098  59.917 -55.219  1.00  0.00     0.158 HD
ENDBRANCH  34  35
ENDBRANCH   2  30
TORSDOF 8
ENDMDL
MODEL 6
REMARK VINA RESULT:      -7.3     18.019     21.338
REMARK  8 active torsions:
REMARK  status: ('A' for Active; 'I' for Inactive)
REMARK    1  A    between atoms: N_5  and  C_7 
REMARK    2  A    between atoms: C_7  and  C_8 
REMARK    3  A    between atoms: N_9  and  C_10 
REMARK    4  A    between atoms: C_14  and  N_15 
REMARK    5  A    between atoms: C_18  and  C_19 
REMARK       I    between atoms: C_19  and  N_20 
REMARK    6  A    between atoms: N_20  and  N_21 
REMARK    7  A    between atoms: C_22  and  C_23 
REMARK    8  A    between atoms: C_24  and  O_25 
ROOT
HETATM    1  C   UNL     1     -36.216  41.113 -55.925  1.00  0.00     0.096 A 
HETATM    2  N   UNL     1     -37.321  40.852 -56.738  1.00  0.00    -0.215 N 
HETATM    3  N   UNL     1     -38.448  40.984 -55.984  1.00  0.00     0.012 NA
HETATM    4  N   UNL     1     -38.113  41.208 -54.725  1.00  0.00    -0.152 NA
HETATM    5  C   UNL     1     -36.755  41.274 -54.657  1.00  0.00     0.170 A 
ENDROOT
BRANCH   5   6
HETATM    6  C   UNL     1     -36.014  41.479 -53.420  1.00  0.00     0.293 C 
HETATM    7  N   UNL     1     -35.443  40.327 -52.914  1.00  0.00    -0.242 N 
HETATM    8  H   UNL     1     -35.561  39.445 -53.409  1.00  0.00     0.192 HD
HETATM    9  O   UNL     1     -35.926  42.608 -52.938  1.00  0.00    -0.264 OA
BRANCH   7  10
HETATM   10  N   UNL     1     -34.757  40.366 -51.739  1.00  0.00    -0.183 NA
HETATM   11  C   UNL     1     -34.225  39.242 -51.367  1.00  0.00     0.153 C 
BRANCH  11  12
HETATM   12  C   UNL     1     -33.470  39.131 -50.101  1.00  0.00     0.017 A 
HETATM   13  C   UNL     1     -32.206  39.711 -49.933  1.00  0.00     0.077 A 
HETATM   14  C   UNL     1     -31.534  39.590 -48.719  1.00  0.00     0.039 A 
HETATM   15  C   UNL     1     -32.121  38.887 -47.665  1.00  0.00     0.022 A 
HETATM   16  C   UNL     1     -33.378  38.308 -47.836  1.00  0.00     0.012 A 
HETATM   17 BR   UNL     1     -34.169  37.354 -46.408  1.00  0.00    -0.051 Br
HETATM   18  C   UNL     1     -34.060  38.426 -49.047  1.00  0.00     0.034 A 
BRANCH  13  19
HETATM   19  O   UNL     1     -31.567  40.416 -50.916  1.00  0.00    -0.360 OA
HETATM   20  H   UNL     1     -31.887  40.082 -51.782  1.00  0.00     0.217 HD
ENDBRANCH  13  19
ENDBRANCH  11  12
ENDBRANCH   7  10
ENDBRANCH   5   6
BRANCH   1  21
HETATM   21  C   UNL     1     -34.809  41.259 -56.367  1.00  0.00     0.296 C 
BRANCH  21  22
HETATM   22  N   UNL     1     -33.899  40.130 -55.935  1.00  0.00    -0.066 N 
HETATM   23  C   UNL     1     -33.409  39.287 -57.083  1.00  0.00     0.235 C 
HETATM   24  C   UNL     1     -32.576  38.126 -56.560  1.00  0.00     0.032 C 
HETATM   25  C   UNL     1     -31.410  38.576 -55.674  1.00  0.00    -0.016 C 
HETATM   26  C   UNL     1     -30.299  39.240 -56.492  1.00  0.00     0.010 C 
HETATM   27  C   UNL     1     -31.927  39.493 -54.560  1.00  0.00     0.032 C 
HETATM   28  C   UNL     1     -32.767  40.651 -55.079  1.00  0.00     0.235 C 
HETATM   29  H   UNL     1     -34.475  39.537 -55.303  1.00  0.00     0.280 HD
ENDBRANCH  21  22
ENDBRANCH   1  21
BRANCH   2  30
HETATM   30  C   UNL     1     -37.372  40.452 -58.094  1.00  0.00     0.225 A 
HETATM   31  N   UNL     1     -37.652  39.187 -58.411  1.00  0.00    -0.081 NA
HETATM   32  O   UNL     1     -37.643  39.182 -59.809  1.00  0.00    -0.103 OA
HETATM   33  N   UNL     1     -37.380  40.449 -60.311  1.00  0.00    -0.083 NA
HETATM   34  C   UNL     1     -37.215  41.236 -59.250  1.00  0.00     0.201 A 
BRANCH  34  35
HETATM   35  N   UNL     1     -36.945  42.550 -59.313  1.00  0.00    -0.379 N 
HETATM   36  H   UNL     1     -36.246  42.896 -59.966  1.00  0.00     0.158 HD
HETATM   37  H   UNL     1     -37.529  43.269 -58.894  1.00  0.00     0.158 HD
ENDBRANCH  34  35
ENDBRANCH   2  30
TORSDOF 8
ENDMDL
MODEL 7
REMARK VINA RESULT:      -7.3      4.370      8.279
REMARK  8 active torsions:
REMARK  status: ('A' for Active; 'I' for Inactive)
REMARK    1  A    between atoms: N_5  and  C_7 
REMARK    2  A    between atoms: C_7  and  C_8 
REMARK    3  A    between atoms: N_9  and  C_10 
REMARK    4  A    between atoms: C_14  and  N_15 
REMARK    5  A    between atoms: C_18  and  C_19 
REMARK       I    between atoms: C_19  and  N_20 
REMARK    6  A    between atoms: N_20  and  N_21 
REMARK    7  A    between atoms: C_22  and  C_23 
REMARK    8  A    between atoms: C_24  and  O_25 
ROOT
HETATM    1  C   UNL     1     -43.653  57.400 -57.062  1.00  0.00     0.096 A 
HETATM    2  N   UNL     1     -43.782  58.038 -58.297  1.00  0.00    -0.215 N 
HETATM    3  N   UNL     1     -43.399  57.166 -59.271  1.00  0.00     0.012 NA
HETATM    4  N   UNL     1     -42.938  56.058 -58.716  1.00  0.00    -0.152 NA
HETATM    5  C   UNL     1     -43.064  56.181 -57.367  1.00  0.00     0.170 A 
ENDROOT
BRANCH   5   6
HETATM    6  C   UNL     1     -42.631  55.166 -56.416  1.00  0.00     0.293 C 
HETATM    7  N   UNL     1     -41.344  55.350 -55.951  1.00  0.00    -0.242 N 
HETATM    8  H   UNL     1     -40.797  56.145 -56.277  1.00  0.00     0.192 HD
HETATM    9  O   UNL     1     -43.404  54.267 -56.085  1.00  0.00    -0.264 OA
BRANCH   7  10
HETATM   10  N   UNL     1     -40.795  54.450 -55.089  1.00  0.00    -0.183 NA
HETATM   11  C   UNL     1     -41.283  54.462 -53.886  1.00  0.00     0.153 C 
BRANCH  11  12
HETATM   12  C   UNL     1     -40.768  53.555 -52.839  1.00  0.00     0.017 A 
HETATM   13  C   UNL     1     -40.211  52.306 -53.142  1.00  0.00     0.077 A 
HETATM   14  C   UNL     1     -39.728  51.488 -52.123  1.00  0.00     0.039 A 
HETATM   15  C   UNL     1     -39.801  51.911 -50.796  1.00  0.00     0.022 A 
HETATM   16  C   UNL     1     -40.359  53.154 -50.496  1.00  0.00     0.012 A 
HETATM   17 BR   UNL     1     -40.459  53.724 -48.696  1.00  0.00    -0.051 Br
HETATM   18  C   UNL     1     -40.843  53.982 -51.509  1.00  0.00     0.034 A 
BRANCH  13  19
HETATM   19  O   UNL     1     -40.102  51.822 -54.417  1.00  0.00    -0.360 OA
HETATM   20  H   UNL     1     -40.545  50.947 -54.445  1.00  0.00     0.217 HD
ENDBRANCH  13  19
ENDBRANCH  11  12
ENDBRANCH   7  10
ENDBRANCH   5   6
BRANCH   1  21
HETATM   21  C   UNL     1     -44.123  57.908 -55.751  1.00  0.00     0.296 C 
BRANCH  21  22
HETATM   22  N   UNL     1     -43.175  57.645 -54.603  1.00  0.00    -0.066 N 
HETATM   23  C   UNL     1     -41.969  58.548 -54.608  1.00  0.00     0.235 C 
HETATM   24  C   UNL     1     -41.024  58.164 -53.479  1.00  0.00     0.032 C 
HETATM   25  C   UNL     1     -41.702  58.161 -52.104  1.00  0.00    -0.016 C 
HETATM   26  C   UNL     1     -41.998  59.582 -51.615  1.00  0.00     0.010 C 
HETATM   27  C   UNL     1     -42.966  57.296 -52.149  1.00  0.00     0.032 C 
HETATM   28  C   UNL     1     -43.910  57.674 -53.282  1.00  0.00     0.235 C 
HETATM   29  H   UNL     1     -42.859  56.661 -54.725  1.00  0.00     0.280 HD
ENDBRANCH  21  22
ENDBRANCH   1  21
BRANCH   2  30
HETATM   30  C   UNL     1     -44.169  59.366 -58.593  1.00  0.00     0.225 A 
HETATM   31  N   UNL     1     -43.267  60.250 -59.022  1.00  0.00    -0.081 NA
HETATM   32  O   UNL     1     -44.012  61.413 -59.233  1.00  0.00    -0.103 OA
HETATM   33  N   UNL     1     -45.354  61.205 -58.950  1.00  0.00    -0.083 NA
HETATM   34  C   UNL     1     -45.453  59.938 -58.557  1.00  0.00     0.201 A 
BRANCH  34  35
HETATM   35  N   UNL     1     -46.600  59.342 -58.193  1.00  0.00    -0.379 N 
HETATM   36  H   UNL     1     -46.846  58.432 -58.575  1.00  0.00     0.158 HD
HETATM   37  H   UNL     1     -47.166  59.637 -57.400  1.00  0.00     0.158 HD
ENDBRANCH  34  35
ENDBRANCH   2  30
TORSDOF 8
ENDMDL
MODEL 8
REMARK VINA RESULT:      -7.2      3.262      5.519
REMARK  8 active torsions:
REMARK  status: ('A' for Active; 'I' for Inactive)
REMARK    1  A    between atoms: N_5  and  C_7 
REMARK    2  A    between atoms: C_7  and  C_8 
REMARK    3  A    between atoms: N_9  and  C_10 
REMARK    4  A    between atoms: C_14  and  N_15 
REMARK    5  A    between atoms: C_18  and  C_19 
REMARK       I    between atoms: C_19  and  N_20 
REMARK    6  A    between atoms: N_20  and  N_21 
REMARK    7  A    between atoms: C_22  and  C_23 
REMARK    8  A    between atoms: C_24  and  O_25 
ROOT
HETATM    1  C   UNL     1     -41.617  53.492 -53.240  1.00  0.00     0.096 A 
HETATM    2  N   UNL     1     -40.496  52.692 -53.008  1.00  0.00    -0.215 N 
HETATM    3  N   UNL     1     -39.650  52.824 -54.068  1.00  0.00     0.012 NA
HETATM    4  N   UNL     1     -40.218  53.573 -54.997  1.00  0.00    -0.152 NA
HETATM    5  C   UNL     1     -41.428  53.980 -54.525  1.00  0.00     0.170 A 
ENDROOT
BRANCH   5   6
HETATM    6  C   UNL     1     -42.361  54.801 -55.285  1.00  0.00     0.293 C 
HETATM    7  N   UNL     1     -41.770  55.878 -55.917  1.00  0.00    -0.242 N 
HETATM    8  H   UNL     1     -40.766  56.029 -55.826  1.00  0.00     0.192 HD
HETATM    9  O   UNL     1     -43.551  54.491 -55.334  1.00  0.00    -0.264 OA
BRANCH   7  10
HETATM   10  N   UNL     1     -42.531  56.754 -56.628  1.00  0.00    -0.183 NA
HETATM   11  C   UNL     1     -42.936  56.329 -57.785  1.00  0.00     0.153 C 
BRANCH  11  12
HETATM   12  C   UNL     1     -43.753  57.182 -58.673  1.00  0.00     0.017 A 
HETATM   13  C   UNL     1     -43.413  58.513 -58.950  1.00  0.00     0.077 A 
HETATM   14  C   UNL     1     -44.206  59.277 -59.802  1.00  0.00     0.039 A 
HETATM   15  C   UNL     1     -45.346  58.718 -60.381  1.00  0.00     0.022 A 
HETATM   16  C   UNL     1     -45.685  57.394 -60.103  1.00  0.00     0.012 A 
HETATM   17 BR   UNL     1     -47.231  56.639 -60.887  1.00  0.00    -0.051 Br
HETATM   18  C   UNL     1     -44.895  56.620 -59.253  1.00  0.00     0.034 A 
BRANCH  13  19
HETATM   19  O   UNL     1     -42.312  59.131 -58.423  1.00  0.00    -0.360 OA
HETATM   20  H   UNL     1     -42.031  58.621 -57.632  1.00  0.00     0.217 HD
ENDBRANCH  13  19
ENDBRANCH  11  12
ENDBRANCH   7  10
ENDBRANCH   5   6
BRANCH   1  21
HETATM   21  C   UNL     1     -42.703  53.792 -52.277  1.00  0.00     0.296 C 
BRANCH  21  22
HETATM   22  N   UNL     1     -42.557  55.118 -51.565  1.00  0.00    -0.066 N 
HETATM   23  C   UNL     1     -41.127  55.575 -51.444  1.00  0.00     0.235 C 
HETATM   24  C   UNL     1     -41.056  56.866 -50.641  1.00  0.00     0.032 C 
HETATM   25  C   UNL     1     -41.941  57.978 -51.216  1.00  0.00    -0.016 C 
HETATM   26  C   UNL     1     -41.367  58.545 -52.517  1.00  0.00     0.010 C 
HETATM   27  C   UNL     1     -43.373  57.462 -51.398  1.00  0.00     0.032 C 
HETATM   28  C   UNL     1     -43.445  56.167 -52.195  1.00  0.00     0.235 C 
HETATM   29  H   UNL     1     -42.942  54.963 -50.610  1.00  0.00     0.280 HD
ENDBRANCH  21  22
ENDBRANCH   1  21
BRANCH   2  30
HETATM   30  C   UNL     1     -40.217  51.816 -51.933  1.00  0.00     0.225 A 
HETATM   31  N   UNL     1     -40.400  52.217 -50.674  1.00  0.00    -0.081 NA
HETATM   32  O   UNL     1     -40.056  51.096 -49.913  1.00  0.00    -0.103 OA
HETATM   33  N   UNL     1     -39.694  50.032 -50.726  1.00  0.00    -0.083 NA
HETATM   34  C   UNL     1     -39.796  50.475 -51.976  1.00  0.00     0.201 A 
BRANCH  34  35
HETATM   35  N   UNL     1     -39.532  49.739 -53.068  1.00  0.00    -0.379 N 
HETATM   36  H   UNL     1     -39.028  48.861 -52.981  1.00  0.00     0.158 HD
HETATM   37  H   UNL     1     -39.973  49.889 -53.973  1.00  0.00     0.158 HD
ENDBRANCH  34  35
ENDBRANCH   2  30
TORSDOF 8
ENDMDL
MODEL 9
REMARK VINA RESULT:      -7.2      4.422      8.288
REMARK  8 active torsions:
REMARK  status: ('A' for Active; 'I' for Inactive)
REMARK    1  A    between atoms: N_5  and  C_7 
REMARK    2  A    between atoms: C_7  and  C_8 
REMARK    3  A    between atoms: N_9  and  C_10 
REMARK    4  A    between atoms: C_14  and  N_15 
REMARK    5  A    between atoms: C_18  and  C_19 
REMARK       I    between atoms: C_19  and  N_20 
REMARK    6  A    between atoms: N_20  and  N_21 
REMARK    7  A    between atoms: C_22  and  C_23 
REMARK    8  A    between atoms: C_24  and  O_25 
ROOT
HETATM    1  C   UNL     1     -44.096  58.767 -53.017  1.00  0.00     0.096 A 
HETATM    2  N   UNL     1     -43.996  60.156 -52.919  1.00  0.00    -0.215 N 
HETATM    3  N   UNL     1     -43.157  60.453 -51.887  1.00  0.00     0.012 NA
HETATM    4  N   UNL     1     -42.808  59.339 -51.267  1.00  0.00    -0.152 NA
HETATM    5  C   UNL     1     -43.382  58.295 -51.925  1.00  0.00     0.170 A 
ENDROOT
BRANCH   5   6
HETATM    6  C   UNL     1     -43.248  56.905 -51.513  1.00  0.00     0.293 C 
HETATM    7  N   UNL     1     -42.047  56.328 -51.877  1.00  0.00    -0.242 N 
HETATM    8  H   UNL     1     -41.354  56.879 -52.381  1.00  0.00     0.192 HD
HETATM    9  O   UNL     1     -44.156  56.362 -50.882  1.00  0.00    -0.264 OA
BRANCH   7  10
HETATM   10  N   UNL     1     -41.805  55.019 -51.593  1.00  0.00    -0.183 NA
HETATM   11  C   UNL     1     -40.780  54.498 -52.195  1.00  0.00     0.153 C 
BRANCH  11  12
HETATM   12  C   UNL     1     -40.413  53.081 -51.999  1.00  0.00     0.017 A 
HETATM   13  C   UNL     1     -40.315  52.504 -50.725  1.00  0.00     0.077 A 
HETATM   14  C   UNL     1     -39.976  51.160 -50.587  1.00  0.00     0.039 A 
HETATM   15  C   UNL     1     -39.728  50.384 -51.720  1.00  0.00     0.022 A 
HETATM   16  C   UNL     1     -39.822  50.961 -52.987  1.00  0.00     0.012 A 
HETATM   17 BR   UNL     1     -39.484  49.908 -54.521  1.00  0.00    -0.051 Br
HETATM   18  C   UNL     1     -40.164  52.305 -53.136  1.00  0.00     0.034 A 
BRANCH  13  19
HETATM   19  O   UNL     1     -40.545  53.198 -49.569  1.00  0.00    -0.360 OA
HETATM   20  H   UNL     1     -39.965  52.821 -48.872  1.00  0.00     0.217 HD
ENDBRANCH  13  19
ENDBRANCH  11  12
ENDBRANCH   7  10
ENDBRANCH   5   6
BRANCH   1  21
HETATM   21  C   UNL     1     -44.756  58.003 -54.103  1.00  0.00     0.296 C 
BRANCH  21  22
HETATM   22  N   UNL     1     -44.107  58.159 -55.460  1.00  0.00    -0.066 N 
HETATM   23  C   UNL     1     -42.881  57.302 -55.635  1.00  0.00     0.235 C 
HETATM   24  C   UNL     1     -42.237  57.580 -56.986  1.00  0.00     0.032 C 
HETATM   25  C   UNL     1     -43.206  57.400 -58.160  1.00  0.00    -0.016 C 
HETATM   26  C   UNL     1     -43.522  55.923 -58.413  1.00  0.00     0.010 C 
HETATM   27  C   UNL     1     -44.475  58.224 -57.919  1.00  0.00     0.032 C 
HETATM   28  C   UNL     1     -45.117  57.952 -56.565  1.00  0.00     0.235 C 
HETATM   29  H   UNL     1     -43.828  59.161 -55.520  1.00  0.00     0.280 HD
ENDBRANCH  21  22
ENDBRANCH   1  21
BRANCH   2  30
HETATM   30  C   UNL     1     -44.653  61.165 -53.662  1.00  0.00     0.225 A 
HETATM   31  N   UNL     1     -45.979  61.137 -53.808  1.00  0.00    -0.081 NA
HETATM   32  O   UNL     1     -46.258  62.284 -54.557  1.00  0.00    -0.103 OA
HETATM   33  N   UNL     1     -45.098  62.996 -54.830  1.00  0.00    -0.083 NA
HETATM   34  C   UNL     1     -44.105  62.307 -54.274  1.00  0.00     0.201 A 
BRANCH  34  35
HETATM   35  N   UNL     1     -42.813  62.669 -54.313  1.00  0.00    -0.379 N 
HETATM   36  H   UNL     1     -42.192  62.426 -53.544  1.00  0.00     0.158 HD
HETATM   37  H   UNL     1     -42.343  63.001 -55.151  1.00  0.00     0.158 HD
ENDBRANCH  34  35
ENDBRANCH   2  30
TORSDOF 8
ENDMDL
MODEL 10
REMARK VINA RESULT:      -7.2      3.677      5.454
REMARK  8 active torsions:
REMARK  status: ('A' for Active; 'I' for Inactive)
REMARK    1  A    between atoms: N_5  and  C_7 
REMARK    2  A    between atoms: C_7  and  C_8 
REMARK    3  A    between atoms: N_9  and  C_10 
REMARK    4  A    between atoms: C_14  and  N_15 
REMARK    5  A    between atoms: C_18  and  C_19 
REMARK       I    between atoms: C_19  and  N_20 
REMARK    6  A    between atoms: N_20  and  N_21 
REMARK    7  A    between atoms: C_22  and  C_23 
REMARK    8  A    between atoms: C_24  and  O_25 
ROOT
HETATM    1  C   UNL     1     -41.643  55.689 -54.217  1.00  0.00     0.096 A 
HETATM    2  N   UNL     1     -41.607  54.459 -53.558  1.00  0.00    -0.215 N 
HETATM    3  N   UNL     1     -42.330  53.563 -54.287  1.00  0.00     0.012 NA
HETATM    4  N   UNL     1     -42.904  54.181 -55.304  1.00  0.00    -0.152 NA
HETATM    5  C   UNL     1     -42.516  55.486 -55.275  1.00  0.00     0.170 A 
ENDROOT
BRANCH   5   6
HETATM    6  C   UNL     1     -42.972  56.489 -56.227  1.00  0.00     0.293 C 
HETATM    7  N   UNL     1     -42.164  56.611 -57.340  1.00  0.00    -0.242 N 
HETATM    8  H   UNL     1     -41.339  56.020 -57.433  1.00  0.00     0.192 HD
HETATM    9  O   UNL     1     -44.006  57.119 -56.005  1.00  0.00    -0.264 OA
BRANCH   7  10
HETATM   10  N   UNL     1     -42.449  57.542 -58.292  1.00  0.00    -0.183 NA
HETATM   11  C   UNL     1     -41.856  58.687 -58.146  1.00  0.00     0.153 C 
BRANCH  11  12
HETATM   12  C   UNL     1     -42.089  59.798 -59.091  1.00  0.00     0.017 A 
HETATM   13  C   UNL     1     -41.949  59.642 -60.477  1.00  0.00     0.077 A 
HETATM   14  C   UNL     1     -42.189  60.714 -61.332  1.00  0.00     0.039 A 
HETATM   15  C   UNL     1     -42.567  61.952 -60.809  1.00  0.00     0.022 A 
HETATM   16  C   UNL     1     -42.702  62.107 -59.430  1.00  0.00     0.012 A 
HETATM   17 BR   UNL     1     -43.212  63.785 -58.723  1.00  0.00    -0.051 Br
HETATM   18  C   UNL     1     -42.467  61.038 -58.565  1.00  0.00     0.034 A 
BRANCH  13  19
HETATM   19  O   UNL     1     -41.584  58.462 -61.065  1.00  0.00    -0.360 OA
HETATM   20  H   UNL     1     -42.403  57.959 -61.264  1.00  0.00     0.217 HD
ENDBRANCH  13  19
ENDBRANCH  11  12
ENDBRANCH   7  10
ENDBRANCH   5   6
BRANCH   1  21
HETATM   21  C   UNL     1     -40.851  56.896 -53.878  1.00  0.00     0.296 C 
BRANCH  21  22
HETATM   22  N   UNL     1     -41.316  57.620 -52.634  1.00  0.00    -0.066 N 
HETATM   23  C   UNL     1     -40.511  58.855 -52.328  1.00  0.00     0.235 C 
HETATM   24  C   UNL     1     -40.981  59.475 -51.020  1.00  0.00     0.032 C 
HETATM   25  C   UNL     1     -42.482  59.781 -51.007  1.00  0.00    -0.016 C 
HETATM   26  C   UNL     1     -42.826  60.974 -51.904  1.00  0.00     0.010 C 
HETATM   27  C   UNL     1     -43.272  58.527 -51.395  1.00  0.00     0.032 C 
HETATM   28  C   UNL     1     -42.800  57.901 -52.700  1.00  0.00     0.235 C 
HETATM   29  H   UNL     1     -41.195  56.938 -51.856  1.00  0.00     0.280 HD
ENDBRANCH  21  22
ENDBRANCH   1  21
BRANCH   2  30
HETATM   30  C   UNL     1     -41.012  54.111 -52.323  1.00  0.00     0.225 A 
HETATM   31  N   UNL     1     -41.228  54.857 -51.238  1.00  0.00    -0.081 NA
HETATM   32  O   UNL     1     -40.518  54.198 -50.231  1.00  0.00    -0.103 OA
HETATM   33  N   UNL     1     -39.905  53.052 -50.720  1.00  0.00    -0.083 NA
HETATM   34  C   UNL     1     -40.213  52.996 -52.013  1.00  0.00     0.201 A 
BRANCH  34  35
HETATM   35  N   UNL     1     -39.809  52.026 -52.849  1.00  0.00    -0.379 N 
HETATM   36  H   UNL     1     -38.980  51.478 -52.632  1.00  0.00     0.158 HD
HETATM   37  H   UNL     1     -40.383  51.650 -53.601  1.00  0.00     0.158 HD
ENDBRANCH  34  35
ENDBRANCH   2  30
TORSDOF 8
ENDMDL
