MODEL 1
REMARK VINA RESULT:      -8.3      0.000      0.000
REMARK  5 active torsions:
REMARK  status: ('A' for Active; 'I' for Inactive)
REMARK    1  A    between atoms: C_3  and  N_4 
REMARK    2  A    between atoms: N_5  and  C_6 
REMARK    3  A    between atoms: C_6  and  C_7 
REMARK    4  A    between atoms: C_7  and  C_8 
REMARK    5  A    between atoms: C_19  and  C_20 
ROOT
HETATM    1  C   UNL     1     -43.383  54.015 -51.561  1.00  0.00     0.175 C 
HETATM    2  N   UNL     1     -42.615  54.759 -52.549  1.00  0.00    -0.186 N 
HETATM    3  C   UNL     1     -42.906  55.995 -52.944  1.00  0.00     0.680 C 
HETATM    4  N   UNL     1     -41.864  56.495 -53.597  1.00  0.00    -0.184 N 
HETATM    5  C   UNL     1     -40.937  55.477 -53.769  1.00  0.00     0.140 C 
HETATM    6  C   UNL     1     -41.428  54.334 -53.171  1.00  0.00     0.077 C 
ENDROOT
BRANCH   4   7
HETATM    7  C   UNL     1     -41.650  57.898 -54.014  1.00  0.00     0.231 C 
BRANCH   7   8
HETATM    8  C   UNL     1     -42.737  58.446 -54.933  1.00  0.00     0.178 C 
HETATM    9  O   UNL     1     -43.575  59.263 -54.544  1.00  0.00    -0.290 OA
BRANCH   8  10
HETATM   10  C   UNL     1     -42.748  58.033 -56.362  1.00  0.00     0.014 A 
HETATM   11  C   UNL     1     -43.353  56.841 -56.779  1.00  0.00     0.055 A 
HETATM   12  C   UNL     1     -43.276  56.525 -58.121  1.00  0.00     0.106 A 
HETATM   13  C   UNL     1     -42.640  57.337 -59.030  1.00  0.00     0.105 A 
HETATM   14  O   UNL     1     -43.790  55.407 -58.698  1.00  0.00    -0.323 OA
HETATM   15  O   UNL     1     -42.677  56.834 -60.290  1.00  0.00    -0.323 OA
HETATM   16  C   UNL     1     -42.036  58.516 -58.650  1.00  0.00     0.040 A 
HETATM   17  C   UNL     1     -43.382  55.594 -60.073  1.00  0.00     0.352 A 
HETATM   18  C   UNL     1     -42.086  58.862 -57.297  1.00  0.00     0.018 A 
ENDBRANCH   8  10
ENDBRANCH   7   8
ENDBRANCH   4   7
BRANCH   3  19
HETATM   19  N   UNL     1     -44.056  56.612 -52.695  1.00  0.00    -0.234 N 
HETATM   20  H   UNL     1     -44.845  56.547 -53.317  1.00  0.00     0.174 HD
HETATM   21  H   UNL     1     -44.044  57.409 -52.058  1.00  0.00     0.174 HD
ENDBRANCH   3  19
BRANCH   6  22
HETATM   22  C   UNL     1     -40.779  52.977 -53.198  1.00  0.00    -0.007 A 
HETATM   23  C   UNL     1     -40.903  52.160 -54.332  1.00  0.00     0.017 A 
HETATM   24  C   UNL     1     -40.303  50.897 -54.355  1.00  0.00     0.043 A 
HETATM   25  C   UNL     1     -39.598  50.448 -53.246  1.00  0.00     0.116 A 
HETATM   26  F   UNL     1     -39.028  49.237 -53.270  1.00  0.00    -0.206 F 
HETATM   27  C   UNL     1     -39.484  51.238 -52.110  1.00  0.00     0.043 A 
HETATM   28  C   UNL     1     -40.076  52.503 -52.083  1.00  0.00     0.017 A 
ENDBRANCH   6  22
TORSDOF 5
ENDMDL
MODEL 2
REMARK VINA RESULT:      -8.2      0.703      1.438
REMARK  5 active torsions:
REMARK  status: ('A' for Active; 'I' for Inactive)
REMARK    1  A    between atoms: C_3  and  N_4 
REMARK    2  A    between atoms: N_5  and  C_6 
REMARK    3  A    between atoms: C_6  and  C_7 
REMARK    4  A    between atoms: C_7  and  C_8 
REMARK    5  A    between atoms: C_19  and  C_20 
ROOT
HETATM    1  C   UNL     1     -43.307  53.930 -51.358  1.00  0.00     0.175 C 
HETATM    2  N   UNL     1     -42.614  54.671 -52.402  1.00  0.00    -0.186 N 
HETATM    3  C   UNL     1     -42.948  55.897 -52.793  1.00  0.00     0.680 C 
HETATM    4  N   UNL     1     -41.957  56.403 -53.517  1.00  0.00    -0.184 N 
HETATM    5  C   UNL     1     -41.027  55.396 -53.734  1.00  0.00     0.140 C 
HETATM    6  C   UNL     1     -41.462  54.255 -53.092  1.00  0.00     0.077 C 
ENDROOT
BRANCH   4   7
HETATM    7  C   UNL     1     -41.791  57.804 -53.965  1.00  0.00     0.231 C 
BRANCH   7   8
HETATM    8  C   UNL     1     -42.862  58.275 -54.943  1.00  0.00     0.178 C 
HETATM    9  O   UNL     1     -43.818  58.966 -54.585  1.00  0.00    -0.290 OA
BRANCH   8  10
HETATM   10  C   UNL     1     -42.716  57.944 -56.386  1.00  0.00     0.014 A 
HETATM   11  C   UNL     1     -42.306  58.899 -57.323  1.00  0.00     0.055 A 
HETATM   12  C   UNL     1     -42.239  58.505 -58.644  1.00  0.00     0.106 A 
HETATM   13  C   UNL     1     -42.552  57.228 -59.046  1.00  0.00     0.105 A 
HETATM   14  O   UNL     1     -41.878  59.301 -59.686  1.00  0.00    -0.323 OA
HETATM   15  O   UNL     1     -42.425  57.060 -60.387  1.00  0.00    -0.323 OA
HETATM   16  C   UNL     1     -42.957  56.266 -58.147  1.00  0.00     0.040 A 
HETATM   17  C   UNL     1     -42.025  58.384 -60.796  1.00  0.00     0.352 A 
HETATM   18  C   UNL     1     -43.046  56.633 -56.801  1.00  0.00     0.018 A 
ENDBRANCH   8  10
ENDBRANCH   7   8
ENDBRANCH   4   7
BRANCH   3  19
HETATM   19  N   UNL     1     -44.089  56.501 -52.481  1.00  0.00    -0.234 N 
HETATM   20  H   UNL     1     -44.298  56.803 -51.543  1.00  0.00     0.174 HD
HETATM   21  H   UNL     1     -44.887  56.370 -53.103  1.00  0.00     0.174 HD
ENDBRANCH   3  19
BRANCH   6  22
HETATM   22  C   UNL     1     -40.795  52.908 -53.142  1.00  0.00    -0.007 A 
HETATM   23  C   UNL     1     -40.910  52.107 -54.289  1.00  0.00     0.017 A 
HETATM   24  C   UNL     1     -40.294  50.853 -54.334  1.00  0.00     0.043 A 
HETATM   25  C   UNL     1     -39.581  50.396 -53.233  1.00  0.00     0.116 A 
HETATM   26  F   UNL     1     -38.995  49.193 -53.277  1.00  0.00    -0.206 F 
HETATM   27  C   UNL     1     -39.475  51.168 -52.085  1.00  0.00     0.043 A 
HETATM   28  C   UNL     1     -40.085  52.424 -52.035  1.00  0.00     0.017 A 
ENDBRANCH   6  22
TORSDOF 5
ENDMDL
MODEL 3
REMARK VINA RESULT:      -8.1      3.216      5.148
REMARK  5 active torsions:
REMARK  status: ('A' for Active; 'I' for Inactive)
REMARK    1  A    between atoms: C_3  and  N_4 
REMARK    2  A    between atoms: N_5  and  C_6 
REMARK    3  A    between atoms: C_6  and  C_7 
REMARK    4  A    between atoms: C_7  and  C_8 
REMARK    5  A    between atoms: C_19  and  C_20 
ROOT
HETATM    1  C   UNL     1     -43.314  54.185 -51.526  1.00  0.00     0.175 C 
HETATM    2  N   UNL     1     -42.589  54.865 -52.588  1.00  0.00    -0.186 N 
HETATM    3  C   UNL     1     -42.889  56.080 -53.037  1.00  0.00     0.680 C 
HETATM    4  N   UNL     1     -41.875  56.534 -53.765  1.00  0.00    -0.184 N 
HETATM    5  C   UNL     1     -40.964  55.499 -53.923  1.00  0.00     0.140 C 
HETATM    6  C   UNL     1     -41.435  54.395 -53.240  1.00  0.00     0.077 C 
ENDROOT
BRANCH   4   7
HETATM    7  C   UNL     1     -41.671  57.910 -54.269  1.00  0.00     0.231 C 
BRANCH   7   8
HETATM    8  C   UNL     1     -40.987  58.841 -53.273  1.00  0.00     0.178 C 
HETATM    9  O   UNL     1     -39.761  58.951 -53.213  1.00  0.00    -0.290 OA
BRANCH   8  10
HETATM   10  C   UNL     1     -41.828  59.693 -52.390  1.00  0.00     0.014 A 
HETATM   11  C   UNL     1     -42.905  60.435 -52.889  1.00  0.00     0.055 A 
HETATM   12  C   UNL     1     -43.600  61.226 -51.997  1.00  0.00     0.106 A 
HETATM   13  C   UNL     1     -43.268  61.294 -50.665  1.00  0.00     0.105 A 
HETATM   14  O   UNL     1     -44.658  62.022 -52.307  1.00  0.00    -0.323 OA
HETATM   15  O   UNL     1     -44.076  62.137 -49.971  1.00  0.00    -0.323 OA
HETATM   16  C   UNL     1     -42.215  60.576 -50.143  1.00  0.00     0.040 A 
HETATM   17  C   UNL     1     -44.939  62.620 -51.021  1.00  0.00     0.352 A 
HETATM   18  C   UNL     1     -41.482  59.771 -51.021  1.00  0.00     0.018 A 
ENDBRANCH   8  10
ENDBRANCH   7   8
ENDBRANCH   4   7
BRANCH   3  19
HETATM   19  N   UNL     1     -44.021  56.722 -52.770  1.00  0.00    -0.234 N 
HETATM   20  H   UNL     1     -44.066  57.725 -52.698  1.00  0.00     0.174 HD
HETATM   21  H   UNL     1     -44.772  56.200 -52.317  1.00  0.00     0.174 HD
ENDBRANCH   3  19
BRANCH   6  22
HETATM   22  C   UNL     1     -40.797  53.033 -53.221  1.00  0.00    -0.007 A 
HETATM   23  C   UNL     1     -40.931  52.178 -54.327  1.00  0.00     0.017 A 
HETATM   24  C   UNL     1     -40.341  50.910 -54.308  1.00  0.00     0.043 A 
HETATM   25  C   UNL     1     -39.638  50.494 -53.185  1.00  0.00     0.116 A 
HETATM   26  F   UNL     1     -39.078  49.278 -53.168  1.00  0.00    -0.206 F 
HETATM   27  C   UNL     1     -39.515  51.321 -52.077  1.00  0.00     0.043 A 
HETATM   28  C   UNL     1     -40.097  52.591 -52.092  1.00  0.00     0.017 A 
ENDBRANCH   6  22
TORSDOF 5
ENDMDL
MODEL 4
REMARK VINA RESULT:      -8.1      1.456      2.192
REMARK  5 active torsions:
REMARK  status: ('A' for Active; 'I' for Inactive)
REMARK    1  A    between atoms: C_3  and  N_4 
REMARK    2  A    between atoms: N_5  and  C_6 
REMARK    3  A    between atoms: C_6  and  C_7 
REMARK    4  A    between atoms: C_7  and  C_8 
REMARK    5  A    between atoms: C_19  and  C_20 
ROOT
HETATM    1  C   UNL     1     -43.740  53.934 -51.012  1.00  0.00     0.175 C 
HETATM    2  N   UNL     1     -42.983  54.938 -51.744  1.00  0.00    -0.186 N 
HETATM    3  C   UNL     1     -43.318  56.223 -51.811  1.00  0.00     0.680 C 
HETATM    4  N   UNL     1     -42.284  56.915 -52.275  1.00  0.00    -0.184 N 
HETATM    5  C   UNL     1     -41.310  56.012 -52.676  1.00  0.00     0.140 C 
HETATM    6  C   UNL     1     -41.764  54.735 -52.415  1.00  0.00     0.077 C 
ENDROOT
BRANCH   4   7
HETATM    7  C   UNL     1     -42.122  58.385 -52.302  1.00  0.00     0.231 C 
BRANCH   7   8
HETATM    8  C   UNL     1     -41.898  58.960 -53.697  1.00  0.00     0.178 C 
HETATM    9  O   UNL     1     -40.901  59.630 -53.978  1.00  0.00    -0.290 OA
BRANCH   8  10
HETATM   10  C   UNL     1     -42.879  58.649 -54.771  1.00  0.00     0.014 A 
HETATM   11  C   UNL     1     -42.508  57.956 -55.930  1.00  0.00     0.055 A 
HETATM   12  C   UNL     1     -43.482  57.750 -56.886  1.00  0.00     0.106 A 
HETATM   13  C   UNL     1     -44.773  58.195 -56.725  1.00  0.00     0.105 A 
HETATM   14  O   UNL     1     -43.299  57.115 -58.074  1.00  0.00    -0.323 OA
HETATM   15  O   UNL     1     -45.562  57.892 -57.788  1.00  0.00    -0.323 OA
HETATM   16  C   UNL     1     -45.169  58.878 -55.596  1.00  0.00     0.040 A 
HETATM   17  C   UNL     1     -44.618  57.233 -58.656  1.00  0.00     0.352 A 
HETATM   18  C   UNL     1     -44.205  59.113 -54.611  1.00  0.00     0.018 A 
ENDBRANCH   8  10
ENDBRANCH   7   8
ENDBRANCH   4   7
BRANCH   3  19
HETATM   19  N   UNL     1     -44.499  56.711 -51.449  1.00  0.00    -0.234 N 
HETATM   20  H   UNL     1     -44.682  57.701 -51.409  1.00  0.00     0.174 HD
HETATM   21  H   UNL     1     -45.117  56.114 -50.899  1.00  0.00     0.174 HD
ENDBRANCH   3  19
BRANCH   6  22
HETATM   22  C   UNL     1     -41.056  53.458 -52.774  1.00  0.00    -0.007 A 
HETATM   23  C   UNL     1     -40.199  52.843 -51.847  1.00  0.00     0.017 A 
HETATM   24  C   UNL     1     -39.537  51.658 -52.183  1.00  0.00     0.043 A 
HETATM   25  C   UNL     1     -39.718  51.100 -53.442  1.00  0.00     0.116 A 
HETATM   26  F   UNL     1     -39.080  49.968 -53.761  1.00  0.00    -0.206 F 
HETATM   27  C   UNL     1     -40.546  51.707 -54.375  1.00  0.00     0.043 A 
HETATM   28  C   UNL     1     -41.215  52.889 -54.044  1.00  0.00     0.017 A 
ENDBRANCH   6  22
TORSDOF 5
ENDMDL
MODEL 5
REMARK VINA RESULT:      -7.7      2.688      3.602
REMARK  5 active torsions:
REMARK  status: ('A' for Active; 'I' for Inactive)
REMARK    1  A    between atoms: C_3  and  N_4 
REMARK    2  A    between atoms: N_5  and  C_6 
REMARK    3  A    between atoms: C_6  and  C_7 
REMARK    4  A    between atoms: C_7  and  C_8 
REMARK    5  A    between atoms: C_19  and  C_20 
ROOT
HETATM    1  C   UNL     1     -40.402  55.234 -55.040  1.00  0.00     0.175 C 
HETATM    2  N   UNL     1     -40.786  55.352 -53.641  1.00  0.00    -0.186 N 
HETATM    3  C   UNL     1     -41.158  56.490 -53.063  1.00  0.00     0.680 C 
HETATM    4  N   UNL     1     -41.733  56.214 -51.898  1.00  0.00    -0.184 N 
HETATM    5  C   UNL     1     -41.570  54.859 -51.650  1.00  0.00     0.140 C 
HETATM    6  C   UNL     1     -40.900  54.297 -52.718  1.00  0.00     0.077 C 
ENDROOT
BRANCH   4   7
HETATM    7  C   UNL     1     -42.494  57.137 -51.027  1.00  0.00     0.231 C 
BRANCH   7   8
HETATM    8  C   UNL     1     -43.987  57.191 -51.333  1.00  0.00     0.178 C 
HETATM    9  O   UNL     1     -44.824  56.636 -50.617  1.00  0.00    -0.290 OA
BRANCH   8  10
HETATM   10  C   UNL     1     -44.456  57.992 -52.495  1.00  0.00     0.014 A 
HETATM   11  C   UNL     1     -44.677  57.411 -53.750  1.00  0.00     0.055 A 
HETATM   12  C   UNL     1     -45.073  58.245 -54.776  1.00  0.00     0.106 A 
HETATM   13  C   UNL     1     -45.256  59.596 -54.594  1.00  0.00     0.105 A 
HETATM   14  O   UNL     1     -45.316  57.859 -56.056  1.00  0.00    -0.323 OA
HETATM   15  O   UNL     1     -45.639  60.226 -55.733  1.00  0.00    -0.323 OA
HETATM   16  C   UNL     1     -45.048  60.196 -53.371  1.00  0.00     0.040 A 
HETATM   17  C   UNL     1     -45.648  59.126 -56.668  1.00  0.00     0.352 A 
HETATM   18  C   UNL     1     -44.636  59.383 -52.312  1.00  0.00     0.018 A 
ENDBRANCH   8  10
ENDBRANCH   7   8
ENDBRANCH   4   7
BRANCH   3  19
HETATM   19  N   UNL     1     -40.986  57.695 -53.596  1.00  0.00    -0.234 N 
HETATM   20  H   UNL     1     -41.706  58.155 -54.128  1.00  0.00     0.174 HD
HETATM   21  H   UNL     1     -40.030  58.018 -53.752  1.00  0.00     0.174 HD
ENDBRANCH   3  19
BRANCH   6  22
HETATM   22  C   UNL     1     -40.444  52.867 -52.818  1.00  0.00    -0.007 A 
HETATM   23  C   UNL     1     -40.593  52.164 -54.024  1.00  0.00     0.017 A 
HETATM   24  C   UNL     1     -40.172  50.833 -54.115  1.00  0.00     0.043 A 
HETATM   25  C   UNL     1     -39.622  50.206 -53.005  1.00  0.00     0.116 A 
HETATM   26  F   UNL     1     -39.224  48.931 -53.094  1.00  0.00    -0.206 F 
HETATM   27  C   UNL     1     -39.487  50.883 -51.801  1.00  0.00     0.043 A 
HETATM   28  C   UNL     1     -39.900  52.215 -51.704  1.00  0.00     0.017 A 
ENDBRANCH   6  22
TORSDOF 5
ENDMDL
MODEL 6
REMARK VINA RESULT:      -7.7      3.169      5.536
REMARK  5 active torsions:
REMARK  status: ('A' for Active; 'I' for Inactive)
REMARK    1  A    between atoms: C_3  and  N_4 
REMARK    2  A    between atoms: N_5  and  C_6 
REMARK    3  A    between atoms: C_6  and  C_7 
REMARK    4  A    between atoms: C_7  and  C_8 
REMARK    5  A    between atoms: C_19  and  C_20 
ROOT
HETATM    1  C   UNL     1     -43.226  53.991 -55.513  1.00  0.00     0.175 C 
HETATM    2  N   UNL     1     -42.354  55.061 -55.052  1.00  0.00    -0.186 N 
HETATM    3  C   UNL     1     -42.449  56.325 -55.453  1.00  0.00     0.680 C 
HETATM    4  N   UNL     1     -41.738  57.092 -54.634  1.00  0.00    -0.184 N 
HETATM    5  C   UNL     1     -41.028  56.262 -53.778  1.00  0.00     0.140 C 
HETATM    6  C   UNL     1     -41.349  54.952 -54.075  1.00  0.00     0.077 C 
ENDROOT
BRANCH   4   7
HETATM    7  C   UNL     1     -41.735  58.570 -54.557  1.00  0.00     0.231 C 
BRANCH   7   8
HETATM    8  C   UNL     1     -41.541  59.118 -53.147  1.00  0.00     0.178 C 
HETATM    9  O   UNL     1     -40.434  59.453 -52.720  1.00  0.00    -0.290 OA
BRANCH   8  10
HETATM   10  C   UNL     1     -42.734  59.318 -52.282  1.00  0.00     0.014 A 
HETATM   11  C   UNL     1     -42.868  60.443 -51.459  1.00  0.00     0.055 A 
HETATM   12  C   UNL     1     -43.993  60.518 -50.663  1.00  0.00     0.106 A 
HETATM   13  C   UNL     1     -44.960  59.540 -50.666  1.00  0.00     0.105 A 
HETATM   14  O   UNL     1     -44.279  61.524 -49.795  1.00  0.00    -0.323 OA
HETATM   15  O   UNL     1     -45.974  59.810 -49.805  1.00  0.00    -0.323 OA
HETATM   16  C   UNL     1     -44.857  58.422 -51.465  1.00  0.00     0.040 A 
HETATM   17  C   UNL     1     -45.526  61.056 -49.231  1.00  0.00     0.352 A 
HETATM   18  C   UNL     1     -43.725  58.309 -52.277  1.00  0.00     0.018 A 
ENDBRANCH   8  10
ENDBRANCH   7   8
ENDBRANCH   4   7
BRANCH   3  19
HETATM   19  N   UNL     1     -43.162  56.731 -56.498  1.00  0.00    -0.234 N 
HETATM   20  H   UNL     1     -43.054  57.649 -56.898  1.00  0.00     0.174 HD
HETATM   21  H   UNL     1     -44.041  56.252 -56.694  1.00  0.00     0.174 HD
ENDBRANCH   3  19
BRANCH   6  22
HETATM   22  C   UNL     1     -40.739  53.732 -53.443  1.00  0.00    -0.007 A 
HETATM   23  C   UNL     1     -40.663  53.626 -52.045  1.00  0.00     0.017 A 
HETATM   24  C   UNL     1     -40.092  52.492 -51.458  1.00  0.00     0.043 A 
HETATM   25  C   UNL     1     -39.586  51.480 -52.262  1.00  0.00     0.116 A 
HETATM   26  F   UNL     1     -39.036  50.398 -51.697  1.00  0.00    -0.206 F 
HETATM   27  C   UNL     1     -39.635  51.580 -53.645  1.00  0.00     0.043 A 
HETATM   28  C   UNL     1     -40.209  52.708 -54.239  1.00  0.00     0.017 A 
ENDBRANCH   6  22
TORSDOF 5
ENDMDL
MODEL 7
REMARK VINA RESULT:      -7.6      3.785      7.158
REMARK  5 active torsions:
REMARK  status: ('A' for Active; 'I' for Inactive)
REMARK    1  A    between atoms: C_3  and  N_4 
REMARK    2  A    between atoms: N_5  and  C_6 
REMARK    3  A    between atoms: C_6  and  C_7 
REMARK    4  A    between atoms: C_7  and  C_8 
REMARK    5  A    between atoms: C_19  and  C_20 
ROOT
HETATM    1  C   UNL     1     -44.228  57.605 -52.860  1.00  0.00     0.175 C 
HETATM    2  N   UNL     1     -42.915  56.981 -52.789  1.00  0.00    -0.186 N 
HETATM    3  C   UNL     1     -42.236  56.799 -51.661  1.00  0.00     0.680 C 
HETATM    4  N   UNL     1     -41.246  55.943 -51.887  1.00  0.00    -0.184 N 
HETATM    5  C   UNL     1     -41.192  55.701 -53.252  1.00  0.00     0.140 C 
HETATM    6  C   UNL     1     -42.205  56.413 -53.862  1.00  0.00     0.077 C 
ENDROOT
BRANCH   4   7
HETATM    7  C   UNL     1     -40.383  55.278 -50.886  1.00  0.00     0.231 C 
BRANCH   7   8
HETATM    8  C   UNL     1     -40.934  53.952 -50.373  1.00  0.00     0.178 C 
HETATM    9  O   UNL     1     -41.776  53.895 -49.473  1.00  0.00    -0.290 OA
BRANCH   8  10
HETATM   10  C   UNL     1     -40.492  52.688 -51.022  1.00  0.00     0.014 A 
HETATM   11  C   UNL     1     -40.301  52.598 -52.406  1.00  0.00     0.055 A 
HETATM   12  C   UNL     1     -39.927  51.372 -52.917  1.00  0.00     0.106 A 
HETATM   13  C   UNL     1     -39.739  50.270 -52.116  1.00  0.00     0.105 A 
HETATM   14  O   UNL     1     -39.715  51.098 -54.232  1.00  0.00    -0.323 OA
HETATM   15  O   UNL     1     -39.383  49.168 -52.825  1.00  0.00    -0.323 OA
HETATM   16  C   UNL     1     -39.918  50.328 -50.752  1.00  0.00     0.040 A 
HETATM   17  C   UNL     1     -39.396  49.688 -54.171  1.00  0.00     0.352 A 
HETATM   18  C   UNL     1     -40.306  51.552 -50.201  1.00  0.00     0.018 A 
ENDBRANCH   8  10
ENDBRANCH   7   8
ENDBRANCH   4   7
BRANCH   3  19
HETATM   19  N   UNL     1     -42.533  57.379 -50.503  1.00  0.00    -0.234 N 
HETATM   20  H   UNL     1     -41.946  58.087 -50.092  1.00  0.00     0.174 HD
HETATM   21  H   UNL     1     -43.166  56.890 -49.870  1.00  0.00     0.174 HD
ENDBRANCH   3  19
BRANCH   6  22
HETATM   22  C   UNL     1     -42.452  56.501 -55.343  1.00  0.00    -0.007 A 
HETATM   23  C   UNL     1     -42.782  55.347 -56.072  1.00  0.00     0.017 A 
HETATM   24  C   UNL     1     -43.007  55.429 -57.450  1.00  0.00     0.043 A 
HETATM   25  C   UNL     1     -42.886  56.652 -58.097  1.00  0.00     0.116 A 
HETATM   26  F   UNL     1     -43.098  56.725 -59.416  1.00  0.00    -0.206 F 
HETATM   27  C   UNL     1     -42.540  57.796 -57.393  1.00  0.00     0.043 A 
HETATM   28  C   UNL     1     -42.320  57.723 -56.015  1.00  0.00     0.017 A 
ENDBRANCH   6  22
TORSDOF 5
ENDMDL
MODEL 8
REMARK VINA RESULT:      -7.5      3.078      5.292
REMARK  5 active torsions:
REMARK  status: ('A' for Active; 'I' for Inactive)
REMARK    1  A    between atoms: C_3  and  N_4 
REMARK    2  A    between atoms: N_5  and  C_6 
REMARK    3  A    between atoms: C_6  and  C_7 
REMARK    4  A    between atoms: C_7  and  C_8 
REMARK    5  A    between atoms: C_19  and  C_20 
ROOT
HETATM    1  C   UNL     1     -43.115  53.930 -55.711  1.00  0.00     0.175 C 
HETATM    2  N   UNL     1     -43.083  54.927 -54.651  1.00  0.00    -0.186 N 
HETATM    3  C   UNL     1     -43.704  56.101 -54.713  1.00  0.00     0.680 C 
HETATM    4  N   UNL     1     -43.743  56.632 -53.497  1.00  0.00    -0.184 N 
HETATM    5  C   UNL     1     -42.971  55.842 -52.658  1.00  0.00     0.140 C 
HETATM    6  C   UNL     1     -42.475  54.782 -53.391  1.00  0.00     0.077 C 
ENDROOT
BRANCH   4   7
HETATM    7  C   UNL     1     -44.524  57.808 -53.051  1.00  0.00     0.231 C 
BRANCH   7   8
HETATM    8  C   UNL     1     -43.769  59.130 -53.154  1.00  0.00     0.178 C 
HETATM    9  O   UNL     1     -44.159  60.053 -53.873  1.00  0.00    -0.290 OA
BRANCH   8  10
HETATM   10  C   UNL     1     -42.561  59.337 -52.312  1.00  0.00     0.014 A 
HETATM   11  C   UNL     1     -41.271  59.112 -52.807  1.00  0.00     0.055 A 
HETATM   12  C   UNL     1     -40.215  59.294 -51.936  1.00  0.00     0.106 A 
HETATM   13  C   UNL     1     -40.401  59.687 -50.631  1.00  0.00     0.105 A 
HETATM   14  O   UNL     1     -38.903  59.106 -52.237  1.00  0.00    -0.323 OA
HETATM   15  O   UNL     1     -39.231  59.798 -49.951  1.00  0.00    -0.323 OA
HETATM   16  C   UNL     1     -41.657  59.917 -50.116  1.00  0.00     0.040 A 
HETATM   17  C   UNL     1     -38.283  59.400 -50.964  1.00  0.00     0.352 A 
HETATM   18  C   UNL     1     -42.750  59.733 -50.967  1.00  0.00     0.018 A 
ENDBRANCH   8  10
ENDBRANCH   7   8
ENDBRANCH   4   7
BRANCH   3  19
HETATM   19  N   UNL     1     -44.208  56.627 -55.824  1.00  0.00    -0.234 N 
HETATM   20  H   UNL     1     -44.746  57.479 -55.819  1.00  0.00     0.174 HD
HETATM   21  H   UNL     1     -44.339  56.013 -56.629  1.00  0.00     0.174 HD
ENDBRANCH   3  19
BRANCH   6  22
HETATM   22  C   UNL     1     -41.522  53.733 -52.889  1.00  0.00    -0.007 A 
HETATM   23  C   UNL     1     -41.289  53.595 -51.512  1.00  0.00     0.017 A 
HETATM   24  C   UNL     1     -40.399  52.622 -51.045  1.00  0.00     0.043 A 
HETATM   25  C   UNL     1     -39.735  51.805 -51.951  1.00  0.00     0.116 A 
HETATM   26  F   UNL     1     -38.881  50.878 -51.501  1.00  0.00    -0.206 F 
HETATM   27  C   UNL     1     -39.940  51.944 -53.316  1.00  0.00     0.043 A 
HETATM   28  C   UNL     1     -40.832  52.911 -53.789  1.00  0.00     0.017 A 
ENDBRANCH   6  22
TORSDOF 5
ENDMDL
MODEL 9
REMARK VINA RESULT:      -7.4      1.683      2.343
REMARK  5 active torsions:
REMARK  status: ('A' for Active; 'I' for Inactive)
REMARK    1  A    between atoms: C_3  and  N_4 
REMARK    2  A    between atoms: N_5  and  C_6 
REMARK    3  A    between atoms: C_6  and  C_7 
REMARK    4  A    between atoms: C_7  and  C_8 
REMARK    5  A    between atoms: C_19  and  C_20 
ROOT
HETATM    1  C   UNL     1     -41.147  56.913 -51.182  1.00  0.00     0.175 C 
HETATM    2  N   UNL     1     -42.007  56.478 -52.273  1.00  0.00    -0.186 N 
HETATM    3  C   UNL     1     -42.949  57.235 -52.827  1.00  0.00     0.680 C 
HETATM    4  N   UNL     1     -43.330  56.680 -53.972  1.00  0.00    -0.184 N 
HETATM    5  C   UNL     1     -42.725  55.435 -54.067  1.00  0.00     0.140 C 
HETATM    6  C   UNL     1     -41.929  55.250 -52.954  1.00  0.00     0.077 C 
ENDROOT
BRANCH   4   7
HETATM    7  C   UNL     1     -44.179  57.278 -55.026  1.00  0.00     0.231 C 
BRANCH   7   8
HETATM    8  C   UNL     1     -43.406  57.758 -56.250  1.00  0.00     0.178 C 
HETATM    9  O   UNL     1     -42.500  58.591 -56.168  1.00  0.00    -0.290 OA
BRANCH   8  10
HETATM   10  C   UNL     1     -43.709  57.155 -57.575  1.00  0.00     0.014 A 
HETATM   11  C   UNL     1     -44.963  57.300 -58.181  1.00  0.00     0.055 A 
HETATM   12  C   UNL     1     -45.160  56.671 -59.394  1.00  0.00     0.106 A 
HETATM   13  C   UNL     1     -44.175  55.930 -60.003  1.00  0.00     0.105 A 
HETATM   14  O   UNL     1     -46.313  56.689 -60.114  1.00  0.00    -0.323 OA
HETATM   15  O   UNL     1     -44.583  55.394 -61.182  1.00  0.00    -0.323 OA
HETATM   16  C   UNL     1     -42.931  55.770 -59.433  1.00  0.00     0.040 A 
HETATM   17  C   UNL     1     -45.950  55.853 -61.236  1.00  0.00     0.352 A 
HETATM   18  C   UNL     1     -42.700  56.386 -58.200  1.00  0.00     0.018 A 
ENDBRANCH   8  10
ENDBRANCH   7   8
ENDBRANCH   4   7
BRANCH   3  19
HETATM   19  N   UNL     1     -43.406  58.368 -52.307  1.00  0.00    -0.234 N 
HETATM   20  H   UNL     1     -43.012  58.773 -51.473  1.00  0.00     0.174 HD
HETATM   21  H   UNL     1     -44.353  58.660 -52.548  1.00  0.00     0.174 HD
ENDBRANCH   3  19
BRANCH   6  22
HETATM   22  C   UNL     1     -41.162  54.001 -52.617  1.00  0.00    -0.007 A 
HETATM   23  C   UNL     1     -40.991  53.621 -51.276  1.00  0.00     0.017 A 
HETATM   24  C   UNL     1     -40.274  52.462 -50.963  1.00  0.00     0.043 A 
HETATM   25  C   UNL     1     -39.719  51.698 -51.981  1.00  0.00     0.116 A 
HETATM   26  F   UNL     1     -39.030  50.591 -51.677  1.00  0.00    -0.206 F 
HETATM   27  C   UNL     1     -39.863  52.073 -53.309  1.00  0.00     0.043 A 
HETATM   28  C   UNL     1     -40.583  53.227 -53.630  1.00  0.00     0.017 A 
ENDBRANCH   6  22
TORSDOF 5
ENDMDL
MODEL 10
REMARK VINA RESULT:      -7.4     14.939     16.654
REMARK  5 active torsions:
REMARK  status: ('A' for Active; 'I' for Inactive)
REMARK    1  A    between atoms: C_3  and  N_4 
REMARK    2  A    between atoms: N_5  and  C_6 
REMARK    3  A    between atoms: C_6  and  C_7 
REMARK    4  A    between atoms: C_7  and  C_8 
REMARK    5  A    between atoms: C_19  and  C_20 
ROOT
HETATM    1  C   UNL     1     -32.889  38.903 -54.636  1.00  0.00     0.175 C 
HETATM    2  N   UNL     1     -33.727  40.057 -54.347  1.00  0.00    -0.186 N 
HETATM    3  C   UNL     1     -34.326  40.796 -55.276  1.00  0.00     0.680 C 
HETATM    4  N   UNL     1     -35.246  41.557 -54.695  1.00  0.00    -0.184 N 
HETATM    5  C   UNL     1     -35.111  41.419 -53.320  1.00  0.00     0.140 C 
HETATM    6  C   UNL     1     -34.094  40.519 -53.070  1.00  0.00     0.077 C 
ENDROOT
BRANCH   4   7
HETATM    7  C   UNL     1     -36.299  42.361 -55.354  1.00  0.00     0.231 C 
BRANCH   7   8
HETATM    8  C   UNL     1     -37.494  41.544 -55.835  1.00  0.00     0.178 C 
HETATM    9  O   UNL     1     -38.429  41.247 -55.087  1.00  0.00    -0.290 OA
BRANCH   8  10
HETATM   10  C   UNL     1     -37.567  41.148 -57.266  1.00  0.00     0.014 A 
HETATM   11  C   UNL     1     -38.125  39.928 -57.666  1.00  0.00     0.055 A 
HETATM   12  C   UNL     1     -38.111  39.633 -59.014  1.00  0.00     0.106 A 
HETATM   13  C   UNL     1     -37.579  40.492 -59.947  1.00  0.00     0.105 A 
HETATM   14  O   UNL     1     -38.591  38.493 -59.577  1.00  0.00    -0.323 OA
HETATM   15  O   UNL     1     -37.662  40.003 -61.210  1.00  0.00    -0.323 OA
HETATM   16  C   UNL     1     -37.024  41.700 -59.585  1.00  0.00     0.040 A 
HETATM   17  C   UNL     1     -38.278  38.720 -60.971  1.00  0.00     0.352 A 
HETATM   18  C   UNL     1     -37.013  42.027 -58.226  1.00  0.00     0.018 A 
ENDBRANCH   8  10
ENDBRANCH   7   8
ENDBRANCH   4   7
BRANCH   3  19
HETATM   19  N   UNL     1     -34.043  40.747 -56.573  1.00  0.00    -0.234 N 
HETATM   20  H   UNL     1     -33.306  41.298 -56.983  1.00  0.00     0.174 HD
HETATM   21  H   UNL     1     -34.766  40.411 -57.210  1.00  0.00     0.174 HD
ENDBRANCH   3  19
BRANCH   6  22
HETATM   22  C   UNL     1     -33.563  40.146 -51.714  1.00  0.00    -0.007 A 
HETATM   23  C   UNL     1     -32.195  40.292 -51.429  1.00  0.00     0.017 A 
HETATM   24  C   UNL     1     -31.701  39.941 -50.169  1.00  0.00     0.043 A 
HETATM   25  C   UNL     1     -32.564  39.433 -49.207  1.00  0.00     0.116 A 
HETATM   26  F   UNL     1     -32.086  39.094 -48.003  1.00  0.00    -0.206 F 
HETATM   27  C   UNL     1     -33.913  39.264 -49.481  1.00  0.00     0.043 A 
HETATM   28  C   UNL     1     -34.415  39.618 -50.736  1.00  0.00     0.017 A 
ENDBRANCH   6  22
TORSDOF 5
ENDMDL
