MODEL 1
REMARK VINA RESULT:      -7.9      0.000      0.000
REMARK  3 active torsions:
REMARK  status: ('A' for Active; 'I' for Inactive)
REMARK    1  A    between atoms: C_6  and  C_7 
REMARK       I    between atoms: C_7  and  N_8 
REMARK    2  A    between atoms: N_8  and  C_9 
REMARK    3  A    between atoms: C_12  and  C_13 
REMARK       I    between atoms: C_13  and  N_14 
ROOT
HETATM    1  C   UNL     1     -41.532  55.307 -52.669  1.00  0.00     0.257 C 
HETATM    2  N   UNL     1     -42.897  55.308 -52.454  1.00  0.00    -0.322 N 
HETATM    3  O   UNL     1     -40.781  56.271 -52.637  1.00  0.00    -0.267 OA
HETATM    4  H   UNL     1     -43.372  54.415 -52.529  1.00  0.00     0.169 HD
ENDROOT
BRANCH   2   5
HETATM    5  C   UNL     1     -43.693  56.429 -52.147  1.00  0.00     0.052 A 
HETATM    6  C   UNL     1     -44.312  56.658 -50.917  1.00  0.00     0.147 A 
HETATM    7  N   UNL     1     -45.068  57.749 -50.630  1.00  0.00    -0.253 NA
HETATM    8  C   UNL     1     -45.220  58.659 -51.630  1.00  0.00     0.124 A 
HETATM    9  C   UNL     1     -44.653  58.522 -52.889  1.00  0.00     0.039 A 
HETATM   10  C   UNL     1     -43.876  57.392 -53.144  1.00  0.00     0.033 A 
BRANCH   8  11
HETATM   11  C   UNL     1     -46.051  59.863 -51.312  1.00  0.00     0.268 C 
HETATM   12  N   UNL     1     -46.664  60.447 -52.387  1.00  0.00    -0.365 N 
HETATM   13  H   UNL     1     -46.529  60.050 -53.312  1.00  0.00     0.159 HD
HETATM   14  H   UNL     1     -47.245  61.261 -52.256  1.00  0.00     0.159 HD
HETATM   15  O   UNL     1     -46.180  60.296 -50.174  1.00  0.00    -0.266 OA
ENDBRANCH   8  11
ENDBRANCH   2   5
BRANCH   1  16
HETATM   16  C   UNL     1     -40.973  53.968 -52.993  1.00  0.00     0.044 A 
HETATM   17  C   UNL     1     -40.980  53.537 -54.336  1.00  0.00    -0.045 A 
HETATM   18  C   UNL     1     -40.433  52.283 -54.649  1.00  0.00     0.014 A 
HETATM   19  C   UNL     1     -41.526  54.397 -55.445  1.00  0.00     0.049 C 
HETATM   20  C   UNL     1     -39.893  51.464 -53.652  1.00  0.00    -0.061 A 
HETATM   21  C   UNL     1     -39.337  50.114 -54.004  1.00  0.00     0.048 C 
HETATM   22  C   UNL     1     -39.914  51.897 -52.321  1.00  0.00     0.014 A 
HETATM   23  C   UNL     1     -40.427  53.158 -51.976  1.00  0.00    -0.045 A 
HETATM   24  C   UNL     1     -40.383  53.588 -50.535  1.00  0.00     0.049 C 
ENDBRANCH   1  16
TORSDOF 3
ENDMDL
MODEL 2
REMARK VINA RESULT:      -7.9      0.207      1.909
REMARK  3 active torsions:
REMARK  status: ('A' for Active; 'I' for Inactive)
REMARK    1  A    between atoms: C_6  and  C_7 
REMARK       I    between atoms: C_7  and  N_8 
REMARK    2  A    between atoms: N_8  and  C_9 
REMARK    3  A    between atoms: C_12  and  C_13 
REMARK       I    between atoms: C_13  and  N_14 
ROOT
HETATM    1  C   UNL     1     -41.455  55.145 -52.538  1.00  0.00     0.257 C 
HETATM    2  N   UNL     1     -42.835  55.172 -52.481  1.00  0.00    -0.322 N 
HETATM    3  O   UNL     1     -40.690  56.072 -52.315  1.00  0.00    -0.267 OA
HETATM    4  H   UNL     1     -43.318  54.310 -52.706  1.00  0.00     0.169 HD
ENDROOT
BRANCH   2   5
HETATM    5  C   UNL     1     -43.635  56.282 -52.145  1.00  0.00     0.052 A 
HETATM    6  C   UNL     1     -44.221  56.497 -50.896  1.00  0.00     0.147 A 
HETATM    7  N   UNL     1     -44.981  57.579 -50.583  1.00  0.00    -0.253 NA
HETATM    8  C   UNL     1     -45.172  58.492 -51.573  1.00  0.00     0.124 A 
HETATM    9  C   UNL     1     -44.640  58.368 -52.848  1.00  0.00     0.039 A 
HETATM   10  C   UNL     1     -43.857  57.248 -53.131  1.00  0.00     0.033 A 
BRANCH   8  11
HETATM   11  C   UNL     1     -46.007  59.685 -51.225  1.00  0.00     0.268 C 
HETATM   12  N   UNL     1     -46.571  60.331 -52.291  1.00  0.00    -0.365 N 
HETATM   13  H   UNL     1     -46.400  59.983 -53.229  1.00  0.00     0.159 HD
HETATM   14  H   UNL     1     -47.151  61.142 -52.141  1.00  0.00     0.159 HD
HETATM   15  O   UNL     1     -46.181  60.057 -50.071  1.00  0.00    -0.266 OA
ENDBRANCH   8  11
ENDBRANCH   2   5
BRANCH   1  16
HETATM   16  C   UNL     1     -40.893  53.828 -52.941  1.00  0.00     0.044 A 
HETATM   17  C   UNL     1     -40.439  52.948 -51.937  1.00  0.00    -0.045 A 
HETATM   18  C   UNL     1     -39.928  51.697 -52.312  1.00  0.00     0.014 A 
HETATM   19  C   UNL     1     -40.520  53.299 -50.475  1.00  0.00     0.049 C 
HETATM   20  C   UNL     1     -39.859  51.321 -53.659  1.00  0.00    -0.061 A 
HETATM   21  C   UNL     1     -39.284  49.988 -54.041  1.00  0.00     0.048 C 
HETATM   22  C   UNL     1     -40.292  52.215 -54.644  1.00  0.00     0.014 A 
HETATM   23  C   UNL     1     -40.836  53.464 -54.303  1.00  0.00    -0.045 A 
HETATM   24  C   UNL     1     -41.326  54.366 -55.403  1.00  0.00     0.049 C 
ENDBRANCH   1  16
TORSDOF 3
ENDMDL
MODEL 3
REMARK VINA RESULT:      -7.9      2.237      2.388
REMARK  3 active torsions:
REMARK  status: ('A' for Active; 'I' for Inactive)
REMARK    1  A    between atoms: C_6  and  C_7 
REMARK       I    between atoms: C_7  and  N_8 
REMARK    2  A    between atoms: N_8  and  C_9 
REMARK    3  A    between atoms: C_12  and  C_13 
REMARK       I    between atoms: C_13  and  N_14 
ROOT
HETATM    1  C   UNL     1     -41.967  54.672 -52.012  1.00  0.00     0.257 C 
HETATM    2  N   UNL     1     -41.316  55.872 -52.224  1.00  0.00    -0.322 N 
HETATM    3  O   UNL     1     -43.014  54.499 -51.405  1.00  0.00    -0.267 OA
HETATM    4  H   UNL     1     -40.447  55.835 -52.744  1.00  0.00     0.169 HD
ENDROOT
BRANCH   2   5
HETATM    5  C   UNL     1     -41.740  57.141 -51.782  1.00  0.00     0.052 A 
HETATM    6  C   UNL     1     -42.902  57.788 -52.207  1.00  0.00     0.147 A 
HETATM    7  N   UNL     1     -43.305  59.008 -51.764  1.00  0.00    -0.253 NA
HETATM    8  C   UNL     1     -42.499  59.618 -50.853  1.00  0.00     0.124 A 
HETATM    9  C   UNL     1     -41.322  59.062 -50.373  1.00  0.00     0.039 A 
HETATM   10  C   UNL     1     -40.944  57.805 -50.844  1.00  0.00     0.033 A 
BRANCH   8  11
HETATM   11  C   UNL     1     -42.947  60.960 -50.363  1.00  0.00     0.268 C 
HETATM   12  N   UNL     1     -43.772  60.935 -49.272  1.00  0.00    -0.365 N 
HETATM   13  H   UNL     1     -44.031  60.041 -48.866  1.00  0.00     0.159 HD
HETATM   14  H   UNL     1     -44.114  61.798 -48.878  1.00  0.00     0.159 HD
HETATM   15  O   UNL     1     -42.598  62.007 -50.892  1.00  0.00    -0.266 OA
ENDBRANCH   8  11
ENDBRANCH   2   5
BRANCH   1  16
HETATM   16  C   UNL     1     -41.264  53.494 -52.586  1.00  0.00     0.044 A 
HETATM   17  C   UNL     1     -41.533  53.128 -53.921  1.00  0.00    -0.045 A 
HETATM   18  C   UNL     1     -40.855  52.030 -54.472  1.00  0.00     0.014 A 
HETATM   19  C   UNL     1     -42.498  53.901 -54.780  1.00  0.00     0.049 C 
HETATM   20  C   UNL     1     -39.931  51.299 -53.716  1.00  0.00    -0.061 A 
HETATM   21  C   UNL     1     -39.237  50.111 -54.317  1.00  0.00     0.048 C 
HETATM   22  C   UNL     1     -39.693  51.662 -52.386  1.00  0.00     0.014 A 
HETATM   23  C   UNL     1     -40.332  52.773 -51.810  1.00  0.00    -0.045 A 
HETATM   24  C   UNL     1     -40.003  53.142 -50.390  1.00  0.00     0.049 C 
ENDBRANCH   1  16
TORSDOF 3
ENDMDL
MODEL 4
REMARK VINA RESULT:      -7.7      2.249      2.969
REMARK  3 active torsions:
REMARK  status: ('A' for Active; 'I' for Inactive)
REMARK    1  A    between atoms: C_6  and  C_7 
REMARK       I    between atoms: C_7  and  N_8 
REMARK    2  A    between atoms: N_8  and  C_9 
REMARK    3  A    between atoms: C_12  and  C_13 
REMARK       I    between atoms: C_13  and  N_14 
ROOT
HETATM    1  C   UNL     1     -41.852  54.687 -51.833  1.00  0.00     0.257 C 
HETATM    2  N   UNL     1     -41.230  55.899 -52.061  1.00  0.00    -0.322 N 
HETATM    3  O   UNL     1     -42.863  54.488 -51.175  1.00  0.00    -0.267 OA
HETATM    4  H   UNL     1     -40.389  55.882 -52.626  1.00  0.00     0.169 HD
ENDROOT
BRANCH   2   5
HETATM    5  C   UNL     1     -41.650  57.155 -51.580  1.00  0.00     0.052 A 
HETATM    6  C   UNL     1     -40.939  57.942 -50.672  1.00  0.00     0.147 A 
HETATM    7  N   UNL     1     -41.350  59.157 -50.225  1.00  0.00    -0.253 NA
HETATM    8  C   UNL     1     -42.542  59.607 -50.703  1.00  0.00     0.124 A 
HETATM    9  C   UNL     1     -43.327  58.898 -51.602  1.00  0.00     0.039 A 
HETATM   10  C   UNL     1     -42.868  57.658 -52.046  1.00  0.00     0.033 A 
BRANCH   8  11
HETATM   11  C   UNL     1     -42.992  60.947 -50.212  1.00  0.00     0.268 C 
HETATM   12  N   UNL     1     -44.013  60.919 -49.300  1.00  0.00    -0.365 N 
HETATM   13  H   UNL     1     -44.399  60.025 -49.015  1.00  0.00     0.159 HD
HETATM   14  H   UNL     1     -44.371  61.780 -48.917  1.00  0.00     0.159 HD
HETATM   15  O   UNL     1     -42.485  61.995 -50.590  1.00  0.00    -0.266 OA
ENDBRANCH   8  11
ENDBRANCH   2   5
BRANCH   1  16
HETATM   16  C   UNL     1     -41.162  53.527 -52.459  1.00  0.00     0.044 A 
HETATM   17  C   UNL     1     -40.234  52.794 -51.691  1.00  0.00    -0.045 A 
HETATM   18  C   UNL     1     -39.598  51.687 -52.272  1.00  0.00     0.014 A 
HETATM   19  C   UNL     1     -39.935  53.144 -50.257  1.00  0.00     0.049 C 
HETATM   20  C   UNL     1     -39.867  51.312 -53.593  1.00  0.00    -0.061 A 
HETATM   21  C   UNL     1     -39.154  50.139 -54.204  1.00  0.00     0.048 C 
HETATM   22  C   UNL     1     -40.773  52.064 -54.349  1.00  0.00     0.014 A 
HETATM   23  C   UNL     1     -41.450  53.160 -53.791  1.00  0.00    -0.045 A 
HETATM   24  C   UNL     1     -42.445  53.904 -54.638  1.00  0.00     0.049 C 
ENDBRANCH   1  16
TORSDOF 3
ENDMDL
MODEL 5
REMARK VINA RESULT:      -7.3      2.562      3.389
REMARK  3 active torsions:
REMARK  status: ('A' for Active; 'I' for Inactive)
REMARK    1  A    between atoms: C_6  and  C_7 
REMARK       I    between atoms: C_7  and  N_8 
REMARK    2  A    between atoms: N_8  and  C_9 
REMARK    3  A    between atoms: C_12  and  C_13 
REMARK       I    between atoms: C_13  and  N_14 
ROOT
HETATM    1  C   UNL     1     -41.810  55.222 -52.821  1.00  0.00     0.257 C 
HETATM    2  N   UNL     1     -41.099  56.363 -52.502  1.00  0.00    -0.322 N 
HETATM    3  O   UNL     1     -42.902  55.161 -53.366  1.00  0.00    -0.267 OA
HETATM    4  H   UNL     1     -40.207  56.232 -52.040  1.00  0.00     0.169 HD
ENDROOT
BRANCH   2   5
HETATM    5  C   UNL     1     -41.499  57.691 -52.752  1.00  0.00     0.052 A 
HETATM    6  C   UNL     1     -40.948  58.521 -53.729  1.00  0.00     0.147 A 
HETATM    7  N   UNL     1     -41.350  59.797 -53.967  1.00  0.00    -0.253 NA
HETATM    8  C   UNL     1     -42.352  60.272 -53.180  1.00  0.00     0.124 A 
HETATM    9  C   UNL     1     -42.962  59.530 -52.177  1.00  0.00     0.039 A 
HETATM   10  C   UNL     1     -42.528  58.221 -51.968  1.00  0.00     0.033 A 
BRANCH   8  11
HETATM   11  C   UNL     1     -42.797  61.676 -53.445  1.00  0.00     0.268 C 
HETATM   12  N   UNL     1     -42.767  62.057 -54.760  1.00  0.00    -0.365 N 
HETATM   13  H   UNL     1     -42.454  61.394 -55.461  1.00  0.00     0.159 HD
HETATM   14  H   UNL     1     -43.056  62.987 -55.022  1.00  0.00     0.159 HD
HETATM   15  O   UNL     1     -43.169  62.432 -52.557  1.00  0.00    -0.266 OA
ENDBRANCH   8  11
ENDBRANCH   2   5
BRANCH   1  16
HETATM   16  C   UNL     1     -41.137  53.959 -52.414  1.00  0.00     0.044 A 
HETATM   17  C   UNL     1     -41.212  53.555 -51.065  1.00  0.00    -0.045 A 
HETATM   18  C   UNL     1     -40.597  52.353 -50.682  1.00  0.00     0.014 A 
HETATM   19  C   UNL     1     -41.961  54.357 -50.034  1.00  0.00     0.049 C 
HETATM   20  C   UNL     1     -39.913  51.564 -51.614  1.00  0.00    -0.061 A 
HETATM   21  C   UNL     1     -39.239  50.295 -51.178  1.00  0.00     0.048 C 
HETATM   22  C   UNL     1     -39.829  51.991 -52.944  1.00  0.00     0.014 A 
HETATM   23  C   UNL     1     -40.457  53.174 -53.369  1.00  0.00    -0.045 A 
HETATM   24  C   UNL     1     -40.369  53.560 -54.820  1.00  0.00     0.049 C 
ENDBRANCH   1  16
TORSDOF 3
ENDMDL
MODEL 6
REMARK VINA RESULT:      -7.3      3.005      7.693
REMARK  3 active torsions:
REMARK  status: ('A' for Active; 'I' for Inactive)
REMARK    1  A    between atoms: C_6  and  C_7 
REMARK       I    between atoms: C_7  and  N_8 
REMARK    2  A    between atoms: N_8  and  C_9 
REMARK    3  A    between atoms: C_12  and  C_13 
REMARK       I    between atoms: C_13  and  N_14 
ROOT
HETATM    1  C   UNL     1     -42.239  55.754 -52.302  1.00  0.00     0.257 C 
HETATM    2  N   UNL     1     -41.139  55.239 -52.962  1.00  0.00    -0.322 N 
HETATM    3  O   UNL     1     -43.047  55.137 -51.624  1.00  0.00    -0.267 OA
HETATM    4  H   UNL     1     -40.575  55.894 -53.490  1.00  0.00     0.169 HD
ENDROOT
BRANCH   2   5
HETATM    5  C   UNL     1     -40.731  53.890 -52.975  1.00  0.00     0.052 A 
HETATM    6  C   UNL     1     -40.182  53.210 -51.886  1.00  0.00     0.147 A 
HETATM    7  N   UNL     1     -39.802  51.906 -51.909  1.00  0.00    -0.253 NA
HETATM    8  C   UNL     1     -39.973  51.247 -53.087  1.00  0.00     0.124 A 
HETATM    9  C   UNL     1     -40.503  51.833 -54.228  1.00  0.00     0.039 A 
HETATM   10  C   UNL     1     -40.889  53.172 -54.163  1.00  0.00     0.033 A 
BRANCH   8  11
HETATM   11  C   UNL     1     -39.557  49.809 -53.110  1.00  0.00     0.268 C 
HETATM   12  N   UNL     1     -39.439  49.218 -51.881  1.00  0.00    -0.365 N 
HETATM   13  H   UNL     1     -39.630  49.765 -51.047  1.00  0.00     0.159 HD
HETATM   14  H   UNL     1     -39.167  48.249 -51.811  1.00  0.00     0.159 HD
HETATM   15  O   UNL     1     -39.343  49.199 -54.149  1.00  0.00    -0.266 OA
ENDBRANCH   8  11
ENDBRANCH   2   5
BRANCH   1  16
HETATM   16  C   UNL     1     -42.424  57.218 -52.490  1.00  0.00     0.044 A 
HETATM   17  C   UNL     1     -43.280  57.666 -53.517  1.00  0.00    -0.045 A 
HETATM   18  C   UNL     1     -43.473  59.046 -53.683  1.00  0.00     0.014 A 
HETATM   19  C   UNL     1     -44.015  56.708 -54.416  1.00  0.00     0.049 C 
HETATM   20  C   UNL     1     -42.829  59.970 -52.853  1.00  0.00    -0.061 A 
HETATM   21  C   UNL     1     -43.029  61.443 -53.065  1.00  0.00     0.048 C 
HETATM   22  C   UNL     1     -41.965  59.509 -51.853  1.00  0.00     0.014 A 
HETATM   23  C   UNL     1     -41.770  58.134 -51.639  1.00  0.00    -0.045 A 
HETATM   24  C   UNL     1     -40.865  57.696 -50.521  1.00  0.00     0.049 C 
ENDBRANCH   1  16
TORSDOF 3
ENDMDL
MODEL 7
REMARK VINA RESULT:      -7.1      2.510      2.785
REMARK  3 active torsions:
REMARK  status: ('A' for Active; 'I' for Inactive)
REMARK    1  A    between atoms: C_6  and  C_7 
REMARK       I    between atoms: C_7  and  N_8 
REMARK    2  A    between atoms: N_8  and  C_9 
REMARK    3  A    between atoms: C_12  and  C_13 
REMARK       I    between atoms: C_13  and  N_14 
ROOT
HETATM    1  C   UNL     1     -41.946  55.212 -52.671  1.00  0.00     0.257 C 
HETATM    2  N   UNL     1     -41.187  56.354 -52.502  1.00  0.00    -0.322 N 
HETATM    3  O   UNL     1     -43.100  55.146 -53.068  1.00  0.00    -0.267 OA
HETATM    4  H   UNL     1     -40.244  56.229 -52.152  1.00  0.00     0.169 HD
ENDROOT
BRANCH   2   5
HETATM    5  C   UNL     1     -41.599  57.676 -52.764  1.00  0.00     0.052 A 
HETATM    6  C   UNL     1     -42.061  58.576 -51.802  1.00  0.00     0.147 A 
HETATM    7  N   UNL     1     -42.445  59.852 -52.068  1.00  0.00    -0.253 NA
HETATM    8  C   UNL     1     -42.371  60.247 -53.368  1.00  0.00     0.124 A 
HETATM    9  C   UNL     1     -41.933  59.428 -54.399  1.00  0.00     0.039 A 
HETATM   10  C   UNL     1     -41.539  58.127 -54.086  1.00  0.00     0.033 A 
BRANCH   8  11
HETATM   11  C   UNL     1     -42.791  61.654 -53.659  1.00  0.00     0.268 C 
HETATM   12  N   UNL     1     -42.747  62.013 -54.979  1.00  0.00    -0.365 N 
HETATM   13  H   UNL     1     -42.441  61.333 -55.668  1.00  0.00     0.159 HD
HETATM   14  H   UNL     1     -43.019  62.943 -55.258  1.00  0.00     0.159 HD
HETATM   15  O   UNL     1     -43.155  62.431 -52.785  1.00  0.00    -0.266 OA
ENDBRANCH   8  11
ENDBRANCH   2   5
BRANCH   1  16
HETATM   16  C   UNL     1     -41.242  53.958 -52.291  1.00  0.00     0.044 A 
HETATM   17  C   UNL     1     -40.613  53.201 -53.301  1.00  0.00    -0.045 A 
HETATM   18  C   UNL     1     -39.930  52.029 -52.944  1.00  0.00     0.014 A 
HETATM   19  C   UNL     1     -40.625  53.633 -54.744  1.00  0.00     0.049 C 
HETATM   20  C   UNL     1     -39.873  51.605 -51.611  1.00  0.00    -0.061 A 
HETATM   21  C   UNL     1     -39.160  50.333 -51.254  1.00  0.00     0.048 C 
HETATM   22  C   UNL     1     -40.522  52.356 -50.624  1.00  0.00     0.014 A 
HETATM   23  C   UNL     1     -41.191  53.550 -50.942  1.00  0.00    -0.045 A 
HETATM   24  C   UNL     1     -41.832  54.338 -49.832  1.00  0.00     0.049 C 
ENDBRANCH   1  16
TORSDOF 3
ENDMDL
MODEL 8
REMARK VINA RESULT:      -7.1      3.998      5.723
REMARK  3 active torsions:
REMARK  status: ('A' for Active; 'I' for Inactive)
REMARK    1  A    between atoms: C_6  and  C_7 
REMARK       I    between atoms: C_7  and  N_8 
REMARK    2  A    between atoms: N_8  and  C_9 
REMARK    3  A    between atoms: C_12  and  C_13 
REMARK       I    between atoms: C_13  and  N_14 
ROOT
HETATM    1  C   UNL     1     -42.826  55.128 -54.229  1.00  0.00     0.257 C 
HETATM    2  N   UNL     1     -42.202  55.958 -55.140  1.00  0.00    -0.322 N 
HETATM    3  O   UNL     1     -43.934  54.621 -54.333  1.00  0.00    -0.267 OA
HETATM    4  H   UNL     1     -41.281  56.299 -54.891  1.00  0.00     0.169 HD
ENDROOT
BRANCH   2   5
HETATM    5  C   UNL     1     -42.724  56.380 -56.379  1.00  0.00     0.052 A 
HETATM    6  C   UNL     1     -43.120  57.685 -56.678  1.00  0.00     0.147 A 
HETATM    7  N   UNL     1     -43.612  58.080 -57.881  1.00  0.00    -0.253 NA
HETATM    8  C   UNL     1     -43.721  57.117 -58.836  1.00  0.00     0.124 A 
HETATM    9  C   UNL     1     -43.362  55.791 -58.637  1.00  0.00     0.039 A 
HETATM   10  C   UNL     1     -42.853  55.425 -57.391  1.00  0.00     0.033 A 
BRANCH   8  11
HETATM   11  C   UNL     1     -44.260  57.554 -60.162  1.00  0.00     0.268 C 
HETATM   12  N   UNL     1     -45.127  56.677 -60.755  1.00  0.00    -0.365 N 
HETATM   13  H   UNL     1     -45.352  55.807 -60.284  1.00  0.00     0.159 HD
HETATM   14  H   UNL     1     -45.538  56.900 -61.649  1.00  0.00     0.159 HD
HETATM   15  O   UNL     1     -43.955  58.620 -60.682  1.00  0.00    -0.266 OA
ENDBRANCH   8  11
ENDBRANCH   2   5
BRANCH   1  16
HETATM   16  C   UNL     1     -42.031  54.875 -52.999  1.00  0.00     0.044 A 
HETATM   17  C   UNL     1     -42.220  55.718 -51.884  1.00  0.00    -0.045 A 
HETATM   18  C   UNL     1     -41.487  55.468 -50.714  1.00  0.00     0.014 A 
HETATM   19  C   UNL     1     -43.210  56.852 -51.902  1.00  0.00     0.049 C 
HETATM   20  C   UNL     1     -40.576  54.408 -50.646  1.00  0.00    -0.061 A 
HETATM   21  C   UNL     1     -39.782  54.176 -49.393  1.00  0.00     0.048 C 
HETATM   22  C   UNL     1     -40.383  53.596 -51.769  1.00  0.00     0.014 A 
HETATM   23  C   UNL     1     -41.121  53.798 -52.947  1.00  0.00    -0.045 A 
HETATM   24  C   UNL     1     -40.903  52.866 -54.107  1.00  0.00     0.049 C 
ENDBRANCH   1  16
TORSDOF 3
ENDMDL
MODEL 9
REMARK VINA RESULT:      -7.0      3.085      7.881
REMARK  3 active torsions:
REMARK  status: ('A' for Active; 'I' for Inactive)
REMARK    1  A    between atoms: C_6  and  C_7 
REMARK       I    between atoms: C_7  and  N_8 
REMARK    2  A    between atoms: N_8  and  C_9 
REMARK    3  A    between atoms: C_12  and  C_13 
REMARK       I    between atoms: C_13  and  N_14 
ROOT
HETATM    1  C   UNL     1     -42.378  55.621 -53.423  1.00  0.00     0.257 C 
HETATM    2  N   UNL     1     -41.077  55.157 -53.415  1.00  0.00    -0.322 N 
HETATM    3  O   UNL     1     -43.397  54.963 -53.273  1.00  0.00    -0.267 OA
HETATM    4  H   UNL     1     -40.346  55.843 -53.564  1.00  0.00     0.169 HD
ENDROOT
BRANCH   2   5
HETATM    5  C   UNL     1     -40.669  53.822 -53.224  1.00  0.00     0.052 A 
HETATM    6  C   UNL     1     -40.277  53.272 -52.002  1.00  0.00     0.147 A 
HETATM    7  N   UNL     1     -39.896  51.979 -51.830  1.00  0.00    -0.253 NA
HETATM    8  C   UNL     1     -39.899  51.195 -52.941  1.00  0.00     0.124 A 
HETATM    9  C   UNL     1     -40.265  51.646 -54.202  1.00  0.00     0.039 A 
HETATM   10  C   UNL     1     -40.658  52.977 -54.338  1.00  0.00     0.033 A 
BRANCH   8  11
HETATM   11  C   UNL     1     -39.483  49.770 -52.749  1.00  0.00     0.268 C 
HETATM   12  N   UNL     1     -39.467  49.338 -51.451  1.00  0.00    -0.365 N 
HETATM   13  H   UNL     1     -39.726  49.983 -50.710  1.00  0.00     0.159 HD
HETATM   14  H   UNL     1     -39.201  48.389 -51.238  1.00  0.00     0.159 HD
HETATM   15  O   UNL     1     -39.185  49.036 -53.683  1.00  0.00    -0.266 OA
ENDBRANCH   8  11
ENDBRANCH   2   5
BRANCH   1  16
HETATM   16  C   UNL     1     -42.495  57.084 -53.667  1.00  0.00     0.044 A 
HETATM   17  C   UNL     1     -42.512  57.957 -52.559  1.00  0.00    -0.045 A 
HETATM   18  C   UNL     1     -42.602  59.339 -52.787  1.00  0.00     0.014 A 
HETATM   19  C   UNL     1     -42.403  57.452 -51.145  1.00  0.00     0.049 C 
HETATM   20  C   UNL     1     -42.679  59.852 -54.087  1.00  0.00    -0.061 A 
HETATM   21  C   UNL     1     -42.801  61.332 -54.307  1.00  0.00     0.048 C 
HETATM   22  C   UNL     1     -42.684  58.970 -55.174  1.00  0.00     0.014 A 
HETATM   23  C   UNL     1     -42.567  57.583 -54.984  1.00  0.00    -0.045 A 
HETATM   24  C   UNL     1     -42.534  56.688 -56.193  1.00  0.00     0.049 C 
ENDBRANCH   1  16
TORSDOF 3
ENDMDL
MODEL 10
REMARK VINA RESULT:      -6.9      3.063      3.726
REMARK  3 active torsions:
REMARK  status: ('A' for Active; 'I' for Inactive)
REMARK    1  A    between atoms: C_6  and  C_7 
REMARK       I    between atoms: C_7  and  N_8 
REMARK    2  A    between atoms: N_8  and  C_9 
REMARK    3  A    between atoms: C_12  and  C_13 
REMARK       I    between atoms: C_13  and  N_14 
ROOT
HETATM    1  C   UNL     1     -41.844  55.081 -53.003  1.00  0.00     0.257 C 
HETATM    2  N   UNL     1     -41.001  56.143 -53.268  1.00  0.00    -0.322 N 
HETATM    3  O   UNL     1     -43.062  55.065 -53.096  1.00  0.00    -0.267 OA
HETATM    4  H   UNL     1     -40.010  55.986 -53.130  1.00  0.00     0.169 HD
ENDROOT
BRANCH   2   5
HETATM    5  C   UNL     1     -41.389  57.425 -53.706  1.00  0.00     0.052 A 
HETATM    6  C   UNL     1     -41.097  58.619 -53.043  1.00  0.00     0.147 A 
HETATM    7  N   UNL     1     -41.467  59.850 -53.483  1.00  0.00    -0.253 NA
HETATM    8  C   UNL     1     -42.175  59.890 -54.644  1.00  0.00     0.124 A 
HETATM    9  C   UNL     1     -42.522  58.762 -55.374  1.00  0.00     0.039 A 
HETATM   10  C   UNL     1     -42.116  57.516 -54.896  1.00  0.00     0.033 A 
BRANCH   8  11
HETATM   11  C   UNL     1     -42.579  61.247 -55.129  1.00  0.00     0.268 C 
HETATM   12  N   UNL     1     -42.703  62.200 -54.154  1.00  0.00    -0.365 N 
HETATM   13  H   UNL     1     -42.524  61.948 -53.188  1.00  0.00     0.159 HD
HETATM   14  H   UNL     1     -42.968  63.142 -54.400  1.00  0.00     0.159 HD
HETATM   15  O   UNL     1     -42.780  61.495 -56.311  1.00  0.00    -0.266 OA
ENDBRANCH   8  11
ENDBRANCH   2   5
BRANCH   1  16
HETATM   16  C   UNL     1     -41.142  53.855 -52.537  1.00  0.00     0.044 A 
HETATM   17  C   UNL     1     -41.137  53.559 -51.159  1.00  0.00    -0.045 A 
HETATM   18  C   UNL     1     -40.494  52.392 -50.718  1.00  0.00     0.014 A 
HETATM   19  C   UNL     1     -41.832  54.439 -50.153  1.00  0.00     0.049 C 
HETATM   20  C   UNL     1     -39.859  51.533 -51.623  1.00  0.00    -0.061 A 
HETATM   21  C   UNL     1     -39.154  50.304 -51.127  1.00  0.00     0.048 C 
HETATM   22  C   UNL     1     -39.853  51.854 -52.985  1.00  0.00     0.014 A 
HETATM   23  C   UNL     1     -40.511  52.998 -53.464  1.00  0.00    -0.045 A 
HETATM   24  C   UNL     1     -40.509  53.268 -54.944  1.00  0.00     0.049 C 
ENDBRANCH   1  16
TORSDOF 3
ENDMDL
