MODEL 1
REMARK VINA RESULT:      -8.1      0.000      0.000
REMARK  4 active torsions:
REMARK  status: ('A' for Active; 'I' for Inactive)
REMARK    1  A    between atoms: C_4  and  C_5 
REMARK    2  A    between atoms: C_8  and  C_9 
REMARK    3  A    between atoms: C_9  and  N_10 
REMARK       I    between atoms: N_10  and  C_11 
REMARK       I    between atoms: C_11  and  N_12 
REMARK    4  A    between atoms: N_12  and  C_13 
ROOT
HETATM    1  C   UNL     1     -41.720  57.082 -53.468  1.00  0.00     0.213 C 
ENDROOT
BRANCH   1   2
HETATM    2  C   UNL     1     -41.329  55.745 -52.961  1.00  0.00     0.190 A 
HETATM    3  O   UNL     1     -41.060  55.651 -51.629  1.00  0.00    -0.194 OA
HETATM    4  N   UNL     1     -40.639  54.344 -51.401  1.00  0.00    -0.106 NA
HETATM    5  C   UNL     1     -40.696  53.769 -52.614  1.00  0.00     0.189 A 
HETATM    6  N   UNL     1     -41.133  54.618 -53.612  1.00  0.00    -0.202 NA
BRANCH   5   7
HETATM    7  C   UNL     1     -40.306  52.387 -52.876  1.00  0.00     0.014 A 
HETATM    8  C   UNL     1     -40.422  51.834 -54.162  1.00  0.00     0.015 A 
HETATM    9  C   UNL     1     -40.057  50.507 -54.403  1.00  0.00     0.001 A 
HETATM   10  C   UNL     1     -39.572  49.717 -53.362  1.00  0.00     0.000 A 
HETATM   11  C   UNL     1     -39.453  50.251 -52.081  1.00  0.00     0.001 A 
HETATM   12  C   UNL     1     -39.818  51.578 -51.839  1.00  0.00     0.015 A 
ENDBRANCH   5   7
ENDBRANCH   1   2
BRANCH   1  13
HETATM   13  N   UNL     1     -42.247  56.984 -54.814  1.00  0.00    -0.335 N 
HETATM   14  C   UNL     1     -43.576  56.814 -55.037  1.00  0.00     0.321 C 
HETATM   15  N   UNL     1     -44.022  56.922 -56.319  1.00  0.00    -0.309 N 
HETATM   16  O   UNL     1     -44.388  56.656 -54.130  1.00  0.00    -0.247 OA
HETATM   17  H   UNL     1     -45.029  57.037 -56.342  1.00  0.00     0.170 HD
HETATM   18  H   UNL     1     -41.719  57.438 -55.543  1.00  0.00     0.164 HD
BRANCH  15  19
HETATM   19  C   UNL     1     -43.367  56.910 -57.561  1.00  0.00     0.036 A 
HETATM   20  C   UNL     1     -43.370  55.822 -58.437  1.00  0.00     0.029 A 
HETATM   21  C   UNL     1     -42.687  55.897 -59.655  1.00  0.00     0.002 A 
HETATM   22  C   UNL     1     -42.009  57.061 -60.012  1.00  0.00     0.000 A 
HETATM   23  C   UNL     1     -42.032  58.162 -59.161  1.00  0.00     0.002 A 
HETATM   24  C   UNL     1     -42.719  58.090 -57.948  1.00  0.00     0.029 A 
ENDBRANCH  15  19
ENDBRANCH   1  13
TORSDOF 4
ENDMDL
MODEL 2
REMARK VINA RESULT:      -8.1      1.875      2.300
REMARK  4 active torsions:
REMARK  status: ('A' for Active; 'I' for Inactive)
REMARK    1  A    between atoms: C_4  and  C_5 
REMARK    2  A    between atoms: C_8  and  C_9 
REMARK    3  A    between atoms: C_9  and  N_10 
REMARK       I    between atoms: N_10  and  C_11 
REMARK       I    between atoms: C_11  and  N_12 
REMARK    4  A    between atoms: N_12  and  C_13 
ROOT
HETATM    1  C   UNL     1     -43.114  56.208 -54.561  1.00  0.00     0.213 C 
ENDROOT
BRANCH   1   2
HETATM    2  C   UNL     1     -42.043  55.192 -54.425  1.00  0.00     0.190 A 
HETATM    3  O   UNL     1     -40.930  55.371 -55.190  1.00  0.00    -0.194 OA
HETATM    4  N   UNL     1     -40.112  54.269 -54.964  1.00  0.00    -0.106 NA
HETATM    5  C   UNL     1     -40.803  53.528 -54.081  1.00  0.00     0.189 A 
HETATM    6  N   UNL     1     -42.014  54.084 -53.716  1.00  0.00    -0.202 NA
BRANCH   5   7
HETATM    7  C   UNL     1     -40.346  52.239 -53.569  1.00  0.00     0.014 A 
HETATM    8  C   UNL     1     -40.324  51.101 -54.390  1.00  0.00     0.015 A 
HETATM    9  C   UNL     1     -39.896  49.868 -53.890  1.00  0.00     0.001 A 
HETATM   10  C   UNL     1     -39.485  49.760 -52.563  1.00  0.00     0.000 A 
HETATM   11  C   UNL     1     -39.502  50.880 -51.736  1.00  0.00     0.001 A 
HETATM   12  C   UNL     1     -39.930  52.113 -52.235  1.00  0.00     0.015 A 
ENDBRANCH   5   7
ENDBRANCH   1   2
BRANCH   1  13
HETATM   13  N   UNL     1     -43.468  56.394 -55.954  1.00  0.00    -0.335 N 
HETATM   14  C   UNL     1     -43.061  57.492 -56.642  1.00  0.00     0.321 C 
HETATM   15  N   UNL     1     -43.266  57.509 -57.987  1.00  0.00    -0.309 N 
HETATM   16  O   UNL     1     -42.448  58.417 -56.116  1.00  0.00    -0.247 OA
HETATM   17  H   UNL     1     -42.708  58.232 -58.428  1.00  0.00     0.170 HD
HETATM   18  H   UNL     1     -43.643  55.560 -56.493  1.00  0.00     0.164 HD
BRANCH  15  19
HETATM   19  C   UNL     1     -44.070  56.735 -58.839  1.00  0.00     0.036 A 
HETATM   20  C   UNL     1     -43.672  55.520 -59.402  1.00  0.00     0.029 A 
HETATM   21  C   UNL     1     -44.538  54.815 -60.242  1.00  0.00     0.002 A 
HETATM   22  C   UNL     1     -45.812  55.310 -60.515  1.00  0.00     0.000 A 
HETATM   23  C   UNL     1     -46.231  56.500 -59.929  1.00  0.00     0.002 A 
HETATM   24  C   UNL     1     -45.368  57.202 -59.084  1.00  0.00     0.029 A 
ENDBRANCH  15  19
ENDBRANCH   1  13
TORSDOF 4
ENDMDL
MODEL 3
REMARK VINA RESULT:      -7.6      1.056      7.324
REMARK  4 active torsions:
REMARK  status: ('A' for Active; 'I' for Inactive)
REMARK    1  A    between atoms: C_4  and  C_5 
REMARK    2  A    between atoms: C_8  and  C_9 
REMARK    3  A    between atoms: C_9  and  N_10 
REMARK       I    between atoms: N_10  and  C_11 
REMARK       I    between atoms: C_11  and  N_12 
REMARK    4  A    between atoms: N_12  and  C_13 
ROOT
HETATM    1  C   UNL     1     -43.136  55.101 -52.753  1.00  0.00     0.213 C 
ENDROOT
BRANCH   1   2
HETATM    2  C   UNL     1     -42.916  55.917 -53.971  1.00  0.00     0.190 A 
HETATM    3  O   UNL     1     -42.829  57.265 -53.796  1.00  0.00    -0.194 OA
HETATM    4  N   UNL     1     -42.711  57.823 -55.065  1.00  0.00    -0.106 NA
HETATM    5  C   UNL     1     -42.734  56.761 -55.889  1.00  0.00     0.189 A 
HETATM    6  N   UNL     1     -42.854  55.551 -55.234  1.00  0.00    -0.202 NA
BRANCH   5   7
HETATM    7  C   UNL     1     -42.672  56.861 -57.344  1.00  0.00     0.014 A 
HETATM    8  C   UNL     1     -43.054  55.785 -58.160  1.00  0.00     0.015 A 
HETATM    9  C   UNL     1     -42.982  55.884 -59.553  1.00  0.00     0.001 A 
HETATM   10  C   UNL     1     -42.527  57.061 -60.145  1.00  0.00     0.000 A 
HETATM   11  C   UNL     1     -42.144  58.137 -59.348  1.00  0.00     0.001 A 
HETATM   12  C   UNL     1     -42.216  58.039 -57.956  1.00  0.00     0.015 A 
ENDBRANCH   5   7
ENDBRANCH   1   2
BRANCH   1  13
HETATM   13  N   UNL     1     -42.078  54.123 -52.596  1.00  0.00    -0.335 N 
HETATM   14  C   UNL     1     -41.016  54.362 -51.784  1.00  0.00     0.321 C 
HETATM   15  N   UNL     1     -40.163  53.331 -51.537  1.00  0.00    -0.309 N 
HETATM   16  O   UNL     1     -40.847  55.433 -51.207  1.00  0.00    -0.247 OA
HETATM   17  H   UNL     1     -39.573  53.534 -50.738  1.00  0.00     0.170 HD
HETATM   18  H   UNL     1     -42.327  53.157 -52.746  1.00  0.00     0.164 HD
BRANCH  15  19
HETATM   19  C   UNL     1     -39.966  52.086 -52.157  1.00  0.00     0.036 A 
HETATM   20  C   UNL     1     -39.907  51.901 -53.540  1.00  0.00     0.029 A 
HETATM   21  C   UNL     1     -39.711  50.624 -54.073  1.00  0.00     0.002 A 
HETATM   22  C   UNL     1     -39.557  49.525 -53.229  1.00  0.00     0.000 A 
HETATM   23  C   UNL     1     -39.578  49.706 -51.849  1.00  0.00     0.002 A 
HETATM   24  C   UNL     1     -39.767  50.983 -51.317  1.00  0.00     0.029 A 
ENDBRANCH  15  19
ENDBRANCH   1  13
TORSDOF 4
ENDMDL
MODEL 4
REMARK VINA RESULT:      -7.6      2.392      2.932
REMARK  4 active torsions:
REMARK  status: ('A' for Active; 'I' for Inactive)
REMARK    1  A    between atoms: C_4  and  C_5 
REMARK    2  A    between atoms: C_8  and  C_9 
REMARK    3  A    between atoms: C_9  and  N_10 
REMARK       I    between atoms: N_10  and  C_11 
REMARK       I    between atoms: C_11  and  N_12 
REMARK    4  A    between atoms: N_12  and  C_13 
ROOT
HETATM    1  C   UNL     1     -41.754  56.580 -50.517  1.00  0.00     0.213 C 
ENDROOT
BRANCH   1   2
HETATM    2  C   UNL     1     -41.087  55.271 -50.717  1.00  0.00     0.190 A 
HETATM    3  O   UNL     1     -40.078  54.963 -49.855  1.00  0.00    -0.194 OA
HETATM    4  N   UNL     1     -39.551  53.747 -50.281  1.00  0.00    -0.106 NA
HETATM    5  C   UNL     1     -40.292  53.432 -51.357  1.00  0.00     0.189 A 
HETATM    6  N   UNL     1     -41.268  54.363 -51.651  1.00  0.00    -0.202 NA
BRANCH   5   7
HETATM    7  C   UNL     1     -40.077  52.238 -52.169  1.00  0.00     0.014 A 
HETATM    8  C   UNL     1     -40.284  52.261 -53.557  1.00  0.00     0.015 A 
HETATM    9  C   UNL     1     -40.087  51.111 -54.327  1.00  0.00     0.001 A 
HETATM   10  C   UNL     1     -39.682  49.925 -53.717  1.00  0.00     0.000 A 
HETATM   11  C   UNL     1     -39.473  49.887 -52.341  1.00  0.00     0.001 A 
HETATM   12  C   UNL     1     -39.670  51.036 -51.570  1.00  0.00     0.015 A 
ENDBRANCH   5   7
ENDBRANCH   1   2
BRANCH   1  13
HETATM   13  N   UNL     1     -42.659  56.864 -51.613  1.00  0.00    -0.335 N 
HETATM   14  C   UNL     1     -44.003  56.732 -51.467  1.00  0.00     0.321 C 
HETATM   15  N   UNL     1     -44.798  57.196 -52.470  1.00  0.00    -0.309 N 
HETATM   16  O   UNL     1     -44.521  56.295 -50.443  1.00  0.00    -0.247 OA
HETATM   17  H   UNL     1     -45.758  57.287 -52.157  1.00  0.00     0.170 HD
HETATM   18  H   UNL     1     -42.340  57.525 -52.305  1.00  0.00     0.164 HD
BRANCH  15  19
HETATM   19  C   UNL     1     -44.537  57.563 -53.801  1.00  0.00     0.036 A 
HETATM   20  C   UNL     1     -43.998  56.703 -54.759  1.00  0.00     0.029 A 
HETATM   21  C   UNL     1     -43.769  57.154 -56.062  1.00  0.00     0.002 A 
HETATM   22  C   UNL     1     -44.089  58.462 -56.421  1.00  0.00     0.000 A 
HETATM   23  C   UNL     1     -44.661  59.315 -55.481  1.00  0.00     0.002 A 
HETATM   24  C   UNL     1     -44.896  58.863 -54.182  1.00  0.00     0.029 A 
ENDBRANCH  15  19
ENDBRANCH   1  13
TORSDOF 4
ENDMDL
MODEL 5
REMARK VINA RESULT:      -7.5      1.834      2.413
REMARK  4 active torsions:
REMARK  status: ('A' for Active; 'I' for Inactive)
REMARK    1  A    between atoms: C_4  and  C_5 
REMARK    2  A    between atoms: C_8  and  C_9 
REMARK    3  A    between atoms: C_9  and  N_10 
REMARK       I    between atoms: N_10  and  C_11 
REMARK       I    between atoms: C_11  and  N_12 
REMARK    4  A    between atoms: N_12  and  C_13 
ROOT
HETATM    1  C   UNL     1     -41.507  56.963 -53.032  1.00  0.00     0.213 C 
ENDROOT
BRANCH   1   2
HETATM    2  C   UNL     1     -40.962  55.642 -53.426  1.00  0.00     0.190 A 
HETATM    3  O   UNL     1     -40.595  55.497 -54.730  1.00  0.00    -0.194 OA
HETATM    4  N   UNL     1     -40.199  54.172 -54.885  1.00  0.00    -0.106 NA
HETATM    5  C   UNL     1     -40.360  53.640 -53.661  1.00  0.00     0.189 A 
HETATM    6  N   UNL     1     -40.829  54.538 -52.722  1.00  0.00    -0.202 NA
BRANCH   5   7
HETATM    7  C   UNL     1     -40.100  52.239 -53.343  1.00  0.00     0.014 A 
HETATM    8  C   UNL     1     -40.206  51.243 -54.327  1.00  0.00     0.015 A 
HETATM    9  C   UNL     1     -39.966  49.902 -54.012  1.00  0.00     0.001 A 
HETATM   10  C   UNL     1     -39.617  49.543 -52.712  1.00  0.00     0.000 A 
HETATM   11  C   UNL     1     -39.509  50.520 -51.726  1.00  0.00     0.001 A 
HETATM   12  C   UNL     1     -39.749  51.861 -52.039  1.00  0.00     0.015 A 
ENDBRANCH   5   7
ENDBRANCH   1   2
BRANCH   1  13
HETATM   13  N   UNL     1     -42.066  57.648 -54.180  1.00  0.00    -0.335 N 
HETATM   14  C   UNL     1     -41.657  58.897 -54.522  1.00  0.00     0.321 C 
HETATM   15  N   UNL     1     -42.082  59.400 -55.713  1.00  0.00    -0.309 N 
HETATM   16  O   UNL     1     -40.861  59.544 -53.847  1.00  0.00    -0.247 OA
HETATM   17  H   UNL     1     -41.526  60.203 -55.985  1.00  0.00     0.170 HD
HETATM   18  H   UNL     1     -42.426  57.069 -54.924  1.00  0.00     0.164 HD
BRANCH  15  19
HETATM   19  C   UNL     1     -43.103  59.018 -56.600  1.00  0.00     0.036 A 
HETATM   20  C   UNL     1     -44.443  59.380 -56.452  1.00  0.00     0.029 A 
HETATM   21  C   UNL     1     -45.395  58.953 -57.383  1.00  0.00     0.002 A 
HETATM   22  C   UNL     1     -45.013  58.174 -58.473  1.00  0.00     0.000 A 
HETATM   23  C   UNL     1     -43.674  57.839 -58.647  1.00  0.00     0.002 A 
HETATM   24  C   UNL     1     -42.722  58.271 -57.722  1.00  0.00     0.029 A 
ENDBRANCH  15  19
ENDBRANCH   1  13
TORSDOF 4
ENDMDL
MODEL 6
REMARK VINA RESULT:      -7.4      1.892      7.225
REMARK  4 active torsions:
REMARK  status: ('A' for Active; 'I' for Inactive)
REMARK    1  A    between atoms: C_4  and  C_5 
REMARK    2  A    between atoms: C_8  and  C_9 
REMARK    3  A    between atoms: C_9  and  N_10 
REMARK       I    between atoms: N_10  and  C_11 
REMARK       I    between atoms: C_11  and  N_12 
REMARK    4  A    between atoms: N_12  and  C_13 
ROOT
HETATM    1  C   UNL     1     -42.039  57.699 -54.446  1.00  0.00     0.213 C 
ENDROOT
BRANCH   1   2
HETATM    2  C   UNL     1     -42.487  57.640 -55.858  1.00  0.00     0.190 A 
HETATM    3  O   UNL     1     -42.142  58.690 -56.653  1.00  0.00    -0.194 OA
HETATM    4  N   UNL     1     -42.734  58.461 -57.892  1.00  0.00    -0.106 NA
HETATM    5  C   UNL     1     -43.379  57.294 -57.731  1.00  0.00     0.189 A 
HETATM    6  N   UNL     1     -43.237  56.749 -56.470  1.00  0.00    -0.202 NA
BRANCH   5   7
HETATM    7  C   UNL     1     -44.185  56.662 -58.772  1.00  0.00     0.014 A 
HETATM    8  C   UNL     1     -45.425  57.200 -59.153  1.00  0.00     0.015 A 
HETATM    9  C   UNL     1     -46.196  56.583 -60.142  1.00  0.00     0.001 A 
HETATM   10  C   UNL     1     -45.737  55.422 -60.761  1.00  0.00     0.000 A 
HETATM   11  C   UNL     1     -44.510  54.877 -60.393  1.00  0.00     0.001 A 
HETATM   12  C   UNL     1     -43.737  55.492 -59.404  1.00  0.00     0.015 A 
ENDBRANCH   5   7
ENDBRANCH   1   2
BRANCH   1  13
HETATM   13  N   UNL     1     -41.896  56.365 -53.899  1.00  0.00    -0.335 N 
HETATM   14  C   UNL     1     -42.850  55.829 -53.095  1.00  0.00     0.321 C 
HETATM   15  N   UNL     1     -42.742  54.510 -52.775  1.00  0.00    -0.309 N 
HETATM   16  O   UNL     1     -43.838  56.457 -52.724  1.00  0.00    -0.247 OA
HETATM   17  H   UNL     1     -43.615  54.156 -52.402  1.00  0.00     0.170 HD
HETATM   18  H   UNL     1     -41.328  55.718 -54.424  1.00  0.00     0.164 HD
BRANCH  15  19
HETATM   19  C   UNL     1     -41.685  53.590 -52.871  1.00  0.00     0.036 A 
HETATM   20  C   UNL     1     -40.836  53.259 -51.813  1.00  0.00     0.029 A 
HETATM   21  C   UNL     1     -39.807  52.331 -51.999  1.00  0.00     0.002 A 
HETATM   22  C   UNL     1     -39.626  51.719 -53.237  1.00  0.00     0.000 A 
HETATM   23  C   UNL     1     -40.491  52.015 -54.287  1.00  0.00     0.002 A 
HETATM   24  C   UNL     1     -41.523  52.936 -54.100  1.00  0.00     0.029 A 
ENDBRANCH  15  19
ENDBRANCH   1  13
TORSDOF 4
ENDMDL
MODEL 7
REMARK VINA RESULT:      -7.2      2.364      3.092
REMARK  4 active torsions:
REMARK  status: ('A' for Active; 'I' for Inactive)
REMARK    1  A    between atoms: C_4  and  C_5 
REMARK    2  A    between atoms: C_8  and  C_9 
REMARK    3  A    between atoms: C_9  and  N_10 
REMARK       I    between atoms: N_10  and  C_11 
REMARK       I    between atoms: C_11  and  N_12 
REMARK    4  A    between atoms: N_12  and  C_13 
ROOT
HETATM    1  C   UNL     1     -41.460  56.780 -50.656  1.00  0.00     0.213 C 
ENDROOT
BRANCH   1   2
HETATM    2  C   UNL     1     -40.922  55.406 -50.795  1.00  0.00     0.190 A 
HETATM    3  O   UNL     1     -40.065  54.984 -49.823  1.00  0.00    -0.194 OA
HETATM    4  N   UNL     1     -39.629  53.718 -50.201  1.00  0.00    -0.106 NA
HETATM    5  C   UNL     1     -40.264  53.490 -51.363  1.00  0.00     0.189 A 
HETATM    6  N   UNL     1     -41.089  54.525 -51.758  1.00  0.00    -0.202 NA
BRANCH   5   7
HETATM    7  C   UNL     1     -40.087  52.281 -52.162  1.00  0.00     0.014 A 
HETATM    8  C   UNL     1     -39.679  51.076 -51.569  1.00  0.00     0.015 A 
HETATM    9  C   UNL     1     -39.501  49.925 -52.342  1.00  0.00     0.001 A 
HETATM   10  C   UNL     1     -39.730  49.966 -53.716  1.00  0.00     0.000 A 
HETATM   11  C   UNL     1     -40.135  51.154 -54.318  1.00  0.00     0.001 A 
HETATM   12  C   UNL     1     -40.313  52.306 -53.546  1.00  0.00     0.015 A 
ENDBRANCH   5   7
ENDBRANCH   1   2
BRANCH   1  13
HETATM   13  N   UNL     1     -41.765  57.342 -51.957  1.00  0.00    -0.335 N 
HETATM   14  C   UNL     1     -40.989  58.314 -52.502  1.00  0.00     0.321 C 
HETATM   15  N   UNL     1     -41.222  58.658 -53.798  1.00  0.00    -0.309 N 
HETATM   16  O   UNL     1     -40.044  58.824 -51.906  1.00  0.00    -0.247 OA
HETATM   17  H   UNL     1     -40.443  59.186 -54.177  1.00  0.00     0.170 HD
HETATM   18  H   UNL     1     -42.272  56.753 -52.598  1.00  0.00     0.164 HD
BRANCH  15  19
HETATM   19  C   UNL     1     -42.296  58.418 -54.670  1.00  0.00     0.036 A 
HETATM   20  C   UNL     1     -42.353  57.348 -55.566  1.00  0.00     0.029 A 
HETATM   21  C   UNL     1     -43.463  57.185 -56.400  1.00  0.00     0.002 A 
HETATM   22  C   UNL     1     -44.528  58.082 -56.337  1.00  0.00     0.000 A 
HETATM   23  C   UNL     1     -44.496  59.129 -55.422  1.00  0.00     0.002 A 
HETATM   24  C   UNL     1     -43.391  59.288 -54.583  1.00  0.00     0.029 A 
ENDBRANCH  15  19
ENDBRANCH   1  13
TORSDOF 4
ENDMDL
MODEL 8
REMARK VINA RESULT:      -7.2      2.191      2.943
REMARK  4 active torsions:
REMARK  status: ('A' for Active; 'I' for Inactive)
REMARK    1  A    between atoms: C_4  and  C_5 
REMARK    2  A    between atoms: C_8  and  C_9 
REMARK    3  A    between atoms: C_9  and  N_10 
REMARK       I    between atoms: N_10  and  C_11 
REMARK       I    between atoms: C_11  and  N_12 
REMARK    4  A    between atoms: N_12  and  C_13 
ROOT
HETATM    1  C   UNL     1     -43.114  58.485 -55.457  1.00  0.00     0.213 C 
ENDROOT
BRANCH   1   2
HETATM    2  C   UNL     1     -42.283  57.532 -54.684  1.00  0.00     0.190 A 
HETATM    3  O   UNL     1     -41.356  58.072 -53.844  1.00  0.00    -0.194 OA
HETATM    4  N   UNL     1     -40.647  57.006 -53.298  1.00  0.00    -0.106 NA
HETATM    5  C   UNL     1     -41.212  55.923 -53.857  1.00  0.00     0.189 A 
HETATM    6  N   UNL     1     -42.245  56.218 -54.724  1.00  0.00    -0.202 NA
BRANCH   5   7
HETATM    7  C   UNL     1     -40.766  54.555 -53.606  1.00  0.00     0.014 A 
HETATM    8  C   UNL     1     -40.430  53.698 -54.666  1.00  0.00     0.015 A 
HETATM    9  C   UNL     1     -40.014  52.386 -54.419  1.00  0.00     0.001 A 
HETATM   10  C   UNL     1     -39.930  51.917 -53.110  1.00  0.00     0.000 A 
HETATM   11  C   UNL     1     -40.261  52.755 -52.048  1.00  0.00     0.001 A 
HETATM   12  C   UNL     1     -40.677  54.067 -52.294  1.00  0.00     0.015 A 
ENDBRANCH   5   7
ENDBRANCH   1   2
BRANCH   1  13
HETATM   13  N   UNL     1     -43.339  57.994 -56.802  1.00  0.00    -0.335 N 
HETATM   14  C   UNL     1     -42.577  58.420 -57.842  1.00  0.00     0.321 C 
HETATM   15  N   UNL     1     -42.717  57.778 -59.034  1.00  0.00    -0.309 N 
HETATM   16  O   UNL     1     -41.719  59.290 -57.726  1.00  0.00    -0.247 OA
HETATM   17  H   UNL     1     -41.941  57.990 -59.652  1.00  0.00     0.170 HD
HETATM   18  H   UNL     1     -43.753  57.079 -56.887  1.00  0.00     0.164 HD
BRANCH  15  19
HETATM   19  C   UNL     1     -43.697  56.906 -59.539  1.00  0.00     0.036 A 
HETATM   20  C   UNL     1     -43.532  55.524 -59.649  1.00  0.00     0.029 A 
HETATM   21  C   UNL     1     -44.561  54.731 -60.165  1.00  0.00     0.002 A 
HETATM   22  C   UNL     1     -45.764  55.310 -60.563  1.00  0.00     0.000 A 
HETATM   23  C   UNL     1     -45.950  56.682 -60.423  1.00  0.00     0.002 A 
HETATM   24  C   UNL     1     -44.926  57.474 -59.900  1.00  0.00     0.029 A 
ENDBRANCH  15  19
ENDBRANCH   1  13
TORSDOF 4
ENDMDL
MODEL 9
REMARK VINA RESULT:      -7.2      1.689      7.133
REMARK  4 active torsions:
REMARK  status: ('A' for Active; 'I' for Inactive)
REMARK    1  A    between atoms: C_4  and  C_5 
REMARK    2  A    between atoms: C_8  and  C_9 
REMARK    3  A    between atoms: C_9  and  N_10 
REMARK       I    between atoms: N_10  and  C_11 
REMARK       I    between atoms: C_11  and  N_12 
REMARK    4  A    between atoms: N_12  and  C_13 
ROOT
HETATM    1  C   UNL     1     -41.614  57.923 -53.019  1.00  0.00     0.213 C 
ENDROOT
BRANCH   1   2
HETATM    2  C   UNL     1     -41.796  58.237 -54.456  1.00  0.00     0.190 A 
HETATM    3  O   UNL     1     -41.539  59.519 -54.838  1.00  0.00    -0.194 OA
HETATM    4  N   UNL     1     -41.855  59.601 -56.191  1.00  0.00    -0.106 NA
HETATM    5  C   UNL     1     -42.270  58.361 -56.502  1.00  0.00     0.189 A 
HETATM    6  N   UNL     1     -42.237  57.480 -55.438  1.00  0.00    -0.202 NA
BRANCH   5   7
HETATM    7  C   UNL     1     -42.745  57.972 -57.826  1.00  0.00     0.014 A 
HETATM    8  C   UNL     1     -42.793  56.622 -58.210  1.00  0.00     0.015 A 
HETATM    9  C   UNL     1     -43.239  56.258 -59.484  1.00  0.00     0.001 A 
HETATM   10  C   UNL     1     -43.642  57.239 -60.388  1.00  0.00     0.000 A 
HETATM   11  C   UNL     1     -43.599  58.582 -60.022  1.00  0.00     0.001 A 
HETATM   12  C   UNL     1     -43.153  58.947 -58.749  1.00  0.00     0.015 A 
ENDBRANCH   5   7
ENDBRANCH   1   2
BRANCH   1  13
HETATM   13  N   UNL     1     -41.542  56.490 -52.815  1.00  0.00    -0.335 N 
HETATM   14  C   UNL     1     -42.397  55.856 -51.971  1.00  0.00     0.321 C 
HETATM   15  N   UNL     1     -42.397  54.495 -51.973  1.00  0.00    -0.309 N 
HETATM   16  O   UNL     1     -43.217  56.456 -51.282  1.00  0.00    -0.247 OA
HETATM   17  H   UNL     1     -43.228  54.134 -51.518  1.00  0.00     0.170 HD
HETATM   18  H   UNL     1     -41.161  55.942 -53.571  1.00  0.00     0.164 HD
BRANCH  15  19
HETATM   19  C   UNL     1     -41.497  53.542 -52.478  1.00  0.00     0.036 A 
HETATM   20  C   UNL     1     -41.436  53.156 -53.818  1.00  0.00     0.029 A 
HETATM   21  C   UNL     1     -40.508  52.196 -54.234  1.00  0.00     0.002 A 
HETATM   22  C   UNL     1     -39.626  51.627 -53.317  1.00  0.00     0.000 A 
HETATM   23  C   UNL     1     -39.656  52.033 -51.986  1.00  0.00     0.002 A 
HETATM   24  C   UNL     1     -40.578  52.996 -51.572  1.00  0.00     0.029 A 
ENDBRANCH  15  19
ENDBRANCH   1  13
TORSDOF 4
ENDMDL
MODEL 10
REMARK VINA RESULT:      -7.0     14.305     17.066
REMARK  4 active torsions:
REMARK  status: ('A' for Active; 'I' for Inactive)
REMARK    1  A    between atoms: C_4  and  C_5 
REMARK    2  A    between atoms: C_8  and  C_9 
REMARK    3  A    between atoms: C_9  and  N_10 
REMARK       I    between atoms: N_10  and  C_11 
REMARK       I    between atoms: C_11  and  N_12 
REMARK    4  A    between atoms: N_12  and  C_13 
ROOT
HETATM    1  C   UNL     1     -36.684  40.966 -52.502  1.00  0.00     0.213 C 
ENDROOT
BRANCH   1   2
HETATM    2  C   UNL     1     -37.309  41.081 -53.841  1.00  0.00     0.190 A 
HETATM    3  O   UNL     1     -38.665  41.204 -53.873  1.00  0.00    -0.194 OA
HETATM    4  N   UNL     1     -39.031  41.209 -55.216  1.00  0.00    -0.106 NA
HETATM    5  C   UNL     1     -37.863  41.093 -55.870  1.00  0.00     0.189 A 
HETATM    6  N   UNL     1     -36.764  41.019 -55.037  1.00  0.00    -0.202 NA
BRANCH   5   7
HETATM    7  C   UNL     1     -37.751  41.018 -57.324  1.00  0.00     0.014 A 
HETATM    8  C   UNL     1     -38.158  39.871 -58.023  1.00  0.00     0.015 A 
HETATM    9  C   UNL     1     -38.037  39.803 -59.414  1.00  0.00     0.001 A 
HETATM   10  C   UNL     1     -37.508  40.881 -60.121  1.00  0.00     0.000 A 
HETATM   11  C   UNL     1     -37.099  42.025 -59.441  1.00  0.00     0.001 A 
HETATM   12  C   UNL     1     -37.219  42.095 -58.050  1.00  0.00     0.015 A 
ENDBRANCH   5   7
ENDBRANCH   1   2
BRANCH   1  13
HETATM   13  N   UNL     1     -35.278  40.635 -52.621  1.00  0.00    -0.335 N 
HETATM   14  C   UNL     1     -34.328  41.358 -51.974  1.00  0.00     0.321 C 
HETATM   15  N   UNL     1     -33.054  40.879 -51.977  1.00  0.00    -0.309 N 
HETATM   16  O   UNL     1     -34.588  42.367 -51.323  1.00  0.00    -0.247 OA
HETATM   17  H   UNL     1     -32.494  41.338 -51.268  1.00  0.00     0.170 HD
HETATM   18  H   UNL     1     -35.054  39.674 -52.829  1.00  0.00     0.164 HD
BRANCH  15  19
HETATM   19  C   UNL     1     -32.406  39.899 -52.748  1.00  0.00     0.036 A 
HETATM   20  C   UNL     1     -31.959  40.100 -54.055  1.00  0.00     0.029 A 
HETATM   21  C   UNL     1     -31.325  39.067 -54.750  1.00  0.00     0.002 A 
HETATM   22  C   UNL     1     -31.121  37.830 -54.140  1.00  0.00     0.000 A 
HETATM   23  C   UNL     1     -31.530  37.633 -52.825  1.00  0.00     0.002 A 
HETATM   24  C   UNL     1     -32.157  38.667 -52.128  1.00  0.00     0.029 A 
ENDBRANCH  15  19
ENDBRANCH   1  13
TORSDOF 4
ENDMDL
