MODEL 1
REMARK VINA RESULT:      -8.5      0.000      0.000
REMARK  13 active torsions:
REMARK  status: ('A' for Active; 'I' for Inactive)
REMARK    1  A    between atoms: O_2  and  C_3 
REMARK    2  A    between atoms: C_6  and  C_7 
REMARK    3  A    between atoms: C_7  and  C_8 
REMARK    4  A    between atoms: C_9  and  C_10 
REMARK    5  A    between atoms: N_17  and  C_18 
REMARK    6  A    between atoms: C_18  and  C_19 
REMARK    7  A    between atoms: C_19  and  O_20 
REMARK    8  A    between atoms: C_19  and  C_21 
REMARK    9  A    between atoms: C_21  and  N_22 
REMARK   10  A    between atoms: N_22  and  C_25 
REMARK   11  A    between atoms: C_25  and  C_26 
REMARK   12  A    between atoms: C_26  and  C_27 
REMARK   13  A    between atoms: C_32  and  O_33 
ROOT
HETATM    1  C   UNL     1     -44.606  54.889 -59.803  1.00  0.00     0.162 C 
ENDROOT
BRANCH   1   2
HETATM    2  N   UNL     1     -43.754  55.696 -58.942  1.00  0.00    -0.353 N 
HETATM    3  C   UNL     1     -43.273  56.952 -59.246  1.00  0.00     0.045 A 
HETATM    4  C   UNL     1     -42.575  57.407 -58.117  1.00  0.00     0.002 A 
HETATM    5  C   UNL     1     -43.411  57.736 -60.406  1.00  0.00     0.030 A 
HETATM    6  C   UNL     1     -42.616  56.354 -57.147  1.00  0.00    -0.008 A 
HETATM    7  C   UNL     1     -42.034  58.713 -58.159  1.00  0.00     0.014 A 
HETATM    8  C   UNL     1     -43.357  55.323 -57.687  1.00  0.00     0.103 A 
HETATM    9  C   UNL     1     -42.166  59.496 -59.310  1.00  0.00     0.001 A 
HETATM   10  C   UNL     1     -42.841  59.008 -60.421  1.00  0.00     0.002 A 
BRANCH   6  11
HETATM   11  C   UNL     1     -42.062  56.274 -55.831  1.00  0.00     0.018 C 
HETATM   12  C   UNL     1     -41.663  55.159 -55.199  1.00  0.00     0.056 C 
BRANCH  12  13
HETATM   13  C   UNL     1     -41.074  55.255 -53.834  1.00  0.00     0.182 C 
HETATM   14  O   UNL     1     -40.894  56.343 -53.293  1.00  0.00    -0.288 OA
BRANCH  13  15
HETATM   15  C   UNL     1     -40.639  54.001 -53.154  1.00  0.00     0.014 A 
HETATM   16  C   UNL     1     -40.294  52.832 -53.842  1.00  0.00     0.018 A 
HETATM   17  C   UNL     1     -39.853  51.708 -53.135  1.00  0.00     0.037 A 
HETATM   18  C   UNL     1     -39.758  51.728 -51.742  1.00  0.00     0.068 A 
HETATM   19  C   UNL     1     -40.134  52.878 -51.050  1.00  0.00     0.037 A 
HETATM   20  C   UNL     1     -40.574  54.007 -51.753  1.00  0.00     0.018 A 
BRANCH  18  21
HETATM   21  O   UNL     1     -39.296  50.568 -51.185  1.00  0.00    -0.356 OA
HETATM   22  C   UNL     1     -39.562  49.363 -51.893  1.00  0.00     0.210 C 
ENDBRANCH  18  21
ENDBRANCH  13  15
ENDBRANCH  12  13
ENDBRANCH   6  11
ENDBRANCH   1   2
BRANCH   1  23
HETATM   23  C   UNL     1     -45.093  55.674 -61.030  1.00  0.00     0.162 C 
BRANCH  23  24
HETATM   24  O   UNL     1     -45.007  54.877 -62.214  1.00  0.00    -0.392 OA
HETATM   25  H   UNL     1     -44.944  53.932 -61.960  1.00  0.00     0.210 HD
ENDBRANCH  23  24
BRANCH  23  26
HETATM   26  C   UNL     1     -46.576  56.074 -60.902  1.00  0.00     0.265 C 
BRANCH  26  27
HETATM   27  N   UNL     1     -47.009  56.303 -59.484  1.00  0.00    -0.072 N 
HETATM   28  H   UNL     1     -47.958  55.948 -59.309  1.00  0.00     0.277 HD
HETATM   29  H   UNL     1     -46.384  55.771 -58.861  1.00  0.00     0.277 HD
BRANCH  27  30
HETATM   30  C   UNL     1     -46.945  57.744 -59.036  1.00  0.00     0.237 C 
BRANCH  30  31
HETATM   31  C   UNL     1     -46.989  57.865 -57.512  1.00  0.00     0.068 C 
BRANCH  31  32
HETATM   32  C   UNL     1     -45.972  58.828 -57.003  1.00  0.00    -0.029 A 
HETATM   33  C   UNL     1     -45.214  58.707 -55.794  1.00  0.00     0.001 A 
HETATM   34  C   UNL     1     -44.383  59.822 -55.711  1.00  0.00     0.043 A 
HETATM   35  C   UNL     1     -45.155  57.751 -54.760  1.00  0.00     0.051 A 
HETATM   36  C   UNL     1     -43.502  60.028 -54.643  1.00  0.00     0.033 A 
HETATM   37  N   UNL     1     -44.611  60.587 -56.829  1.00  0.00    -0.365 N 
HETATM   38  C   UNL     1     -43.469  59.065 -53.626  1.00  0.00     0.039 A 
HETATM   39  C   UNL     1     -44.283  57.936 -53.677  1.00  0.00     0.069 A 
HETATM   40  H   UNL     1     -44.127  61.452 -57.040  1.00  0.00     0.165 HD
HETATM   41  C   UNL     1     -45.573  60.002 -57.612  1.00  0.00     0.096 A 
BRANCH  39  42
HETATM   42  O   UNL     1     -44.333  56.937 -52.742  1.00  0.00    -0.356 OA
HETATM   43  C   UNL     1     -44.414  57.335 -51.378  1.00  0.00     0.210 C 
ENDBRANCH  39  42
ENDBRANCH  31  32
ENDBRANCH  30  31
ENDBRANCH  27  30
ENDBRANCH  26  27
ENDBRANCH  23  26
ENDBRANCH   1  23
TORSDOF 13
ENDMDL
MODEL 2
REMARK VINA RESULT:      -8.2      2.793      8.385
REMARK  13 active torsions:
REMARK  status: ('A' for Active; 'I' for Inactive)
REMARK    1  A    between atoms: O_2  and  C_3 
REMARK    2  A    between atoms: C_6  and  C_7 
REMARK    3  A    between atoms: C_7  and  C_8 
REMARK    4  A    between atoms: C_9  and  C_10 
REMARK    5  A    between atoms: N_17  and  C_18 
REMARK    6  A    between atoms: C_18  and  C_19 
REMARK    7  A    between atoms: C_19  and  O_20 
REMARK    8  A    between atoms: C_19  and  C_21 
REMARK    9  A    between atoms: C_21  and  N_22 
REMARK   10  A    between atoms: N_22  and  C_25 
REMARK   11  A    between atoms: C_25  and  C_26 
REMARK   12  A    between atoms: C_26  and  C_27 
REMARK   13  A    between atoms: C_32  and  O_33 
ROOT
HETATM    1  C   UNL     1     -44.430  60.812 -51.251  1.00  0.00     0.162 C 
ENDROOT
BRANCH   1   2
HETATM    2  N   UNL     1     -43.275  60.368 -52.016  1.00  0.00    -0.353 N 
HETATM    3  C   UNL     1     -42.055  60.009 -51.483  1.00  0.00     0.045 A 
HETATM    4  C   UNL     1     -41.258  59.563 -52.548  1.00  0.00     0.002 A 
HETATM    5  C   UNL     1     -41.591  60.017 -50.154  1.00  0.00     0.030 A 
HETATM    6  C   UNL     1     -42.033  59.716 -53.742  1.00  0.00    -0.008 A 
HETATM    7  C   UNL     1     -39.965  59.075 -52.245  1.00  0.00     0.014 A 
HETATM    8  C   UNL     1     -43.269  60.205 -53.374  1.00  0.00     0.103 A 
HETATM    9  C   UNL     1     -39.498  59.083 -50.927  1.00  0.00     0.001 A 
HETATM   10  C   UNL     1     -40.301  59.554 -49.897  1.00  0.00     0.002 A 
BRANCH   6  11
HETATM   11  C   UNL     1     -41.713  59.430 -55.107  1.00  0.00     0.018 C 
HETATM   12  C   UNL     1     -42.489  59.667 -56.176  1.00  0.00     0.056 C 
BRANCH  12  13
HETATM   13  C   UNL     1     -41.988  59.335 -57.539  1.00  0.00     0.182 C 
HETATM   14  O   UNL     1     -41.189  60.065 -58.120  1.00  0.00    -0.288 OA
BRANCH  13  15
HETATM   15  C   UNL     1     -42.530  58.126 -58.224  1.00  0.00     0.014 A 
HETATM   16  C   UNL     1     -42.697  56.891 -57.588  1.00  0.00     0.018 A 
HETATM   17  C   UNL     1     -43.253  55.813 -58.287  1.00  0.00     0.037 A 
HETATM   18  C   UNL     1     -43.641  55.946 -59.621  1.00  0.00     0.068 A 
HETATM   19  C   UNL     1     -43.444  57.164 -60.269  1.00  0.00     0.037 A 
HETATM   20  C   UNL     1     -42.889  58.247 -59.574  1.00  0.00     0.018 A 
BRANCH  18  21
HETATM   21  O   UNL     1     -44.185  54.820 -60.172  1.00  0.00    -0.356 OA
HETATM   22  C   UNL     1     -45.108  55.006 -61.238  1.00  0.00     0.210 C 
ENDBRANCH  18  21
ENDBRANCH  13  15
ENDBRANCH  12  13
ENDBRANCH   6  11
ENDBRANCH   1   2
BRANCH   1  23
HETATM   23  C   UNL     1     -44.969  59.707 -50.329  1.00  0.00     0.162 C 
BRANCH  23  24
HETATM   24  O   UNL     1     -46.216  60.093 -49.745  1.00  0.00    -0.392 OA
HETATM   25  H   UNL     1     -46.042  60.646 -48.953  1.00  0.00     0.210 HD
ENDBRANCH  23  24
BRANCH  23  26
HETATM   26  C   UNL     1     -45.256  58.406 -51.103  1.00  0.00     0.265 C 
BRANCH  26  27
HETATM   27  N   UNL     1     -44.300  57.297 -50.775  1.00  0.00    -0.072 N 
HETATM   28  H   UNL     1     -43.561  57.604 -50.129  1.00  0.00     0.277 HD
HETATM   29  H   UNL     1     -44.817  56.551 -50.288  1.00  0.00     0.277 HD
BRANCH  27  30
HETATM   30  C   UNL     1     -43.648  56.658 -51.979  1.00  0.00     0.237 C 
BRANCH  30  31
HETATM   31  C   UNL     1     -42.191  56.284 -51.701  1.00  0.00     0.068 C 
BRANCH  31  32
HETATM   32  C   UNL     1     -41.593  55.514 -52.828  1.00  0.00    -0.029 A 
HETATM   33  C   UNL     1     -41.019  54.203 -52.755  1.00  0.00     0.001 A 
HETATM   34  C   UNL     1     -40.587  53.866 -54.036  1.00  0.00     0.043 A 
HETATM   35  C   UNL     1     -40.828  53.268 -51.718  1.00  0.00     0.051 A 
HETATM   36  C   UNL     1     -39.970  52.644 -54.326  1.00  0.00     0.033 A 
HETATM   37  N   UNL     1     -40.895  54.919 -54.862  1.00  0.00    -0.365 N 
HETATM   38  C   UNL     1     -39.786  51.737 -53.274  1.00  0.00     0.039 A 
HETATM   39  C   UNL     1     -40.209  52.037 -51.982  1.00  0.00     0.069 A 
HETATM   40  H   UNL     1     -40.710  54.939 -55.858  1.00  0.00     0.165 HD
HETATM   41  C   UNL     1     -41.495  55.922 -54.144  1.00  0.00     0.096 A 
BRANCH  39  42
HETATM   42  O   UNL     1     -40.080  51.230 -50.884  1.00  0.00    -0.356 OA
HETATM   43  C   UNL     1     -39.302  50.049 -51.042  1.00  0.00     0.210 C 
ENDBRANCH  39  42
ENDBRANCH  31  32
ENDBRANCH  30  31
ENDBRANCH  27  30
ENDBRANCH  26  27
ENDBRANCH  23  26
ENDBRANCH   1  23
TORSDOF 13
ENDMDL
MODEL 3
REMARK VINA RESULT:      -8.1      3.432      8.375
REMARK  13 active torsions:
REMARK  status: ('A' for Active; 'I' for Inactive)
REMARK    1  A    between atoms: O_2  and  C_3 
REMARK    2  A    between atoms: C_6  and  C_7 
REMARK    3  A    between atoms: C_7  and  C_8 
REMARK    4  A    between atoms: C_9  and  C_10 
REMARK    5  A    between atoms: N_17  and  C_18 
REMARK    6  A    between atoms: C_18  and  C_19 
REMARK    7  A    between atoms: C_19  and  O_20 
REMARK    8  A    between atoms: C_19  and  C_21 
REMARK    9  A    between atoms: C_21  and  N_22 
REMARK   10  A    between atoms: N_22  and  C_25 
REMARK   11  A    between atoms: C_25  and  C_26 
REMARK   12  A    between atoms: C_26  and  C_27 
REMARK   13  A    between atoms: C_32  and  O_33 
ROOT
HETATM    1  C   UNL     1     -39.850  53.711 -50.386  1.00  0.00     0.162 C 
ENDROOT
BRANCH   1   2
HETATM    2  N   UNL     1     -40.119  53.394 -51.781  1.00  0.00    -0.353 N 
HETATM    3  C   UNL     1     -39.977  52.149 -52.357  1.00  0.00     0.045 A 
HETATM    4  C   UNL     1     -40.422  52.259 -53.683  1.00  0.00     0.002 A 
HETATM    5  C   UNL     1     -39.517  50.932 -51.822  1.00  0.00     0.030 A 
HETATM    6  C   UNL     1     -40.789  53.628 -53.889  1.00  0.00    -0.008 A 
HETATM    7  C   UNL     1     -40.434  51.087 -54.474  1.00  0.00     0.014 A 
HETATM    8  C   UNL     1     -40.597  54.292 -52.694  1.00  0.00     0.103 A 
HETATM    9  C   UNL     1     -39.976  49.875 -53.948  1.00  0.00     0.001 A 
HETATM   10  C   UNL     1     -39.517  49.802 -52.640  1.00  0.00     0.002 A 
BRANCH   6  11
HETATM   11  C   UNL     1     -41.293  54.296 -55.049  1.00  0.00     0.018 C 
HETATM   12  C   UNL     1     -42.556  54.706 -55.249  1.00  0.00     0.056 C 
BRANCH  12  13
HETATM   13  C   UNL     1     -42.910  55.419 -56.508  1.00  0.00     0.182 C 
HETATM   14  O   UNL     1     -43.380  54.817 -57.470  1.00  0.00    -0.288 OA
BRANCH  13  15
HETATM   15  C   UNL     1     -42.618  56.878 -56.609  1.00  0.00     0.014 A 
HETATM   16  C   UNL     1     -42.550  57.728 -55.499  1.00  0.00     0.018 A 
HETATM   17  C   UNL     1     -42.227  59.079 -55.671  1.00  0.00     0.037 A 
HETATM   18  C   UNL     1     -41.979  59.602 -56.941  1.00  0.00     0.068 A 
HETATM   19  C   UNL     1     -42.080  58.767 -58.053  1.00  0.00     0.037 A 
HETATM   20  C   UNL     1     -42.401  57.413 -57.887  1.00  0.00     0.018 A 
BRANCH  18  21
HETATM   21  O   UNL     1     -41.658  60.930 -56.959  1.00  0.00    -0.356 OA
HETATM   22  C   UNL     1     -41.151  61.455 -58.180  1.00  0.00     0.210 C 
ENDBRANCH  18  21
ENDBRANCH  13  15
ENDBRANCH  12  13
ENDBRANCH   6  11
ENDBRANCH   1   2
BRANCH   1  23
HETATM   23  C   UNL     1     -41.138  54.020 -49.607  1.00  0.00     0.162 C 
BRANCH  23  24
HETATM   24  O   UNL     1     -41.063  53.512 -48.273  1.00  0.00    -0.392 OA
HETATM   25  H   UNL     1     -41.271  52.553 -48.283  1.00  0.00     0.210 HD
ENDBRANCH  23  24
BRANCH  23  26
HETATM   26  C   UNL     1     -41.370  55.537 -49.463  1.00  0.00     0.265 C 
BRANCH  26  27
HETATM   27  N   UNL     1     -40.311  56.365 -50.130  1.00  0.00    -0.072 N 
HETATM   28  H   UNL     1     -39.456  56.426 -49.563  1.00  0.00     0.277 HD
HETATM   29  H   UNL     1     -40.041  55.905 -51.011  1.00  0.00     0.277 HD
BRANCH  27  30
HETATM   30  C   UNL     1     -40.748  57.766 -50.489  1.00  0.00     0.237 C 
BRANCH  30  31
HETATM   31  C   UNL     1     -41.403  57.816 -51.871  1.00  0.00     0.068 C 
BRANCH  31  32
HETATM   32  C   UNL     1     -42.889  57.867 -51.778  1.00  0.00    -0.029 A 
HETATM   33  C   UNL     1     -43.679  58.992 -51.373  1.00  0.00     0.001 A 
HETATM   34  C   UNL     1     -45.016  58.605 -51.433  1.00  0.00     0.043 A 
HETATM   35  C   UNL     1     -43.382  60.307 -50.963  1.00  0.00     0.051 A 
HETATM   36  C   UNL     1     -46.067  59.467 -51.099  1.00  0.00     0.033 A 
HETATM   37  N   UNL     1     -45.046  57.302 -51.870  1.00  0.00    -0.365 N 
HETATM   38  C   UNL     1     -45.741  60.766 -50.687  1.00  0.00     0.039 A 
HETATM   39  C   UNL     1     -44.417  61.190 -50.618  1.00  0.00     0.069 A 
HETATM   40  H   UNL     1     -45.893  56.770 -52.025  1.00  0.00     0.165 HD
HETATM   41  C   UNL     1     -43.770  56.844 -52.073  1.00  0.00     0.096 A 
BRANCH  39  42
HETATM   42  O   UNL     1     -43.987  62.431 -50.231  1.00  0.00    -0.356 OA
HETATM   43  C   UNL     1     -44.883  63.204 -49.441  1.00  0.00     0.210 C 
ENDBRANCH  39  42
ENDBRANCH  31  32
ENDBRANCH  30  31
ENDBRANCH  27  30
ENDBRANCH  26  27
ENDBRANCH  23  26
ENDBRANCH   1  23
TORSDOF 13
ENDMDL
MODEL 4
REMARK VINA RESULT:      -8.1      3.067      8.473
REMARK  13 active torsions:
REMARK  status: ('A' for Active; 'I' for Inactive)
REMARK    1  A    between atoms: O_2  and  C_3 
REMARK    2  A    between atoms: C_6  and  C_7 
REMARK    3  A    between atoms: C_7  and  C_8 
REMARK    4  A    between atoms: C_9  and  C_10 
REMARK    5  A    between atoms: N_17  and  C_18 
REMARK    6  A    between atoms: C_18  and  C_19 
REMARK    7  A    between atoms: C_19  and  O_20 
REMARK    8  A    between atoms: C_19  and  C_21 
REMARK    9  A    between atoms: C_21  and  N_22 
REMARK   10  A    between atoms: N_22  and  C_25 
REMARK   11  A    between atoms: C_25  and  C_26 
REMARK   12  A    between atoms: C_26  and  C_27 
REMARK   13  A    between atoms: C_32  and  O_33 
ROOT
HETATM    1  C   UNL     1     -44.459  60.104 -51.197  1.00  0.00     0.162 C 
ENDROOT
BRANCH   1   2
HETATM    2  N   UNL     1     -43.285  59.898 -52.031  1.00  0.00    -0.353 N 
HETATM    3  C   UNL     1     -42.003  59.689 -51.567  1.00  0.00     0.045 A 
HETATM    4  C   UNL     1     -41.196  59.449 -52.689  1.00  0.00     0.002 A 
HETATM    5  C   UNL     1     -41.489  59.667 -50.257  1.00  0.00     0.030 A 
HETATM    6  C   UNL     1     -42.035  59.572 -53.843  1.00  0.00    -0.008 A 
HETATM    7  C   UNL     1     -39.833  59.141 -52.467  1.00  0.00     0.014 A 
HETATM    8  C   UNL     1     -43.314  59.840 -53.397  1.00  0.00     0.103 A 
HETATM    9  C   UNL     1     -39.316  59.121 -51.168  1.00  0.00     0.001 A 
HETATM   10  C   UNL     1     -40.135  59.387 -50.078  1.00  0.00     0.002 A 
BRANCH   6  11
HETATM   11  C   UNL     1     -41.735  59.440 -55.235  1.00  0.00     0.018 C 
HETATM   12  C   UNL     1     -42.320  60.104 -56.244  1.00  0.00     0.056 C 
BRANCH  12  13
HETATM   13  C   UNL     1     -41.864  59.870 -57.644  1.00  0.00     0.182 C 
HETATM   14  O   UNL     1     -41.056  60.620 -58.184  1.00  0.00    -0.288 OA
BRANCH  13  15
HETATM   15  C   UNL     1     -42.462  58.738 -58.409  1.00  0.00     0.014 A 
HETATM   16  C   UNL     1     -43.777  58.294 -58.225  1.00  0.00     0.018 A 
HETATM   17  C   UNL     1     -44.280  57.254 -59.014  1.00  0.00     0.037 A 
HETATM   18  C   UNL     1     -43.487  56.638 -59.984  1.00  0.00     0.068 A 
HETATM   19  C   UNL     1     -42.166  57.054 -60.146  1.00  0.00     0.037 A 
HETATM   20  C   UNL     1     -41.657  58.096 -59.361  1.00  0.00     0.018 A 
BRANCH  18  21
HETATM   21  O   UNL     1     -44.112  55.651 -60.691  1.00  0.00    -0.356 OA
HETATM   22  C   UNL     1     -45.462  55.365 -60.342  1.00  0.00     0.210 C 
ENDBRANCH  18  21
ENDBRANCH  13  15
ENDBRANCH  12  13
ENDBRANCH   6  11
ENDBRANCH   1   2
BRANCH   1  23
HETATM   23  C   UNL     1     -44.877  58.820 -50.464  1.00  0.00     0.162 C 
BRANCH  23  24
HETATM   24  O   UNL     1     -45.944  59.078 -49.548  1.00  0.00    -0.392 OA
HETATM   25  H   UNL     1     -45.596  59.042 -48.632  1.00  0.00     0.210 HD
ENDBRANCH  23  24
BRANCH  23  26
HETATM   26  C   UNL     1     -45.414  57.754 -51.439  1.00  0.00     0.265 C 
BRANCH  26  27
HETATM   27  N   UNL     1     -44.375  56.757 -51.860  1.00  0.00    -0.072 N 
HETATM   28  H   UNL     1     -44.730  56.108 -52.575  1.00  0.00     0.277 HD
HETATM   29  H   UNL     1     -43.591  57.264 -52.295  1.00  0.00     0.277 HD
BRANCH  27  30
HETATM   30  C   UNL     1     -43.790  55.948 -50.726  1.00  0.00     0.237 C 
BRANCH  30  31
HETATM   31  C   UNL     1     -42.273  56.117 -50.635  1.00  0.00     0.068 C 
BRANCH  31  32
HETATM   32  C   UNL     1     -41.554  54.860 -50.986  1.00  0.00    -0.029 A 
HETATM   33  C   UNL     1     -41.261  54.386 -52.305  1.00  0.00     0.001 A 
HETATM   34  C   UNL     1     -40.576  53.180 -52.173  1.00  0.00     0.043 A 
HETATM   35  C   UNL     1     -41.513  54.872 -53.605  1.00  0.00     0.051 A 
HETATM   36  C   UNL     1     -40.136  52.437 -53.274  1.00  0.00     0.033 A 
HETATM   37  N   UNL     1     -40.441  52.932 -50.828  1.00  0.00    -0.365 N 
HETATM   38  C   UNL     1     -40.406  52.940 -54.554  1.00  0.00     0.039 A 
HETATM   39  C   UNL     1     -41.086  54.144 -54.725  1.00  0.00     0.069 A 
HETATM   40  H   UNL     1     -39.964  52.128 -50.439  1.00  0.00     0.165 HD
HETATM   41  C   UNL     1     -41.034  53.933 -50.102  1.00  0.00     0.096 A 
BRANCH  39  42
HETATM   42  O   UNL     1     -41.403  54.726 -55.923  1.00  0.00    -0.356 OA
HETATM   43  C   UNL     1     -42.748  55.156 -56.094  1.00  0.00     0.210 C 
ENDBRANCH  39  42
ENDBRANCH  31  32
ENDBRANCH  30  31
ENDBRANCH  27  30
ENDBRANCH  26  27
ENDBRANCH  23  26
ENDBRANCH   1  23
TORSDOF 13
ENDMDL
MODEL 5
REMARK VINA RESULT:      -8.1      2.214      4.658
REMARK  13 active torsions:
REMARK  status: ('A' for Active; 'I' for Inactive)
REMARK    1  A    between atoms: O_2  and  C_3 
REMARK    2  A    between atoms: C_6  and  C_7 
REMARK    3  A    between atoms: C_7  and  C_8 
REMARK    4  A    between atoms: C_9  and  C_10 
REMARK    5  A    between atoms: N_17  and  C_18 
REMARK    6  A    between atoms: C_18  and  C_19 
REMARK    7  A    between atoms: C_19  and  O_20 
REMARK    8  A    between atoms: C_19  and  C_21 
REMARK    9  A    between atoms: C_21  and  N_22 
REMARK   10  A    between atoms: N_22  and  C_25 
REMARK   11  A    between atoms: C_25  and  C_26 
REMARK   12  A    between atoms: C_26  and  C_27 
REMARK   13  A    between atoms: C_32  and  O_33 
ROOT
HETATM    1  C   UNL     1     -42.155  60.143 -58.703  1.00  0.00     0.162 C 
ENDROOT
BRANCH   1   2
HETATM    2  N   UNL     1     -42.445  58.850 -58.102  1.00  0.00    -0.353 N 
HETATM    3  C   UNL     1     -42.967  57.760 -58.766  1.00  0.00     0.045 A 
HETATM    4  C   UNL     1     -43.005  56.701 -57.847  1.00  0.00     0.002 A 
HETATM    5  C   UNL     1     -43.386  57.608 -60.101  1.00  0.00     0.030 A 
HETATM    6  C   UNL     1     -42.534  57.214 -56.597  1.00  0.00    -0.008 A 
HETATM    7  C   UNL     1     -43.449  55.441 -58.312  1.00  0.00     0.014 A 
HETATM    8  C   UNL     1     -42.190  58.536 -56.795  1.00  0.00     0.103 A 
HETATM    9  C   UNL     1     -43.869  55.284 -59.637  1.00  0.00     0.001 A 
HETATM   10  C   UNL     1     -43.843  56.357 -60.517  1.00  0.00     0.002 A 
BRANCH   6  11
HETATM   11  C   UNL     1     -42.375  56.579 -55.325  1.00  0.00     0.018 C 
HETATM   12  C   UNL     1     -43.297  55.849 -54.677  1.00  0.00     0.056 C 
BRANCH  12  13
HETATM   13  C   UNL     1     -42.957  55.226 -53.367  1.00  0.00     0.182 C 
HETATM   14  O   UNL     1     -43.400  55.677 -52.314  1.00  0.00    -0.288 OA
BRANCH  13  15
HETATM   15  C   UNL     1     -42.007  54.077 -53.347  1.00  0.00     0.014 A 
HETATM   16  C   UNL     1     -41.826  53.210 -54.431  1.00  0.00     0.018 A 
HETATM   17  C   UNL     1     -40.882  52.179 -54.351  1.00  0.00     0.037 A 
HETATM   18  C   UNL     1     -40.117  51.993 -53.198  1.00  0.00     0.068 A 
HETATM   19  C   UNL     1     -40.320  52.832 -52.104  1.00  0.00     0.037 A 
HETATM   20  C   UNL     1     -41.262  53.867 -52.178  1.00  0.00     0.018 A 
BRANCH  18  21
HETATM   21  O   UNL     1     -39.224  50.961 -53.267  1.00  0.00    -0.356 OA
HETATM   22  C   UNL     1     -39.440  49.988 -54.282  1.00  0.00     0.210 C 
ENDBRANCH  18  21
ENDBRANCH  13  15
ENDBRANCH  12  13
ENDBRANCH   6  11
ENDBRANCH   1   2
BRANCH   1  23
HETATM   23  C   UNL     1     -41.608  61.146 -57.676  1.00  0.00     0.162 C 
BRANCH  23  24
HETATM   24  O   UNL     1     -40.317  61.622 -58.063  1.00  0.00    -0.392 OA
HETATM   25  H   UNL     1     -40.426  62.371 -58.688  1.00  0.00     0.210 HD
ENDBRANCH  23  24
BRANCH  23  26
HETATM   26  C   UNL     1     -42.500  62.399 -57.569  1.00  0.00     0.265 C 
BRANCH  26  27
HETATM   27  N   UNL     1     -42.908  62.720 -56.161  1.00  0.00    -0.072 N 
HETATM   28  H   UNL     1     -42.123  63.087 -55.608  1.00  0.00     0.277 HD
HETATM   29  H   UNL     1     -43.616  63.467 -56.187  1.00  0.00     0.277 HD
BRANCH  27  30
HETATM   30  C   UNL     1     -43.525  61.563 -55.411  1.00  0.00     0.237 C 
BRANCH  30  31
HETATM   31  C   UNL     1     -45.037  61.491 -55.629  1.00  0.00     0.068 C 
BRANCH  31  32
HETATM   32  C   UNL     1     -45.477  60.117 -56.002  1.00  0.00    -0.029 A 
HETATM   33  C   UNL     1     -45.927  59.688 -57.293  1.00  0.00     0.001 A 
HETATM   34  C   UNL     1     -46.233  58.332 -57.197  1.00  0.00     0.043 A 
HETATM   35  C   UNL     1     -46.102  60.326 -58.537  1.00  0.00     0.051 A 
HETATM   36  C   UNL     1     -46.708  57.587 -58.283  1.00  0.00     0.033 A 
HETATM   37  N   UNL     1     -45.968  57.942 -55.907  1.00  0.00    -0.365 N 
HETATM   38  C   UNL     1     -46.879  58.249 -59.506  1.00  0.00     0.039 A 
HETATM   39  C   UNL     1     -46.580  59.603 -59.640  1.00  0.00     0.069 A 
HETATM   40  H   UNL     1     -46.082  56.998 -55.558  1.00  0.00     0.165 HD
HETATM   41  C   UNL     1     -45.520  59.012 -55.174  1.00  0.00     0.096 A 
BRANCH  39  42
HETATM   42  O   UNL     1     -46.709  60.346 -60.783  1.00  0.00    -0.356 OA
HETATM   43  C   UNL     1     -45.521  60.601 -61.522  1.00  0.00     0.210 C 
ENDBRANCH  39  42
ENDBRANCH  31  32
ENDBRANCH  30  31
ENDBRANCH  27  30
ENDBRANCH  26  27
ENDBRANCH  23  26
ENDBRANCH   1  23
TORSDOF 13
ENDMDL
MODEL 6
REMARK VINA RESULT:      -7.8      1.581      2.398
REMARK  13 active torsions:
REMARK  status: ('A' for Active; 'I' for Inactive)
REMARK    1  A    between atoms: O_2  and  C_3 
REMARK    2  A    between atoms: C_6  and  C_7 
REMARK    3  A    between atoms: C_7  and  C_8 
REMARK    4  A    between atoms: C_9  and  C_10 
REMARK    5  A    between atoms: N_17  and  C_18 
REMARK    6  A    between atoms: C_18  and  C_19 
REMARK    7  A    between atoms: C_19  and  O_20 
REMARK    8  A    between atoms: C_19  and  C_21 
REMARK    9  A    between atoms: C_21  and  N_22 
REMARK   10  A    between atoms: N_22  and  C_25 
REMARK   11  A    between atoms: C_25  and  C_26 
REMARK   12  A    between atoms: C_26  and  C_27 
REMARK   13  A    between atoms: C_32  and  O_33 
ROOT
HETATM    1  C   UNL     1     -44.416  54.895 -59.846  1.00  0.00     0.162 C 
ENDROOT
BRANCH   1   2
HETATM    2  N   UNL     1     -43.630  55.704 -58.927  1.00  0.00    -0.353 N 
HETATM    3  C   UNL     1     -43.142  56.966 -59.192  1.00  0.00     0.045 A 
HETATM    4  C   UNL     1     -42.523  57.421 -58.018  1.00  0.00     0.002 A 
HETATM    5  C   UNL     1     -43.212  57.756 -60.354  1.00  0.00     0.030 A 
HETATM    6  C   UNL     1     -42.617  56.362 -57.058  1.00  0.00    -0.008 A 
HETATM    7  C   UNL     1     -41.993  58.732 -58.017  1.00  0.00     0.014 A 
HETATM    8  C   UNL     1     -43.312  55.327 -57.651  1.00  0.00     0.103 A 
HETATM    9  C   UNL     1     -42.056  59.521 -59.170  1.00  0.00     0.001 A 
HETATM   10  C   UNL     1     -42.653  59.034 -60.325  1.00  0.00     0.002 A 
BRANCH   6  11
HETATM   11  C   UNL     1     -42.148  56.278 -55.710  1.00  0.00     0.018 C 
HETATM   12  C   UNL     1     -42.214  55.206 -54.906  1.00  0.00     0.056 C 
BRANCH  12  13
HETATM   13  C   UNL     1     -41.647  55.278 -53.530  1.00  0.00     0.182 C 
HETATM   14  O   UNL     1     -41.701  56.314 -52.873  1.00  0.00    -0.288 OA
BRANCH  13  15
HETATM   15  C   UNL     1     -40.944  54.081 -52.983  1.00  0.00     0.014 A 
HETATM   16  C   UNL     1     -40.709  53.884 -51.618  1.00  0.00     0.018 A 
HETATM   17  C   UNL     1     -40.082  52.713 -51.178  1.00  0.00     0.037 A 
HETATM   18  C   UNL     1     -39.673  51.733 -52.085  1.00  0.00     0.068 A 
HETATM   19  C   UNL     1     -39.873  51.942 -53.449  1.00  0.00     0.037 A 
HETATM   20  C   UNL     1     -40.503  53.111 -53.894  1.00  0.00     0.018 A 
BRANCH  18  21
HETATM   21  O   UNL     1     -39.091  50.635 -51.516  1.00  0.00    -0.356 OA
HETATM   22  C   UNL     1     -39.863  49.921 -50.558  1.00  0.00     0.210 C 
ENDBRANCH  18  21
ENDBRANCH  13  15
ENDBRANCH  12  13
ENDBRANCH   6  11
ENDBRANCH   1   2
BRANCH   1  23
HETATM   23  C   UNL     1     -45.131  55.753 -60.901  1.00  0.00     0.162 C 
BRANCH  23  24
HETATM   24  O   UNL     1     -45.180  55.077 -62.160  1.00  0.00    -0.392 OA
HETATM   25  H   UNL     1     -44.375  54.527 -62.261  1.00  0.00     0.210 HD
ENDBRANCH  23  24
BRANCH  23  26
HETATM   26  C   UNL     1     -46.598  56.028 -60.517  1.00  0.00     0.265 C 
BRANCH  26  27
HETATM   27  N   UNL     1     -47.140  57.294 -61.111  1.00  0.00    -0.072 N 
HETATM   28  H   UNL     1     -47.064  57.302 -62.136  1.00  0.00     0.277 HD
HETATM   29  H   UNL     1     -48.146  57.353 -60.896  1.00  0.00     0.277 HD
BRANCH  27  30
HETATM   30  C   UNL     1     -46.508  58.557 -60.574  1.00  0.00     0.237 C 
BRANCH  30  31
HETATM   31  C   UNL     1     -47.315  59.143 -59.414  1.00  0.00     0.068 C 
BRANCH  31  32
HETATM   32  C   UNL     1     -46.707  58.811 -58.094  1.00  0.00    -0.029 A 
HETATM   33  C   UNL     1     -45.746  59.594 -57.378  1.00  0.00     0.001 A 
HETATM   34  C   UNL     1     -45.455  58.918 -56.195  1.00  0.00     0.043 A 
HETATM   35  C   UNL     1     -45.094  60.820 -57.623  1.00  0.00     0.051 A 
HETATM   36  C   UNL     1     -44.544  59.404 -55.251  1.00  0.00     0.033 A 
HETATM   37  N   UNL     1     -46.217  57.774 -56.179  1.00  0.00    -0.365 N 
HETATM   38  C   UNL     1     -43.905  60.622 -55.525  1.00  0.00     0.039 A 
HETATM   39  C   UNL     1     -44.173  61.328 -56.695  1.00  0.00     0.069 A 
HETATM   40  H   UNL     1     -46.222  57.099 -55.425  1.00  0.00     0.165 HD
HETATM   41  C   UNL     1     -46.970  57.695 -57.323  1.00  0.00     0.096 A 
BRANCH  39  42
HETATM   42  O   UNL     1     -43.610  62.521 -57.062  1.00  0.00    -0.356 OA
HETATM   43  C   UNL     1     -43.619  63.562 -56.093  1.00  0.00     0.210 C 
ENDBRANCH  39  42
ENDBRANCH  31  32
ENDBRANCH  30  31
ENDBRANCH  27  30
ENDBRANCH  26  27
ENDBRANCH  23  26
ENDBRANCH   1  23
TORSDOF 13
ENDMDL
MODEL 7
REMARK VINA RESULT:      -7.8      2.728      8.131
REMARK  13 active torsions:
REMARK  status: ('A' for Active; 'I' for Inactive)
REMARK    1  A    between atoms: O_2  and  C_3 
REMARK    2  A    between atoms: C_6  and  C_7 
REMARK    3  A    between atoms: C_7  and  C_8 
REMARK    4  A    between atoms: C_9  and  C_10 
REMARK    5  A    between atoms: N_17  and  C_18 
REMARK    6  A    between atoms: C_18  and  C_19 
REMARK    7  A    between atoms: C_19  and  O_20 
REMARK    8  A    between atoms: C_19  and  C_21 
REMARK    9  A    between atoms: C_21  and  N_22 
REMARK   10  A    between atoms: N_22  and  C_25 
REMARK   11  A    between atoms: C_25  and  C_26 
REMARK   12  A    between atoms: C_26  and  C_27 
REMARK   13  A    between atoms: C_32  and  O_33 
ROOT
HETATM    1  C   UNL     1     -43.510  54.994 -51.485  1.00  0.00     0.162 C 
ENDROOT
BRANCH   1   2
HETATM    2  N   UNL     1     -42.966  54.594 -52.774  1.00  0.00    -0.353 N 
HETATM    3  C   UNL     1     -41.877  53.769 -52.959  1.00  0.00     0.045 A 
HETATM    4  C   UNL     1     -41.746  53.569 -54.341  1.00  0.00     0.002 A 
HETATM    5  C   UNL     1     -41.010  53.164 -52.030  1.00  0.00     0.030 A 
HETATM    6  C   UNL     1     -42.768  54.346 -54.976  1.00  0.00    -0.008 A 
HETATM    7  C   UNL     1     -40.726  52.697 -54.788  1.00  0.00     0.014 A 
HETATM    8  C   UNL     1     -43.503  54.954 -53.979  1.00  0.00     0.103 A 
HETATM    9  C   UNL     1     -39.859  52.094 -53.870  1.00  0.00     0.001 A 
HETATM   10  C   UNL     1     -39.998  52.332 -52.509  1.00  0.00     0.002 A 
BRANCH   6  11
HETATM   11  C   UNL     1     -43.087  54.519 -56.359  1.00  0.00     0.018 C 
HETATM   12  C   UNL     1     -43.118  55.680 -57.032  1.00  0.00     0.056 C 
BRANCH  12  13
HETATM   13  C   UNL     1     -43.441  55.682 -58.487  1.00  0.00     0.182 C 
HETATM   14  O   UNL     1     -43.765  54.650 -59.068  1.00  0.00    -0.288 OA
BRANCH  13  15
HETATM   15  C   UNL     1     -43.297  56.956 -59.249  1.00  0.00     0.014 A 
HETATM   16  C   UNL     1     -42.061  57.553 -59.522  1.00  0.00     0.018 A 
HETATM   17  C   UNL     1     -42.005  58.728 -60.282  1.00  0.00     0.037 A 
HETATM   18  C   UNL     1     -43.169  59.325 -60.769  1.00  0.00     0.068 A 
HETATM   19  C   UNL     1     -44.404  58.753 -60.468  1.00  0.00     0.037 A 
HETATM   20  C   UNL     1     -44.467  57.576 -59.710  1.00  0.00     0.018 A 
BRANCH  18  21
HETATM   21  O   UNL     1     -42.965  60.455 -61.509  1.00  0.00    -0.356 OA
HETATM   22  C   UNL     1     -43.773  61.583 -61.200  1.00  0.00     0.210 C 
ENDBRANCH  18  21
ENDBRANCH  13  15
ENDBRANCH  12  13
ENDBRANCH   6  11
ENDBRANCH   1   2
BRANCH   1  23
HETATM   23  C   UNL     1     -43.426  56.513 -51.271  1.00  0.00     0.162 C 
BRANCH  23  24
HETATM   24  O   UNL     1     -44.464  56.964 -50.397  1.00  0.00    -0.392 OA
HETATM   25  H   UNL     1     -45.317  56.575 -50.685  1.00  0.00     0.210 HD
ENDBRANCH  23  24
BRANCH  23  26
HETATM   26  C   UNL     1     -42.104  56.923 -50.593  1.00  0.00     0.265 C 
BRANCH  26  27
HETATM   27  N   UNL     1     -41.989  58.401 -50.360  1.00  0.00    -0.072 N 
HETATM   28  H   UNL     1     -42.852  58.797 -49.967  1.00  0.00     0.277 HD
HETATM   29  H   UNL     1     -41.252  58.567 -49.660  1.00  0.00     0.277 HD
BRANCH  27  30
HETATM   30  C   UNL     1     -41.610  59.199 -51.586  1.00  0.00     0.237 C 
BRANCH  30  31
HETATM   31  C   UNL     1     -42.555  60.382 -51.804  1.00  0.00     0.068 C 
BRANCH  31  32
HETATM   32  C   UNL     1     -43.578  60.088 -52.847  1.00  0.00    -0.029 A 
HETATM   33  C   UNL     1     -43.372  60.081 -54.264  1.00  0.00     0.001 A 
HETATM   34  C   UNL     1     -44.588  59.753 -54.860  1.00  0.00     0.043 A 
HETATM   35  C   UNL     1     -42.263  60.322 -55.100  1.00  0.00     0.051 A 
HETATM   36  C   UNL     1     -44.748  59.659 -56.247  1.00  0.00     0.033 A 
HETATM   37  N   UNL     1     -45.498  59.552 -53.850  1.00  0.00    -0.365 N 
HETATM   38  C   UNL     1     -43.630  59.911 -57.054  1.00  0.00     0.039 A 
HETATM   39  C   UNL     1     -42.397  60.238 -56.494  1.00  0.00     0.069 A 
HETATM   40  H   UNL     1     -46.463  59.282 -53.994  1.00  0.00     0.165 HD
HETATM   41  C   UNL     1     -44.903  59.759 -52.632  1.00  0.00     0.096 A 
BRANCH  39  42
HETATM   42  O   UNL     1     -41.245  60.503 -57.183  1.00  0.00    -0.356 OA
HETATM   43  C   UNL     1     -41.278  61.593 -58.097  1.00  0.00     0.210 C 
ENDBRANCH  39  42
ENDBRANCH  31  32
ENDBRANCH  30  31
ENDBRANCH  27  30
ENDBRANCH  26  27
ENDBRANCH  23  26
ENDBRANCH   1  23
TORSDOF 13
ENDMDL
MODEL 8
REMARK VINA RESULT:      -7.7      1.745      4.236
REMARK  13 active torsions:
REMARK  status: ('A' for Active; 'I' for Inactive)
REMARK    1  A    between atoms: O_2  and  C_3 
REMARK    2  A    between atoms: C_6  and  C_7 
REMARK    3  A    between atoms: C_7  and  C_8 
REMARK    4  A    between atoms: C_9  and  C_10 
REMARK    5  A    between atoms: N_17  and  C_18 
REMARK    6  A    between atoms: C_18  and  C_19 
REMARK    7  A    between atoms: C_19  and  O_20 
REMARK    8  A    between atoms: C_19  and  C_21 
REMARK    9  A    between atoms: C_21  and  N_22 
REMARK   10  A    between atoms: N_22  and  C_25 
REMARK   11  A    between atoms: C_25  and  C_26 
REMARK   12  A    between atoms: C_26  and  C_27 
REMARK   13  A    between atoms: C_32  and  O_33 
ROOT
HETATM    1  C   UNL     1     -46.891  58.929 -57.574  1.00  0.00     0.162 C 
ENDROOT
BRANCH   1   2
HETATM    2  N   UNL     1     -45.844  58.998 -56.566  1.00  0.00    -0.353 N 
HETATM    3  C   UNL     1     -45.030  60.087 -56.334  1.00  0.00     0.045 A 
HETATM    4  C   UNL     1     -44.229  59.770 -55.227  1.00  0.00     0.002 A 
HETATM    5  C   UNL     1     -44.946  61.331 -56.986  1.00  0.00     0.030 A 
HETATM    6  C   UNL     1     -44.560  58.432 -54.839  1.00  0.00    -0.008 A 
HETATM    7  C   UNL     1     -43.342  60.764 -54.749  1.00  0.00     0.014 A 
HETATM    8  C   UNL     1     -45.563  57.995 -55.680  1.00  0.00     0.103 A 
HETATM    9  C   UNL     1     -43.253  62.001 -55.395  1.00  0.00     0.001 A 
HETATM   10  C   UNL     1     -44.041  62.276 -56.504  1.00  0.00     0.002 A 
BRANCH   6  11
HETATM   11  C   UNL     1     -44.046  57.609 -53.788  1.00  0.00     0.018 C 
HETATM   12  C   UNL     1     -43.853  56.282 -53.835  1.00  0.00     0.056 C 
BRANCH  12  13
HETATM   13  C   UNL     1     -43.276  55.577 -52.656  1.00  0.00     0.182 C 
HETATM   14  O   UNL     1     -43.595  55.886 -51.511  1.00  0.00    -0.288 OA
BRANCH  13  15
HETATM   15  C   UNL     1     -42.243  54.527 -52.887  1.00  0.00     0.014 A 
HETATM   16  C   UNL     1     -41.315  54.134 -51.915  1.00  0.00     0.018 A 
HETATM   17  C   UNL     1     -40.403  53.108 -52.194  1.00  0.00     0.037 A 
HETATM   18  C   UNL     1     -40.397  52.471 -53.436  1.00  0.00     0.068 A 
HETATM   19  C   UNL     1     -41.295  52.883 -54.418  1.00  0.00     0.037 A 
HETATM   20  C   UNL     1     -42.211  53.908 -54.144  1.00  0.00     0.018 A 
BRANCH  18  21
HETATM   21  O   UNL     1     -39.466  51.477 -53.562  1.00  0.00    -0.356 OA
HETATM   22  C   UNL     1     -39.842  50.336 -54.324  1.00  0.00     0.210 C 
ENDBRANCH  18  21
ENDBRANCH  13  15
ENDBRANCH  12  13
ENDBRANCH   6  11
ENDBRANCH   1   2
BRANCH   1  23
HETATM   23  C   UNL     1     -46.445  58.138 -58.814  1.00  0.00     0.162 C 
BRANCH  23  24
HETATM   24  O   UNL     1     -47.043  56.840 -58.834  1.00  0.00    -0.392 OA
HETATM   25  H   UNL     1     -48.003  56.926 -58.652  1.00  0.00     0.210 HD
ENDBRANCH  23  24
BRANCH  23  26
HETATM   26  C   UNL     1     -46.891  58.823 -60.120  1.00  0.00     0.265 C 
BRANCH  26  27
HETATM   27  N   UNL     1     -45.777  58.994 -61.111  1.00  0.00    -0.072 N 
HETATM   28  H   UNL     1     -45.226  58.133 -61.224  1.00  0.00     0.277 HD
HETATM   29  H   UNL     1     -46.188  59.196 -62.034  1.00  0.00     0.277 HD
BRANCH  27  30
HETATM   30  C   UNL     1     -44.832  60.131 -60.800  1.00  0.00     0.237 C 
BRANCH  30  31
HETATM   31  C   UNL     1     -43.369  59.696 -60.912  1.00  0.00     0.068 C 
BRANCH  31  32
HETATM   32  C   UNL     1     -42.834  59.214 -59.608  1.00  0.00    -0.029 A 
HETATM   33  C   UNL     1     -42.972  57.895 -59.066  1.00  0.00     0.001 A 
HETATM   34  C   UNL     1     -42.320  57.880 -57.835  1.00  0.00     0.043 A 
HETATM   35  C   UNL     1     -43.590  56.708 -59.509  1.00  0.00     0.051 A 
HETATM   36  C   UNL     1     -42.260  56.739 -57.026  1.00  0.00     0.033 A 
HETATM   37  N   UNL     1     -41.792  59.133 -57.637  1.00  0.00    -0.365 N 
HETATM   38  C   UNL     1     -42.890  55.576 -57.489  1.00  0.00     0.039 A 
HETATM   39  C   UNL     1     -43.548  55.552 -58.716  1.00  0.00     0.069 A 
HETATM   40  H   UNL     1     -41.246  59.403 -56.827  1.00  0.00     0.165 HD
HETATM   41  C   UNL     1     -42.102  59.948 -58.695  1.00  0.00     0.096 A 
BRANCH  39  42
HETATM   42  O   UNL     1     -44.194  54.475 -59.262  1.00  0.00    -0.356 OA
HETATM   43  C   UNL     1     -44.913  54.701 -60.469  1.00  0.00     0.210 C 
ENDBRANCH  39  42
ENDBRANCH  31  32
ENDBRANCH  30  31
ENDBRANCH  27  30
ENDBRANCH  26  27
ENDBRANCH  23  26
ENDBRANCH   1  23
TORSDOF 13
ENDMDL
MODEL 9
REMARK VINA RESULT:      -7.6      1.884      3.254
REMARK  13 active torsions:
REMARK  status: ('A' for Active; 'I' for Inactive)
REMARK    1  A    between atoms: O_2  and  C_3 
REMARK    2  A    between atoms: C_6  and  C_7 
REMARK    3  A    between atoms: C_7  and  C_8 
REMARK    4  A    between atoms: C_9  and  C_10 
REMARK    5  A    between atoms: N_17  and  C_18 
REMARK    6  A    between atoms: C_18  and  C_19 
REMARK    7  A    between atoms: C_19  and  O_20 
REMARK    8  A    between atoms: C_19  and  C_21 
REMARK    9  A    between atoms: C_21  and  N_22 
REMARK   10  A    between atoms: N_22  and  C_25 
REMARK   11  A    between atoms: C_25  and  C_26 
REMARK   12  A    between atoms: C_26  and  C_27 
REMARK   13  A    between atoms: C_32  and  O_33 
ROOT
HETATM    1  C   UNL     1     -42.584  59.642 -59.780  1.00  0.00     0.162 C 
ENDROOT
BRANCH   1   2
HETATM    2  N   UNL     1     -42.697  58.493 -58.894  1.00  0.00    -0.353 N 
HETATM    3  C   UNL     1     -43.289  57.290 -59.218  1.00  0.00     0.045 A 
HETATM    4  C   UNL     1     -43.104  56.435 -58.122  1.00  0.00     0.002 A 
HETATM    5  C   UNL     1     -43.949  56.873 -60.389  1.00  0.00     0.030 A 
HETATM    6  C   UNL     1     -42.424  57.190 -57.112  1.00  0.00    -0.008 A 
HETATM    7  C   UNL     1     -43.573  55.106 -58.236  1.00  0.00     0.014 A 
HETATM    8  C   UNL     1     -42.183  58.447 -57.627  1.00  0.00     0.103 A 
HETATM    9  C   UNL     1     -44.232  54.686 -59.396  1.00  0.00     0.001 A 
HETATM   10  C   UNL     1     -44.422  55.563 -60.456  1.00  0.00     0.002 A 
BRANCH   6  11
HETATM   11  C   UNL     1     -41.997  56.820 -55.798  1.00  0.00     0.018 C 
HETATM   12  C   UNL     1     -41.478  55.639 -55.429  1.00  0.00     0.056 C 
BRANCH  12  13
HETATM   13  C   UNL     1     -41.053  55.428 -54.017  1.00  0.00     0.182 C 
HETATM   14  O   UNL     1     -40.973  56.366 -53.229  1.00  0.00    -0.288 OA
BRANCH  13  15
HETATM   15  C   UNL     1     -40.657  54.055 -53.588  1.00  0.00     0.014 A 
HETATM   16  C   UNL     1     -40.638  53.643 -52.250  1.00  0.00     0.018 A 
HETATM   17  C   UNL     1     -40.297  52.323 -51.931  1.00  0.00     0.037 A 
HETATM   18  C   UNL     1     -39.963  51.405 -52.928  1.00  0.00     0.068 A 
HETATM   19  C   UNL     1     -39.947  51.822 -54.258  1.00  0.00     0.037 A 
HETATM   20  C   UNL     1     -40.290  53.141 -54.585  1.00  0.00     0.018 A 
BRANCH  18  21
HETATM   21  O   UNL     1     -39.669  50.151 -52.474  1.00  0.00    -0.356 OA
HETATM   22  C   UNL     1     -39.344  50.025 -51.095  1.00  0.00     0.210 C 
ENDBRANCH  18  21
ENDBRANCH  13  15
ENDBRANCH  12  13
ENDBRANCH   6  11
ENDBRANCH   1   2
BRANCH   1  23
HETATM   23  C   UNL     1     -42.075  60.890 -59.043  1.00  0.00     0.162 C 
BRANCH  23  24
HETATM   24  O   UNL     1     -41.111  61.592 -59.832  1.00  0.00    -0.392 OA
HETATM   25  H   UNL     1     -41.563  62.003 -60.599  1.00  0.00     0.210 HD
ENDBRANCH  23  24
BRANCH  23  26
HETATM   26  C   UNL     1     -43.209  61.899 -58.776  1.00  0.00     0.265 C 
BRANCH  26  27
HETATM   27  N   UNL     1     -44.513  61.508 -59.408  1.00  0.00    -0.072 N 
HETATM   28  H   UNL     1     -44.720  62.072 -60.243  1.00  0.00     0.277 HD
HETATM   29  H   UNL     1     -44.442  60.532 -59.729  1.00  0.00     0.277 HD
BRANCH  27  30
HETATM   30  C   UNL     1     -45.702  61.573 -58.478  1.00  0.00     0.237 C 
BRANCH  30  31
HETATM   31  C   UNL     1     -45.289  61.375 -57.018  1.00  0.00     0.068 C 
BRANCH  31  32
HETATM   32  C   UNL     1     -45.477  59.964 -56.577  1.00  0.00    -0.029 A 
HETATM   33  C   UNL     1     -45.018  59.387 -55.349  1.00  0.00     0.001 A 
HETATM   34  C   UNL     1     -45.412  58.050 -55.344  1.00  0.00     0.043 A 
HETATM   35  C   UNL     1     -44.303  59.876 -54.238  1.00  0.00     0.051 A 
HETATM   36  C   UNL     1     -45.123  57.182 -54.285  1.00  0.00     0.033 A 
HETATM   37  N   UNL     1     -46.097  57.821 -56.513  1.00  0.00    -0.365 N 
HETATM   38  C   UNL     1     -44.405  57.695 -53.196  1.00  0.00     0.039 A 
HETATM   39  C   UNL     1     -43.997  59.026 -53.165  1.00  0.00     0.069 A 
HETATM   40  H   UNL     1     -46.517  56.935 -56.767  1.00  0.00     0.165 HD
HETATM   41  C   UNL     1     -46.136  58.965 -57.268  1.00  0.00     0.096 A 
BRANCH  39  42
HETATM   42  O   UNL     1     -43.294  59.629 -52.157  1.00  0.00    -0.356 OA
HETATM   43  C   UNL     1     -42.545  58.778 -51.296  1.00  0.00     0.210 C 
ENDBRANCH  39  42
ENDBRANCH  31  32
ENDBRANCH  30  31
ENDBRANCH  27  30
ENDBRANCH  26  27
ENDBRANCH  23  26
ENDBRANCH   1  23
TORSDOF 13
ENDMDL
MODEL 10
REMARK VINA RESULT:      -7.6      2.309      6.105
REMARK  13 active torsions:
REMARK  status: ('A' for Active; 'I' for Inactive)
REMARK    1  A    between atoms: O_2  and  C_3 
REMARK    2  A    between atoms: C_6  and  C_7 
REMARK    3  A    between atoms: C_7  and  C_8 
REMARK    4  A    between atoms: C_9  and  C_10 
REMARK    5  A    between atoms: N_17  and  C_18 
REMARK    6  A    between atoms: C_18  and  C_19 
REMARK    7  A    between atoms: C_19  and  O_20 
REMARK    8  A    between atoms: C_19  and  C_21 
REMARK    9  A    between atoms: C_21  and  N_22 
REMARK   10  A    between atoms: N_22  and  C_25 
REMARK   11  A    between atoms: C_25  and  C_26 
REMARK   12  A    between atoms: C_26  and  C_27 
REMARK   13  A    between atoms: C_32  and  O_33 
ROOT
HETATM    1  C   UNL     1     -45.506  59.576 -51.404  1.00  0.00     0.162 C 
ENDROOT
BRANCH   1   2
HETATM    2  N   UNL     1     -44.295  58.855 -51.766  1.00  0.00    -0.353 N 
HETATM    3  C   UNL     1     -43.021  59.174 -51.345  1.00  0.00     0.045 A 
HETATM    4  C   UNL     1     -42.165  58.181 -51.846  1.00  0.00     0.002 A 
HETATM    5  C   UNL     1     -42.551  60.234 -50.549  1.00  0.00     0.030 A 
HETATM    6  C   UNL     1     -42.970  57.287 -52.623  1.00  0.00    -0.008 A 
HETATM    7  C   UNL     1     -40.797  58.252 -51.495  1.00  0.00     0.014 A 
HETATM    8  C   UNL     1     -44.275  57.729 -52.542  1.00  0.00     0.103 A 
HETATM    9  C   UNL     1     -40.323  59.306 -50.706  1.00  0.00     0.001 A 
HETATM   10  C   UNL     1     -41.191  60.287 -50.245  1.00  0.00     0.002 A 
BRANCH   6  11
HETATM   11  C   UNL     1     -42.617  56.115 -53.363  1.00  0.00     0.018 C 
HETATM   12  C   UNL     1     -41.424  55.852 -53.920  1.00  0.00     0.056 C 
BRANCH  12  13
HETATM   13  C   UNL     1     -41.213  54.562 -54.635  1.00  0.00     0.182 C 
HETATM   14  O   UNL     1     -41.519  54.431 -55.817  1.00  0.00    -0.288 OA
BRANCH  13  15
HETATM   15  C   UNL     1     -40.681  53.399 -53.867  1.00  0.00     0.014 A 
HETATM   16  C   UNL     1     -40.400  52.157 -54.448  1.00  0.00     0.018 A 
HETATM   17  C   UNL     1     -39.861  51.127 -53.669  1.00  0.00     0.037 A 
HETATM   18  C   UNL     1     -39.604  51.313 -52.309  1.00  0.00     0.068 A 
HETATM   19  C   UNL     1     -39.916  52.537 -51.719  1.00  0.00     0.037 A 
HETATM   20  C   UNL     1     -40.454  53.573 -52.494  1.00  0.00     0.018 A 
BRANCH  18  21
HETATM   21  O   UNL     1     -39.061  50.230 -51.677  1.00  0.00    -0.356 OA
HETATM   22  C   UNL     1     -39.811  49.666 -50.608  1.00  0.00     0.210 C 
ENDBRANCH  18  21
ENDBRANCH  13  15
ENDBRANCH  12  13
ENDBRANCH   6  11
ENDBRANCH   1   2
BRANCH   1  23
HETATM   23  C   UNL     1     -46.162  60.249 -52.620  1.00  0.00     0.162 C 
BRANCH  23  24
HETATM   24  O   UNL     1     -47.068  61.275 -52.209  1.00  0.00    -0.392 OA
HETATM   25  H   UNL     1     -47.927  60.867 -51.971  1.00  0.00     0.210 HD
ENDBRANCH  23  24
BRANCH  23  26
HETATM   26  C   UNL     1     -45.121  60.946 -53.518  1.00  0.00     0.265 C 
BRANCH  26  27
HETATM   27  N   UNL     1     -45.574  61.104 -54.939  1.00  0.00    -0.072 N 
HETATM   28  H   UNL     1     -46.522  60.735 -55.085  1.00  0.00     0.277 HD
HETATM   29  H   UNL     1     -45.619  62.110 -55.159  1.00  0.00     0.277 HD
BRANCH  27  30
HETATM   30  C   UNL     1     -44.653  60.479 -55.961  1.00  0.00     0.237 C 
BRANCH  30  31
HETATM   31  C   UNL     1     -45.261  59.213 -56.569  1.00  0.00     0.068 C 
BRANCH  31  32
HETATM   32  C   UNL     1     -44.210  58.260 -57.025  1.00  0.00    -0.029 A 
HETATM   33  C   UNL     1     -44.314  57.335 -58.115  1.00  0.00     0.001 A 
HETATM   34  C   UNL     1     -43.106  56.646 -58.193  1.00  0.00     0.043 A 
HETATM   35  C   UNL     1     -45.324  57.020 -59.046  1.00  0.00     0.051 A 
HETATM   36  C   UNL     1     -42.862  55.657 -59.152  1.00  0.00     0.033 A 
HETATM   37  N   UNL     1     -42.290  57.137 -57.202  1.00  0.00    -0.365 N 
HETATM   38  C   UNL     1     -43.887  55.359 -60.060  1.00  0.00     0.039 A 
HETATM   39  C   UNL     1     -45.107  56.029 -60.015  1.00  0.00     0.069 A 
HETATM   40  H   UNL     1     -41.339  56.829 -57.038  1.00  0.00     0.165 HD
HETATM   41  C   UNL     1     -42.948  58.105 -56.487  1.00  0.00     0.096 A 
BRANCH  39  42
HETATM   42  O   UNL     1     -46.173  55.819 -60.849  1.00  0.00    -0.356 OA
HETATM   43  C   UNL     1     -47.338  56.601 -60.612  1.00  0.00     0.210 C 
ENDBRANCH  39  42
ENDBRANCH  31  32
ENDBRANCH  30  31
ENDBRANCH  27  30
ENDBRANCH  26  27
ENDBRANCH  23  26
ENDBRANCH   1  23
TORSDOF 13
ENDMDL
