MODEL 1
REMARK VINA RESULT:      -9.7      0.000      0.000
REMARK  6 active torsions:
REMARK  status: ('A' for Active; 'I' for Inactive)
REMARK    1  A    between atoms: C_5  and  C_6 
REMARK    2  A    between atoms: C_11  and  C_12 
REMARK       I    between atoms: C_12  and  N_13 
REMARK    3  A    between atoms: N_13  and  C_14 
REMARK    4  A    between atoms: C_16  and  C_17 
REMARK    5  A    between atoms: C_17  and  O_18 
REMARK    6  A    between atoms: C_25  and  C_26 
ROOT
HETATM    1  C   UNL     1     -43.227  58.998 -59.524  1.00  0.00     0.118 C 
HETATM    2  N   UNL     1     -43.647  58.761 -58.140  1.00  0.00    -0.366 N 
HETATM    3  C   UNL     1     -43.539  57.549 -57.559  1.00  0.00     0.123 A 
HETATM    4  N   UNL     1     -43.403  56.418 -58.312  1.00  0.00    -0.240 N 
HETATM    5  N   UNL     1     -43.157  55.305 -57.596  1.00  0.00    -0.165 NA
HETATM    6  C   UNL     1     -43.222  55.743 -56.315  1.00  0.00     0.148 A 
HETATM    7  C   UNL     1     -43.505  57.137 -56.254  1.00  0.00     0.089 A 
HETATM    8  C   UNL     1     -43.323  56.450 -59.758  1.00  0.00     0.221 C 
HETATM    9  C   UNL     1     -42.607  57.742 -60.176  1.00  0.00     0.066 C 
HETATM   10  H   UNL     1     -43.719  59.604 -57.568  1.00  0.00     0.161 HD
ENDROOT
BRANCH   6  11
HETATM   11  C   UNL     1     -42.960  54.856 -55.168  1.00  0.00     0.276 C 
HETATM   12  N   UNL     1     -41.667  54.369 -55.179  1.00  0.00    -0.322 N 
HETATM   13  H   UNL     1     -41.138  54.648 -56.002  1.00  0.00     0.169 HD
HETATM   14  O   UNL     1     -43.823  54.627 -54.328  1.00  0.00    -0.266 OA
BRANCH  12  15
HETATM   15  C   UNL     1     -41.019  53.592 -54.206  1.00  0.00     0.035 A 
HETATM   16  C   UNL     1     -40.571  52.287 -54.427  1.00  0.00     0.039 A 
HETATM   17  C   UNL     1     -39.949  51.546 -53.405  1.00  0.00    -0.028 A 
HETATM   18  C   UNL     1     -39.768  52.147 -52.153  1.00  0.00     0.010 A 
HETATM   19  C   UNL     1     -40.213  53.448 -51.922  1.00  0.00     0.003 A 
HETATM   20  C   UNL     1     -40.840  54.165 -52.942  1.00  0.00     0.029 A 
BRANCH  17  21
HETATM   21  C   UNL     1     -39.480  50.136 -53.696  1.00  0.00     0.147 C 
HETATM   22  C   UNL     1     -39.513  49.265 -52.445  1.00  0.00     0.044 C 
BRANCH  21  23
HETATM   23  O   UNL     1     -40.292  49.531 -54.703  1.00  0.00    -0.391 OA
HETATM   24  H   UNL     1     -41.202  49.831 -54.548  1.00  0.00     0.210 HD
ENDBRANCH  21  23
ENDBRANCH  17  21
ENDBRANCH  12  15
ENDBRANCH   6  11
BRANCH   8  25
HETATM   25  C   UNL     1     -44.700  56.316 -60.364  1.00  0.00     0.409 C 
HETATM   26  F   UNL     1     -45.566  55.691 -59.537  1.00  0.00    -0.169 F 
HETATM   27  F   UNL     1     -45.252  57.491 -60.729  1.00  0.00    -0.169 F 
HETATM   28  F   UNL     1     -44.629  55.559 -61.491  1.00  0.00    -0.169 F 
ENDBRANCH   8  25
BRANCH   1  29
HETATM   29  C   UNL     1     -42.235  60.150 -59.556  1.00  0.00    -0.035 A 
HETATM   30  C   UNL     1     -41.894  60.778 -60.768  1.00  0.00     0.010 A 
HETATM   31  C   UNL     1     -40.994  61.844 -60.795  1.00  0.00     0.007 A 
HETATM   32  C   UNL     1     -40.409  62.304 -59.613  1.00  0.00    -0.062 A 
HETATM   33  C   UNL     1     -39.468  63.472 -59.639  1.00  0.00     0.048 C 
HETATM   34  C   UNL     1     -40.760  61.699 -58.400  1.00  0.00     0.007 A 
HETATM   35  C   UNL     1     -41.661  60.629 -58.371  1.00  0.00     0.010 A 
ENDBRANCH   1  29
TORSDOF 6
ENDMDL
MODEL 2
REMARK VINA RESULT:      -9.6      1.431      2.343
REMARK  6 active torsions:
REMARK  status: ('A' for Active; 'I' for Inactive)
REMARK    1  A    between atoms: C_5  and  C_6 
REMARK    2  A    between atoms: C_11  and  C_12 
REMARK       I    between atoms: C_12  and  N_13 
REMARK    3  A    between atoms: N_13  and  C_14 
REMARK    4  A    between atoms: C_16  and  C_17 
REMARK    5  A    between atoms: C_17  and  O_18 
REMARK    6  A    between atoms: C_25  and  C_26 
ROOT
HETATM    1  C   UNL     1     -43.213  58.485 -59.386  1.00  0.00     0.118 C 
HETATM    2  N   UNL     1     -43.691  58.340 -58.007  1.00  0.00    -0.366 N 
HETATM    3  C   UNL     1     -43.479  57.216 -57.293  1.00  0.00     0.123 A 
HETATM    4  N   UNL     1     -43.162  56.040 -57.910  1.00  0.00    -0.240 N 
HETATM    5  N   UNL     1     -42.833  55.046 -57.065  1.00  0.00    -0.165 NA
HETATM    6  C   UNL     1     -43.032  55.600 -55.844  1.00  0.00     0.148 A 
HETATM    7  C   UNL     1     -43.482  56.947 -55.951  1.00  0.00     0.089 A 
HETATM    8  C   UNL     1     -42.992  55.934 -59.345  1.00  0.00     0.221 C 
HETATM    9  C   UNL     1     -42.408  57.256 -59.863  1.00  0.00     0.066 C 
HETATM   10  H   UNL     1     -43.900  59.221 -57.536  1.00  0.00     0.161 HD
ENDROOT
BRANCH   6  11
HETATM   11  C   UNL     1     -42.743  54.874 -54.595  1.00  0.00     0.276 C 
HETATM   12  N   UNL     1     -41.551  54.178 -54.670  1.00  0.00    -0.322 N 
HETATM   13  H   UNL     1     -41.111  54.229 -55.586  1.00  0.00     0.169 HD
HETATM   14  O   UNL     1     -43.500  54.932 -53.633  1.00  0.00    -0.266 OA
BRANCH  12  15
HETATM   15  C   UNL     1     -40.892  53.466 -53.655  1.00  0.00     0.035 A 
HETATM   16  C   UNL     1     -40.730  53.943 -52.352  1.00  0.00     0.039 A 
HETATM   17  C   UNL     1     -40.038  53.195 -51.382  1.00  0.00    -0.028 A 
HETATM   18  C   UNL     1     -39.521  51.943 -51.740  1.00  0.00     0.010 A 
HETATM   19  C   UNL     1     -39.676  51.459 -53.039  1.00  0.00     0.003 A 
HETATM   20  C   UNL     1     -40.354  52.220 -53.993  1.00  0.00     0.029 A 
BRANCH  17  21
HETATM   21  C   UNL     1     -39.891  53.754 -49.983  1.00  0.00     0.147 C 
HETATM   22  C   UNL     1     -40.484  55.155 -49.874  1.00  0.00     0.044 C 
BRANCH  21  23
HETATM   23  O   UNL     1     -40.531  52.905 -49.029  1.00  0.00    -0.391 OA
HETATM   24  H   UNL     1     -40.463  53.349 -48.168  1.00  0.00     0.210 HD
ENDBRANCH  21  23
ENDBRANCH  17  21
ENDBRANCH  12  15
ENDBRANCH   6  11
BRANCH   8  25
HETATM   25  C   UNL     1     -44.301  55.569 -60.004  1.00  0.00     0.409 C 
HETATM   26  F   UNL     1     -44.459  54.232 -60.124  1.00  0.00    -0.169 F 
HETATM   27  F   UNL     1     -45.386  56.058 -59.370  1.00  0.00    -0.169 F 
HETATM   28  F   UNL     1     -44.332  56.076 -61.266  1.00  0.00    -0.169 F 
ENDBRANCH   8  25
BRANCH   1  29
HETATM   29  C   UNL     1     -42.364  59.742 -59.491  1.00  0.00    -0.035 A 
HETATM   30  C   UNL     1     -41.770  60.311 -58.350  1.00  0.00     0.010 A 
HETATM   31  C   UNL     1     -40.980  61.458 -58.449  1.00  0.00     0.007 A 
HETATM   32  C   UNL     1     -40.769  62.065 -59.689  1.00  0.00    -0.062 A 
HETATM   33  C   UNL     1     -39.892  63.277 -59.799  1.00  0.00     0.048 C 
HETATM   34  C   UNL     1     -41.339  61.491 -60.832  1.00  0.00     0.007 A 
HETATM   35  C   UNL     1     -42.132  60.344 -60.735  1.00  0.00     0.010 A 
ENDBRANCH   1  29
TORSDOF 6
ENDMDL
MODEL 3
REMARK VINA RESULT:      -9.6      5.901      9.884
REMARK  6 active torsions:
REMARK  status: ('A' for Active; 'I' for Inactive)
REMARK    1  A    between atoms: C_5  and  C_6 
REMARK    2  A    between atoms: C_11  and  C_12 
REMARK       I    between atoms: C_12  and  N_13 
REMARK    3  A    between atoms: N_13  and  C_14 
REMARK    4  A    between atoms: C_16  and  C_17 
REMARK    5  A    between atoms: C_17  and  O_18 
REMARK    6  A    between atoms: C_25  and  C_26 
ROOT
HETATM    1  C   UNL     1     -41.206  54.579 -53.840  1.00  0.00     0.118 C 
HETATM    2  N   UNL     1     -41.163  55.743 -52.949  1.00  0.00    -0.366 N 
HETATM    3  C   UNL     1     -42.256  56.491 -52.700  1.00  0.00     0.123 A 
HETATM    4  N   UNL     1     -43.340  56.451 -53.529  1.00  0.00    -0.240 N 
HETATM    5  N   UNL     1     -44.408  57.132 -53.074  1.00  0.00    -0.165 NA
HETATM    6  C   UNL     1     -43.947  57.701 -51.934  1.00  0.00     0.148 A 
HETATM    7  C   UNL     1     -42.587  57.356 -51.693  1.00  0.00     0.089 A 
HETATM    8  C   UNL     1     -43.402  55.585 -54.689  1.00  0.00     0.221 C 
HETATM    9  C   UNL     1     -42.628  54.297 -54.374  1.00  0.00     0.066 C 
HETATM   10  H   UNL     1     -40.368  55.758 -52.309  1.00  0.00     0.161 HD
ENDROOT
BRANCH   6  11
HETATM   11  C   UNL     1     -44.810  58.513 -51.057  1.00  0.00     0.276 C 
HETATM   12  N   UNL     1     -44.198  59.696 -50.687  1.00  0.00    -0.322 N 
HETATM   13  H   UNL     1     -43.241  59.777 -51.022  1.00  0.00     0.169 HD
HETATM   14  O   UNL     1     -45.934  58.138 -50.743  1.00  0.00    -0.266 OA
BRANCH  12  15
HETATM   15  C   UNL     1     -44.739  60.766 -49.957  1.00  0.00     0.035 A 
HETATM   16  C   UNL     1     -45.216  60.650 -48.649  1.00  0.00     0.039 A 
HETATM   17  C   UNL     1     -45.771  61.753 -47.974  1.00  0.00    -0.028 A 
HETATM   18  C   UNL     1     -45.824  62.988 -48.634  1.00  0.00     0.010 A 
HETATM   19  C   UNL     1     -45.353  63.113 -49.940  1.00  0.00     0.003 A 
HETATM   20  C   UNL     1     -44.818  62.006 -50.600  1.00  0.00     0.029 A 
BRANCH  17  21
HETATM   21  C   UNL     1     -46.271  61.577 -46.556  1.00  0.00     0.147 C 
HETATM   22  C   UNL     1     -45.945  62.790 -45.692  1.00  0.00     0.044 C 
BRANCH  21  23
HETATM   23  O   UNL     1     -47.683  61.364 -46.542  1.00  0.00    -0.391 OA
HETATM   24  H   UNL     1     -48.029  61.714 -47.379  1.00  0.00     0.210 HD
ENDBRANCH  21  23
ENDBRANCH  17  21
ENDBRANCH  12  15
ENDBRANCH   6  11
BRANCH   8  25
HETATM   25  C   UNL     1     -42.881  56.303 -55.911  1.00  0.00     0.409 C 
HETATM   26  F   UNL     1     -42.006  57.283 -55.596  1.00  0.00    -0.169 F 
HETATM   27  F   UNL     1     -42.286  55.491 -56.809  1.00  0.00    -0.169 F 
HETATM   28  F   UNL     1     -43.914  56.902 -56.561  1.00  0.00    -0.169 F 
ENDBRANCH   8  25
BRANCH   1  29
HETATM   29  C   UNL     1     -40.672  53.363 -53.099  1.00  0.00    -0.035 A 
HETATM   30  C   UNL     1     -40.650  53.326 -51.693  1.00  0.00     0.010 A 
HETATM   31  C   UNL     1     -40.172  52.204 -51.013  1.00  0.00     0.007 A 
HETATM   32  C   UNL     1     -39.702  51.096 -51.721  1.00  0.00    -0.062 A 
HETATM   33  C   UNL     1     -39.221  49.878 -50.990  1.00  0.00     0.048 C 
HETATM   34  C   UNL     1     -39.742  51.117 -53.121  1.00  0.00     0.007 A 
HETATM   35  C   UNL     1     -40.218  52.241 -53.804  1.00  0.00     0.010 A 
ENDBRANCH   1  29
TORSDOF 6
ENDMDL
MODEL 4
REMARK VINA RESULT:      -9.1      4.814      9.608
REMARK  6 active torsions:
REMARK  status: ('A' for Active; 'I' for Inactive)
REMARK    1  A    between atoms: C_5  and  C_6 
REMARK    2  A    between atoms: C_11  and  C_12 
REMARK       I    between atoms: C_12  and  N_13 
REMARK    3  A    between atoms: N_13  and  C_14 
REMARK    4  A    between atoms: C_16  and  C_17 
REMARK    5  A    between atoms: C_17  and  O_18 
REMARK    6  A    between atoms: C_25  and  C_26 
ROOT
HETATM    1  C   UNL     1     -41.645  54.868 -52.225  1.00  0.00     0.118 C 
HETATM    2  N   UNL     1     -43.003  55.010 -52.759  1.00  0.00    -0.366 N 
HETATM    3  C   UNL     1     -43.397  56.115 -53.423  1.00  0.00     0.123 A 
HETATM    4  N   UNL     1     -42.709  57.288 -53.307  1.00  0.00    -0.240 N 
HETATM    5  N   UNL     1     -43.128  58.259 -54.140  1.00  0.00    -0.165 NA
HETATM    6  C   UNL     1     -44.193  57.694 -54.759  1.00  0.00     0.148 A 
HETATM    7  C   UNL     1     -44.418  56.365 -54.300  1.00  0.00     0.089 A 
HETATM    8  C   UNL     1     -41.504  57.409 -52.510  1.00  0.00     0.221 C 
HETATM    9  C   UNL     1     -40.746  56.076 -52.572  1.00  0.00     0.066 C 
HETATM   10  H   UNL     1     -43.507  54.130 -52.874  1.00  0.00     0.161 HD
ENDROOT
BRANCH   6  11
HETATM   11  C   UNL     1     -44.949  58.392 -55.814  1.00  0.00     0.276 C 
HETATM   12  N   UNL     1     -44.808  57.773 -57.042  1.00  0.00    -0.322 N 
HETATM   13  H   UNL     1     -44.160  56.988 -57.026  1.00  0.00     0.169 HD
HETATM   14  O   UNL     1     -45.618  59.388 -55.567  1.00  0.00    -0.266 OA
BRANCH  12  15
HETATM   15  C   UNL     1     -45.455  58.075 -58.250  1.00  0.00     0.035 A 
HETATM   16  C   UNL     1     -46.064  57.117 -59.064  1.00  0.00     0.039 A 
HETATM   17  C   UNL     1     -46.678  57.476 -60.279  1.00  0.00    -0.028 A 
HETATM   18  C   UNL     1     -46.682  58.824 -60.658  1.00  0.00     0.010 A 
HETATM   19  C   UNL     1     -46.075  59.787 -59.853  1.00  0.00     0.003 A 
HETATM   20  C   UNL     1     -45.459  59.413 -58.658  1.00  0.00     0.029 A 
BRANCH  17  21
HETATM   21  C   UNL     1     -47.327  56.401 -61.124  1.00  0.00     0.147 C 
HETATM   22  C   UNL     1     -48.384  56.982 -62.056  1.00  0.00     0.044 C 
BRANCH  21  23
HETATM   23  O   UNL     1     -46.349  55.713 -61.906  1.00  0.00    -0.391 OA
HETATM   24  H   UNL     1     -46.273  56.194 -62.747  1.00  0.00     0.210 HD
ENDBRANCH  21  23
ENDBRANCH  17  21
ENDBRANCH  12  15
ENDBRANCH   6  11
BRANCH   8  25
HETATM   25  C   UNL     1     -41.846  57.829 -51.100  1.00  0.00     0.409 C 
HETATM   26  F   UNL     1     -41.710  59.161 -50.914  1.00  0.00    -0.169 F 
HETATM   27  F   UNL     1     -43.091  57.483 -50.714  1.00  0.00    -0.169 F 
HETATM   28  F   UNL     1     -40.993  57.229 -50.227  1.00  0.00    -0.169 F 
ENDBRANCH   8  25
BRANCH   1  29
HETATM   29  C   UNL     1     -41.029  53.585 -52.757  1.00  0.00    -0.035 A 
HETATM   30  C   UNL     1     -40.166  52.811 -51.960  1.00  0.00     0.010 A 
HETATM   31  C   UNL     1     -39.612  51.626 -52.445  1.00  0.00     0.007 A 
HETATM   32  C   UNL     1     -39.902  51.188 -53.738  1.00  0.00    -0.062 A 
HETATM   33  C   UNL     1     -39.333  49.896 -54.246  1.00  0.00     0.048 C 
HETATM   34  C   UNL     1     -40.778  51.941 -54.530  1.00  0.00     0.007 A 
HETATM   35  C   UNL     1     -41.333  53.130 -54.047  1.00  0.00     0.010 A 
ENDBRANCH   1  29
TORSDOF 6
ENDMDL
MODEL 5
REMARK VINA RESULT:      -8.8      4.010      9.825
REMARK  6 active torsions:
REMARK  status: ('A' for Active; 'I' for Inactive)
REMARK    1  A    between atoms: C_5  and  C_6 
REMARK    2  A    between atoms: C_11  and  C_12 
REMARK       I    between atoms: C_12  and  N_13 
REMARK    3  A    between atoms: N_13  and  C_14 
REMARK    4  A    between atoms: C_16  and  C_17 
REMARK    5  A    between atoms: C_17  and  O_18 
REMARK    6  A    between atoms: C_25  and  C_26 
ROOT
HETATM    1  C   UNL     1     -41.951  54.723 -52.558  1.00  0.00     0.118 C 
HETATM    2  N   UNL     1     -42.963  55.016 -53.578  1.00  0.00    -0.366 N 
HETATM    3  C   UNL     1     -43.003  56.198 -54.224  1.00  0.00     0.123 A 
HETATM    4  N   UNL     1     -42.375  57.299 -53.716  1.00  0.00    -0.240 N 
HETATM    5  N   UNL     1     -42.375  58.363 -54.540  1.00  0.00    -0.165 NA
HETATM    6  C   UNL     1     -43.115  57.937 -55.593  1.00  0.00     0.148 A 
HETATM    7  C   UNL     1     -43.563  56.599 -55.407  1.00  0.00     0.089 A 
HETATM    8  C   UNL     1     -41.600  57.259 -52.493  1.00  0.00     0.221 C 
HETATM    9  C   UNL     1     -40.940  55.878 -52.382  1.00  0.00     0.066 C 
HETATM   10  H   UNL     1     -43.412  54.191 -53.979  1.00  0.00     0.161 HD
ENDROOT
BRANCH   6  11
HETATM   11  C   UNL     1     -43.341  58.775 -56.784  1.00  0.00     0.276 C 
HETATM   12  N   UNL     1     -42.157  59.091 -57.423  1.00  0.00    -0.322 N 
HETATM   13  H   UNL     1     -41.332  58.752 -56.933  1.00  0.00     0.169 HD
HETATM   14  O   UNL     1     -44.470  59.106 -57.126  1.00  0.00    -0.266 OA
BRANCH  12  15
HETATM   15  C   UNL     1     -41.975  59.771 -58.637  1.00  0.00     0.035 A 
HETATM   16  C   UNL     1     -41.475  61.072 -58.730  1.00  0.00     0.039 A 
HETATM   17  C   UNL     1     -41.338  61.714 -59.975  1.00  0.00    -0.028 A 
HETATM   18  C   UNL     1     -41.698  61.016 -61.135  1.00  0.00     0.010 A 
HETATM   19  C   UNL     1     -42.200  59.718 -61.052  1.00  0.00     0.003 A 
HETATM   20  C   UNL     1     -42.343  59.101 -59.809  1.00  0.00     0.029 A 
BRANCH  17  21
HETATM   21  C   UNL     1     -40.788  63.124 -60.023  1.00  0.00     0.147 C 
HETATM   22  C   UNL     1     -39.460  63.234 -59.282  1.00  0.00     0.044 C 
BRANCH  21  23
HETATM   23  O   UNL     1     -40.601  63.547 -61.374  1.00  0.00    -0.391 OA
HETATM   24  H   UNL     1     -39.944  64.262 -61.356  1.00  0.00     0.210 HD
ENDBRANCH  21  23
ENDBRANCH  17  21
ENDBRANCH  12  15
ENDBRANCH   6  11
BRANCH   8  25
HETATM   25  C   UNL     1     -42.473  57.592 -51.306  1.00  0.00     0.409 C 
HETATM   26  F   UNL     1     -42.360  58.886 -50.933  1.00  0.00    -0.169 F 
HETATM   27  F   UNL     1     -43.782  57.331 -51.501  1.00  0.00    -0.169 F 
HETATM   28  F   UNL     1     -42.089  56.847 -50.235  1.00  0.00    -0.169 F 
ENDBRANCH   8  25
BRANCH   1  29
HETATM   29  C   UNL     1     -41.224  53.440 -52.928  1.00  0.00    -0.035 A 
HETATM   30  C   UNL     1     -41.401  52.848 -54.191  1.00  0.00     0.010 A 
HETATM   31  C   UNL     1     -40.724  51.677 -54.536  1.00  0.00     0.007 A 
HETATM   32  C   UNL     1     -39.858  51.068 -53.625  1.00  0.00    -0.062 A 
HETATM   33  C   UNL     1     -39.105  49.829 -54.008  1.00  0.00     0.048 C 
HETATM   34  C   UNL     1     -39.660  51.664 -52.373  1.00  0.00     0.007 A 
HETATM   35  C   UNL     1     -40.339  52.836 -52.025  1.00  0.00     0.010 A 
ENDBRANCH   1  29
TORSDOF 6
ENDMDL
MODEL 6
REMARK VINA RESULT:      -8.7      6.216      7.826
REMARK  6 active torsions:
REMARK  status: ('A' for Active; 'I' for Inactive)
REMARK    1  A    between atoms: C_5  and  C_6 
REMARK    2  A    between atoms: C_11  and  C_12 
REMARK       I    between atoms: C_12  and  N_13 
REMARK    3  A    between atoms: N_13  and  C_14 
REMARK    4  A    between atoms: C_16  and  C_17 
REMARK    5  A    between atoms: C_17  and  O_18 
REMARK    6  A    between atoms: C_25  and  C_26 
ROOT
HETATM    1  C   UNL     1     -44.209  60.932 -50.864  1.00  0.00     0.118 C 
HETATM    2  N   UNL     1     -44.781  59.600 -51.082  1.00  0.00    -0.366 N 
HETATM    3  C   UNL     1     -44.021  58.547 -51.446  1.00  0.00     0.123 A 
HETATM    4  N   UNL     1     -42.784  58.730 -51.994  1.00  0.00    -0.240 N 
HETATM    5  N   UNL     1     -42.084  57.594 -52.167  1.00  0.00    -0.165 NA
HETATM    6  C   UNL     1     -42.959  56.632 -51.783  1.00  0.00     0.148 A 
HETATM    7  C   UNL     1     -44.200  57.193 -51.368  1.00  0.00     0.089 A 
HETATM    8  C   UNL     1     -42.199  60.043 -52.177  1.00  0.00     0.221 C 
HETATM    9  C   UNL     1     -42.674  60.949 -51.033  1.00  0.00     0.066 C 
HETATM   10  H   UNL     1     -45.693  59.453 -50.647  1.00  0.00     0.161 HD
ENDROOT
BRANCH   6  11
HETATM   11  C   UNL     1     -42.595  55.204 -51.758  1.00  0.00     0.276 C 
HETATM   12  N   UNL     1     -41.678  54.890 -52.742  1.00  0.00    -0.322 N 
HETATM   13  H   UNL     1     -41.460  55.673 -53.355  1.00  0.00     0.169 HD
HETATM   14  O   UNL     1     -43.071  54.439 -50.927  1.00  0.00    -0.266 OA
BRANCH  12  15
HETATM   15  C   UNL     1     -41.018  53.671 -52.962  1.00  0.00     0.035 A 
HETATM   16  C   UNL     1     -40.581  52.829 -51.936  1.00  0.00     0.039 A 
HETATM   17  C   UNL     1     -39.902  51.629 -52.216  1.00  0.00    -0.028 A 
HETATM   18  C   UNL     1     -39.680  51.278 -53.554  1.00  0.00     0.010 A 
HETATM   19  C   UNL     1     -40.110  52.113 -54.585  1.00  0.00     0.003 A 
HETATM   20  C   UNL     1     -40.771  53.306 -54.290  1.00  0.00     0.029 A 
BRANCH  17  21
HETATM   21  C   UNL     1     -39.451  50.749 -51.069  1.00  0.00     0.147 C 
HETATM   22  C   UNL     1     -40.391  50.862 -49.874  1.00  0.00     0.044 C 
BRANCH  21  23
HETATM   23  O   UNL     1     -39.383  49.382 -51.477  1.00  0.00    -0.391 OA
HETATM   24  H   UNL     1     -39.546  49.366 -52.434  1.00  0.00     0.210 HD
ENDBRANCH  21  23
ENDBRANCH  17  21
ENDBRANCH  12  15
ENDBRANCH   6  11
BRANCH   8  25
HETATM   25  C   UNL     1     -42.544  60.587 -53.543  1.00  0.00     0.409 C 
HETATM   26  F   UNL     1     -41.632  60.241 -54.479  1.00  0.00    -0.169 F 
HETATM   27  F   UNL     1     -43.759  60.208 -53.991  1.00  0.00    -0.169 F 
HETATM   28  F   UNL     1     -42.557  61.946 -53.501  1.00  0.00    -0.169 F 
ENDBRANCH   8  25
BRANCH   1  29
HETATM   29  C   UNL     1     -44.590  61.419 -49.475  1.00  0.00    -0.035 A 
HETATM   30  C   UNL     1     -44.317  62.738 -49.071  1.00  0.00     0.010 A 
HETATM   31  C   UNL     1     -44.679  63.189 -47.800  1.00  0.00     0.007 A 
HETATM   32  C   UNL     1     -45.318  62.331 -46.903  1.00  0.00    -0.062 A 
HETATM   33  C   UNL     1     -45.738  62.825 -45.550  1.00  0.00     0.048 C 
HETATM   34  C   UNL     1     -45.613  61.022 -47.306  1.00  0.00     0.007 A 
HETATM   35  C   UNL     1     -45.249  60.568 -48.578  1.00  0.00     0.010 A 
ENDBRANCH   1  29
TORSDOF 6
ENDMDL
MODEL 7
REMARK VINA RESULT:      -8.7      2.744      4.846
REMARK  6 active torsions:
REMARK  status: ('A' for Active; 'I' for Inactive)
REMARK    1  A    between atoms: C_5  and  C_6 
REMARK    2  A    between atoms: C_11  and  C_12 
REMARK       I    between atoms: C_12  and  N_13 
REMARK    3  A    between atoms: N_13  and  C_14 
REMARK    4  A    between atoms: C_16  and  C_17 
REMARK    5  A    between atoms: C_17  and  O_18 
REMARK    6  A    between atoms: C_25  and  C_26 
ROOT
HETATM    1  C   UNL     1     -44.401  58.293 -59.435  1.00  0.00     0.118 C 
HETATM    2  N   UNL     1     -43.712  57.031 -59.143  1.00  0.00    -0.366 N 
HETATM    3  C   UNL     1     -43.352  56.687 -57.890  1.00  0.00     0.123 A 
HETATM    4  N   UNL     1     -43.258  57.625 -56.903  1.00  0.00    -0.240 N 
HETATM    5  N   UNL     1     -43.037  57.116 -55.677  1.00  0.00    -0.165 NA
HETATM    6  C   UNL     1     -42.903  55.789 -55.915  1.00  0.00     0.148 A 
HETATM    7  C   UNL     1     -43.049  55.490 -57.300  1.00  0.00     0.089 A 
HETATM    8  C   UNL     1     -43.576  59.022 -57.123  1.00  0.00     0.221 C 
HETATM    9  C   UNL     1     -44.707  59.105 -58.157  1.00  0.00     0.066 C 
HETATM   10  H   UNL     1     -43.807  56.319 -59.869  1.00  0.00     0.161 HD
ENDROOT
BRANCH   6  11
HETATM   11  C   UNL     1     -42.695  54.813 -54.830  1.00  0.00     0.276 C 
HETATM   12  N   UNL     1     -41.371  54.433 -54.727  1.00  0.00    -0.322 N 
HETATM   13  H   UNL     1     -40.779  54.833 -55.451  1.00  0.00     0.169 HD
HETATM   14  O   UNL     1     -43.625  54.435 -54.126  1.00  0.00    -0.266 OA
BRANCH  12  15
HETATM   15  C   UNL     1     -40.772  53.614 -53.757  1.00  0.00     0.035 A 
HETATM   16  C   UNL     1     -40.633  53.977 -52.415  1.00  0.00     0.039 A 
HETATM   17  C   UNL     1     -40.000  53.125 -51.491  1.00  0.00    -0.028 A 
HETATM   18  C   UNL     1     -39.520  51.887 -51.936  1.00  0.00     0.010 A 
HETATM   19  C   UNL     1     -39.651  51.518 -53.274  1.00  0.00     0.003 A 
HETATM   20  C   UNL     1     -40.270  52.379 -54.181  1.00  0.00     0.029 A 
BRANCH  17  21
HETATM   21  C   UNL     1     -39.877  53.562 -50.046  1.00  0.00     0.147 C 
HETATM   22  C   UNL     1     -40.379  54.988 -49.848  1.00  0.00     0.044 C 
BRANCH  21  23
HETATM   23  O   UNL     1     -40.614  52.689 -49.189  1.00  0.00    -0.391 OA
HETATM   24  H   UNL     1     -40.611  53.093 -48.306  1.00  0.00     0.210 HD
ENDBRANCH  21  23
ENDBRANCH  17  21
ENDBRANCH  12  15
ENDBRANCH   6  11
BRANCH   8  25
HETATM   25  C   UNL     1     -42.339  59.784 -57.538  1.00  0.00     0.409 C 
HETATM   26  F   UNL     1     -42.601  60.707 -58.490  1.00  0.00    -0.169 F 
HETATM   27  F   UNL     1     -41.715  60.407 -56.519  1.00  0.00    -0.169 F 
HETATM   28  F   UNL     1     -41.434  58.924 -58.075  1.00  0.00    -0.169 F 
ENDBRANCH   8  25
BRANCH   1  29
HETATM   29  C   UNL     1     -45.686  57.997 -60.190  1.00  0.00    -0.035 A 
HETATM   30  C   UNL     1     -46.454  59.037 -60.745  1.00  0.00     0.010 A 
HETATM   31  C   UNL     1     -47.627  58.764 -61.451  1.00  0.00     0.007 A 
HETATM   32  C   UNL     1     -48.063  57.448 -61.614  1.00  0.00    -0.062 A 
HETATM   33  C   UNL     1     -49.306  57.154 -62.401  1.00  0.00     0.048 C 
HETATM   34  C   UNL     1     -47.292  56.406 -61.083  1.00  0.00     0.007 A 
HETATM   35  C   UNL     1     -46.118  56.677 -60.375  1.00  0.00     0.010 A 
ENDBRANCH   1  29
TORSDOF 6
ENDMDL
MODEL 8
REMARK VINA RESULT:      -8.7      5.385      9.663
REMARK  6 active torsions:
REMARK  status: ('A' for Active; 'I' for Inactive)
REMARK    1  A    between atoms: C_5  and  C_6 
REMARK    2  A    between atoms: C_11  and  C_12 
REMARK       I    between atoms: C_12  and  N_13 
REMARK    3  A    between atoms: N_13  and  C_14 
REMARK    4  A    between atoms: C_16  and  C_17 
REMARK    5  A    between atoms: C_17  and  O_18 
REMARK    6  A    between atoms: C_25  and  C_26 
ROOT
HETATM    1  C   UNL     1     -41.140  54.388 -54.546  1.00  0.00     0.118 C 
HETATM    2  N   UNL     1     -40.495  55.615 -54.069  1.00  0.00    -0.366 N 
HETATM    3  C   UNL     1     -41.208  56.695 -53.689  1.00  0.00     0.123 A 
HETATM    4  N   UNL     1     -42.507  56.852 -54.079  1.00  0.00    -0.240 N 
HETATM    5  N   UNL     1     -43.133  57.895 -53.504  1.00  0.00    -0.165 NA
HETATM    6  C   UNL     1     -42.151  58.478 -52.773  1.00  0.00     0.148 A 
HETATM    7  C   UNL     1     -40.919  57.777 -52.903  1.00  0.00     0.089 A 
HETATM    8  C   UNL     1     -43.206  55.864 -54.875  1.00  0.00     0.221 C 
HETATM    9  C   UNL     1     -42.681  54.473 -54.493  1.00  0.00     0.066 C 
HETATM   10  H   UNL     1     -39.533  55.492 -53.749  1.00  0.00     0.161 HD
ENDROOT
BRANCH   6  11
HETATM   11  C   UNL     1     -42.401  59.653 -51.918  1.00  0.00     0.276 C 
HETATM   12  N   UNL     1     -43.670  60.165 -52.106  1.00  0.00    -0.322 N 
HETATM   13  H   UNL     1     -44.191  59.692 -52.842  1.00  0.00     0.169 HD
HETATM   14  O   UNL     1     -41.549  60.068 -51.142  1.00  0.00    -0.266 OA
BRANCH  12  15
HETATM   15  C   UNL     1     -44.306  61.200 -51.403  1.00  0.00     0.035 A 
HETATM   16  C   UNL     1     -43.638  62.316 -50.894  1.00  0.00     0.039 A 
HETATM   17  C   UNL     1     -44.324  63.312 -50.175  1.00  0.00    -0.028 A 
HETATM   18  C   UNL     1     -45.705  63.176 -49.987  1.00  0.00     0.010 A 
HETATM   19  C   UNL     1     -46.381  62.064 -50.490  1.00  0.00     0.003 A 
HETATM   20  C   UNL     1     -45.683  61.079 -51.190  1.00  0.00     0.029 A 
BRANCH  17  21
HETATM   21  C   UNL     1     -43.555  64.504 -49.645  1.00  0.00     0.147 C 
HETATM   22  C   UNL     1     -43.882  64.778 -48.182  1.00  0.00     0.044 C 
BRANCH  21  23
HETATM   23  O   UNL     1     -42.148  64.295 -49.774  1.00  0.00    -0.391 OA
HETATM   24  H   UNL     1     -41.991  63.347 -49.635  1.00  0.00     0.210 HD
ENDBRANCH  21  23
ENDBRANCH  17  21
ENDBRANCH  12  15
ENDBRANCH   6  11
BRANCH   8  25
HETATM   25  C   UNL     1     -43.053  56.169 -56.346  1.00  0.00     0.409 C 
HETATM   26  F   UNL     1     -42.918  55.049 -57.091  1.00  0.00    -0.169 F 
HETATM   27  F   UNL     1     -44.069  56.889 -56.863  1.00  0.00    -0.169 F 
HETATM   28  F   UNL     1     -41.924  56.901 -56.544  1.00  0.00    -0.169 F 
ENDBRANCH   8  25
BRANCH   1  29
HETATM   29  C   UNL     1     -40.649  53.210 -53.720  1.00  0.00    -0.035 A 
HETATM   30  C   UNL     1     -40.278  52.000 -54.333  1.00  0.00     0.010 A 
HETATM   31  C   UNL     1     -39.815  50.924 -53.575  1.00  0.00     0.007 A 
HETATM   32  C   UNL     1     -39.716  51.030 -52.186  1.00  0.00    -0.062 A 
HETATM   33  C   UNL     1     -39.186  49.884 -51.375  1.00  0.00     0.048 C 
HETATM   34  C   UNL     1     -40.063  52.239 -51.570  1.00  0.00     0.007 A 
HETATM   35  C   UNL     1     -40.529  53.317 -52.328  1.00  0.00     0.010 A 
ENDBRANCH   1  29
TORSDOF 6
ENDMDL
MODEL 9
REMARK VINA RESULT:      -8.6      1.832      2.083
REMARK  6 active torsions:
REMARK  status: ('A' for Active; 'I' for Inactive)
REMARK    1  A    between atoms: C_5  and  C_6 
REMARK    2  A    between atoms: C_11  and  C_12 
REMARK       I    between atoms: C_12  and  N_13 
REMARK    3  A    between atoms: N_13  and  C_14 
REMARK    4  A    between atoms: C_16  and  C_17 
REMARK    5  A    between atoms: C_17  and  O_18 
REMARK    6  A    between atoms: C_25  and  C_26 
ROOT
HETATM    1  C   UNL     1     -44.858  58.259 -59.772  1.00  0.00     0.118 C 
HETATM    2  N   UNL     1     -44.910  58.116 -58.313  1.00  0.00    -0.366 N 
HETATM    3  C   UNL     1     -44.117  57.248 -57.653  1.00  0.00     0.123 A 
HETATM    4  N   UNL     1     -43.516  56.209 -58.303  1.00  0.00    -0.240 N 
HETATM    5  N   UNL     1     -42.640  55.520 -57.550  1.00  0.00    -0.165 NA
HETATM    6  C   UNL     1     -42.754  56.104 -56.333  1.00  0.00     0.148 A 
HETATM    7  C   UNL     1     -43.706  57.163 -56.351  1.00  0.00     0.089 A 
HETATM    8  C   UNL     1     -43.654  56.000 -59.730  1.00  0.00     0.221 C 
HETATM    9  C   UNL     1     -43.769  57.370 -60.413  1.00  0.00     0.066 C 
HETATM   10  H   UNL     1     -45.332  58.906 -57.825  1.00  0.00     0.161 HD
ENDROOT
BRANCH   6  11
HETATM   11  C   UNL     1     -41.924  55.696 -55.185  1.00  0.00     0.276 C 
HETATM   12  N   UNL     1     -42.010  54.338 -54.946  1.00  0.00    -0.322 N 
HETATM   13  H   UNL     1     -42.675  53.863 -55.552  1.00  0.00     0.169 HD
HETATM   14  O   UNL     1     -41.248  56.509 -54.566  1.00  0.00    -0.266 OA
BRANCH  12  15
HETATM   15  C   UNL     1     -41.289  53.568 -54.019  1.00  0.00     0.035 A 
HETATM   16  C   UNL     1     -40.766  52.304 -54.301  1.00  0.00     0.039 A 
HETATM   17  C   UNL     1     -40.072  51.567 -53.324  1.00  0.00    -0.028 A 
HETATM   18  C   UNL     1     -39.897  52.131 -52.054  1.00  0.00     0.010 A 
HETATM   19  C   UNL     1     -40.417  53.391 -51.763  1.00  0.00     0.003 A 
HETATM   20  C   UNL     1     -41.114  54.104 -52.739  1.00  0.00     0.029 A 
BRANCH  17  21
HETATM   21  C   UNL     1     -39.522  50.202 -53.680  1.00  0.00     0.147 C 
HETATM   22  C   UNL     1     -39.512  49.269 -52.474  1.00  0.00     0.044 C 
BRANCH  21  23
HETATM   23  O   UNL     1     -40.294  49.602 -54.722  1.00  0.00    -0.391 OA
HETATM   24  H   UNL     1     -41.052  49.169 -54.297  1.00  0.00     0.210 HD
ENDBRANCH  21  23
ENDBRANCH  17  21
ENDBRANCH  12  15
ENDBRANCH   6  11
BRANCH   8  25
HETATM   25  C   UNL     1     -44.829  55.096 -60.019  1.00  0.00     0.409 C 
HETATM   26  F   UNL     1     -44.756  53.928 -59.342  1.00  0.00    -0.169 F 
HETATM   27  F   UNL     1     -46.026  55.655 -59.750  1.00  0.00    -0.169 F 
HETATM   28  F   UNL     1     -44.843  54.775 -61.341  1.00  0.00    -0.169 F 
ENDBRANCH   8  25
BRANCH   1  29
HETATM   29  C   UNL     1     -44.617  59.719 -60.122  1.00  0.00    -0.035 A 
HETATM   30  C   UNL     1     -44.388  60.676 -59.117  1.00  0.00     0.010 A 
HETATM   31  C   UNL     1     -44.154  62.013 -59.440  1.00  0.00     0.007 A 
HETATM   32  C   UNL     1     -44.149  62.427 -60.774  1.00  0.00    -0.062 A 
HETATM   33  C   UNL     1     -43.864  63.858 -61.122  1.00  0.00     0.048 C 
HETATM   34  C   UNL     1     -44.354  61.476 -61.782  1.00  0.00     0.007 A 
HETATM   35  C   UNL     1     -44.591  60.136 -61.460  1.00  0.00     0.010 A 
ENDBRANCH   1  29
TORSDOF 6
ENDMDL
MODEL 10
REMARK VINA RESULT:      -8.6      5.309      9.673
REMARK  6 active torsions:
REMARK  status: ('A' for Active; 'I' for Inactive)
REMARK    1  A    between atoms: C_5  and  C_6 
REMARK    2  A    between atoms: C_11  and  C_12 
REMARK       I    between atoms: C_12  and  N_13 
REMARK    3  A    between atoms: N_13  and  C_14 
REMARK    4  A    between atoms: C_16  and  C_17 
REMARK    5  A    between atoms: C_17  and  O_18 
REMARK    6  A    between atoms: C_25  and  C_26 
ROOT
HETATM    1  C   UNL     1     -41.156  54.562 -54.638  1.00  0.00     0.118 C 
HETATM    2  N   UNL     1     -40.643  55.834 -54.120  1.00  0.00    -0.366 N 
HETATM    3  C   UNL     1     -41.460  56.864 -53.821  1.00  0.00     0.123 A 
HETATM    4  N   UNL     1     -42.726  56.928 -54.328  1.00  0.00    -0.240 N 
HETATM    5  N   UNL     1     -43.472  57.929 -53.826  1.00  0.00    -0.165 NA
HETATM    6  C   UNL     1     -42.604  58.584 -53.018  1.00  0.00     0.148 A 
HETATM    7  C   UNL     1     -41.319  57.969 -53.026  1.00  0.00     0.089 A 
HETATM    8  C   UNL     1     -43.280  55.888 -55.171  1.00  0.00     0.221 C 
HETATM    9  C   UNL     1     -42.698  54.540 -54.725  1.00  0.00     0.066 C 
HETATM   10  H   UNL     1     -39.708  55.781 -53.713  1.00  0.00     0.161 HD
ENDROOT
BRANCH   6  11
HETATM   11  C   UNL     1     -43.010  59.744 -52.205  1.00  0.00     0.276 C 
HETATM   12  N   UNL     1     -44.368  59.742 -51.948  1.00  0.00    -0.322 N 
HETATM   13  H   UNL     1     -44.865  58.985 -52.413  1.00  0.00     0.169 HD
HETATM   14  O   UNL     1     -42.192  60.571 -51.819  1.00  0.00    -0.266 OA
BRANCH  12  15
HETATM   15  C   UNL     1     -45.102  60.612 -51.126  1.00  0.00     0.035 A 
HETATM   16  C   UNL     1     -46.011  61.555 -51.612  1.00  0.00     0.039 A 
HETATM   17  C   UNL     1     -46.701  62.419 -50.742  1.00  0.00    -0.028 A 
HETATM   18  C   UNL     1     -46.473  62.308 -49.364  1.00  0.00     0.010 A 
HETATM   19  C   UNL     1     -45.567  61.371 -48.870  1.00  0.00     0.003 A 
HETATM   20  C   UNL     1     -44.880  60.531 -49.748  1.00  0.00     0.029 A 
BRANCH  17  21
HETATM   21  C   UNL     1     -47.677  63.422 -51.317  1.00  0.00     0.147 C 
HETATM   22  C   UNL     1     -48.618  63.966 -50.248  1.00  0.00     0.044 C 
BRANCH  21  23
HETATM   23  O   UNL     1     -46.983  64.514 -51.921  1.00  0.00    -0.391 OA
HETATM   24  H   UNL     1     -47.366  64.637 -52.805  1.00  0.00     0.210 HD
ENDBRANCH  21  23
ENDBRANCH  17  21
ENDBRANCH  12  15
ENDBRANCH   6  11
BRANCH   8  25
HETATM   25  C   UNL     1     -43.015  56.192 -56.627  1.00  0.00     0.409 C 
HETATM   26  F   UNL     1     -41.949  57.006 -56.794  1.00  0.00    -0.169 F 
HETATM   27  F   UNL     1     -42.820  55.095 -57.387  1.00  0.00    -0.169 F 
HETATM   28  F   UNL     1     -44.084  56.843 -57.158  1.00  0.00    -0.169 F 
ENDBRANCH   8  25
BRANCH   1  29
HETATM   29  C   UNL     1     -40.662  53.427 -53.754  1.00  0.00    -0.035 A 
HETATM   30  C   UNL     1     -40.631  53.562 -52.354  1.00  0.00     0.010 A 
HETATM   31  C   UNL     1     -40.191  52.516 -51.542  1.00  0.00     0.007 A 
HETATM   32  C   UNL     1     -39.767  51.312 -52.110  1.00  0.00    -0.062 A 
HETATM   33  C   UNL     1     -39.327  50.176 -51.235  1.00  0.00     0.048 C 
HETATM   34  C   UNL     1     -39.816  51.163 -53.502  1.00  0.00     0.007 A 
HETATM   35  C   UNL     1     -40.255  52.211 -54.317  1.00  0.00     0.010 A 
ENDBRANCH   1  29
TORSDOF 6
ENDMDL
