MODEL 1
REMARK VINA RESULT:      -8.0      0.000      0.000
REMARK  3 active torsions:
REMARK  status: ('A' for Active; 'I' for Inactive)
REMARK    1  A    between atoms: C_3  and  N_4 
REMARK       I    between atoms: N_4  and  C_5 
REMARK    2  A    between atoms: C_5  and  C_6 
REMARK    3  A    between atoms: C_6  and  C_7 
ROOT
HETATM    1  C   UNL     1     -42.770  56.776 -56.226  1.00  0.00     0.286 C 
HETATM    2  N   UNL     1     -42.084  56.922 -57.584  1.00  0.00    -0.056 N 
HETATM    3  H   UNL     1     -41.714  57.877 -57.652  1.00  0.00     0.278 HD
HETATM    4  H   UNL     1     -41.243  56.307 -57.563  1.00  0.00     0.278 HD
HETATM    5  C   UNL     1     -42.964  56.603 -58.765  1.00  0.00     0.209 C 
HETATM    6  C   UNL     1     -44.249  57.470 -58.691  1.00  0.00     0.115 C 
HETATM    7  N   UNL     1     -44.876  57.426 -57.370  1.00  0.00    -0.353 N 
HETATM    8  C   UNL     1     -44.173  57.399 -56.192  1.00  0.00     0.249 C 
HETATM    9  O   UNL     1     -44.706  57.741 -55.143  1.00  0.00    -0.271 OA
HETATM   10  C   UNL     1     -42.176  56.815 -60.059  1.00  0.00     0.035 C 
HETATM   11  C   UNL     1     -41.966  58.286 -60.416  1.00  0.00     0.002 C 
HETATM   12  C   UNL     1     -43.282  59.054 -60.418  1.00  0.00     0.002 C 
HETATM   13  C   UNL     1     -43.992  58.934 -59.075  1.00  0.00     0.027 C 
HETATM   14  H   UNL     1     -45.808  57.825 -57.272  1.00  0.00     0.163 HD
ENDROOT
BRANCH   1  15
HETATM   15  C   UNL     1     -42.909  55.309 -55.805  1.00  0.00     0.146 C 
BRANCH  15  16
HETATM   16  C   UNL     1     -41.702  54.834 -55.034  1.00  0.00     0.224 C 
HETATM   17  N   UNL     1     -41.939  53.649 -54.375  1.00  0.00    -0.327 N 
HETATM   18  H   UNL     1     -42.763  53.133 -54.666  1.00  0.00     0.169 HD
HETATM   19  O   UNL     1     -40.648  55.453 -55.144  1.00  0.00    -0.273 OA
BRANCH  17  20
HETATM   20  C   UNL     1     -41.069  52.907 -53.541  1.00  0.00     0.040 A 
HETATM   21  C   UNL     1     -40.796  53.153 -52.185  1.00  0.00    -0.035 A 
HETATM   22  C   UNL     1     -41.467  54.202 -51.345  1.00  0.00     0.050 C 
HETATM   23  C   UNL     1     -39.862  52.325 -51.523  1.00  0.00     0.009 A 
HETATM   24  C   UNL     1     -39.257  51.247 -52.165  1.00  0.00     0.001 A 
HETATM   25  C   UNL     1     -39.580  50.967 -53.484  1.00  0.00     0.002 A 
HETATM   26  C   UNL     1     -40.482  51.787 -54.161  1.00  0.00     0.030 A 
ENDBRANCH  17  20
ENDBRANCH  15  16
ENDBRANCH   1  15
TORSDOF 3
ENDMDL
MODEL 2
REMARK VINA RESULT:      -7.9      3.614      4.852
REMARK  3 active torsions:
REMARK  status: ('A' for Active; 'I' for Inactive)
REMARK    1  A    between atoms: C_3  and  N_4 
REMARK       I    between atoms: N_4  and  C_5 
REMARK    2  A    between atoms: C_5  and  C_6 
REMARK    3  A    between atoms: C_6  and  C_7 
ROOT
HETATM    1  C   UNL     1     -41.389  56.790 -51.803  1.00  0.00     0.286 C 
HETATM    2  N   UNL     1     -42.366  56.711 -52.976  1.00  0.00    -0.056 N 
HETATM    3  H   UNL     1     -42.002  57.301 -53.733  1.00  0.00     0.278 HD
HETATM    4  H   UNL     1     -42.314  55.737 -53.344  1.00  0.00     0.278 HD
HETATM    5  C   UNL     1     -43.783  57.090 -52.633  1.00  0.00     0.209 C 
HETATM    6  C   UNL     1     -43.791  58.504 -51.994  1.00  0.00     0.115 C 
HETATM    7  N   UNL     1     -42.796  58.640 -50.930  1.00  0.00    -0.353 N 
HETATM    8  C   UNL     1     -41.547  58.074 -50.977  1.00  0.00     0.249 C 
HETATM    9  O   UNL     1     -40.641  58.511 -50.278  1.00  0.00    -0.271 OA
HETATM   10  C   UNL     1     -44.653  57.000 -53.890  1.00  0.00     0.035 C 
HETATM   11  C   UNL     1     -44.422  58.141 -54.879  1.00  0.00     0.002 C 
HETATM   12  C   UNL     1     -44.539  59.501 -54.201  1.00  0.00     0.002 C 
HETATM   13  C   UNL     1     -43.573  59.617 -53.029  1.00  0.00     0.027 C 
HETATM   14  H   UNL     1     -42.838  59.472 -50.342  1.00  0.00     0.163 HD
ENDROOT
BRANCH   1  15
HETATM   15  C   UNL     1     -41.540  55.604 -50.844  1.00  0.00     0.146 C 
BRANCH  15  16
HETATM   16  C   UNL     1     -41.670  54.299 -51.589  1.00  0.00     0.224 C 
HETATM   17  N   UNL     1     -40.460  53.660 -51.735  1.00  0.00    -0.327 N 
HETATM   18  H   UNL     1     -39.704  53.995 -51.146  1.00  0.00     0.169 HD
HETATM   19  O   UNL     1     -42.791  53.894 -51.884  1.00  0.00    -0.273 OA
BRANCH  17  20
HETATM   20  C   UNL     1     -40.174  52.437 -52.387  1.00  0.00     0.040 A 
HETATM   21  C   UNL     1     -40.166  52.207 -53.773  1.00  0.00    -0.035 A 
HETATM   22  C   UNL     1     -40.366  53.261 -54.824  1.00  0.00     0.050 C 
HETATM   23  C   UNL     1     -39.896  50.901 -54.239  1.00  0.00     0.009 A 
HETATM   24  C   UNL     1     -39.583  49.863 -53.365  1.00  0.00     0.001 A 
HETATM   25  C   UNL     1     -39.526  50.109 -52.002  1.00  0.00     0.002 A 
HETATM   26  C   UNL     1     -39.813  51.386 -51.521  1.00  0.00     0.030 A 
ENDBRANCH  17  20
ENDBRANCH  15  16
ENDBRANCH   1  15
TORSDOF 3
ENDMDL
MODEL 3
REMARK VINA RESULT:      -7.9      1.742      1.944
REMARK  3 active torsions:
REMARK  status: ('A' for Active; 'I' for Inactive)
REMARK    1  A    between atoms: C_3  and  N_4 
REMARK       I    between atoms: N_4  and  C_5 
REMARK    2  A    between atoms: C_5  and  C_6 
REMARK    3  A    between atoms: C_6  and  C_7 
ROOT
HETATM    1  C   UNL     1     -41.826  56.781 -55.188  1.00  0.00     0.286 C 
HETATM    2  N   UNL     1     -42.104  56.037 -56.493  1.00  0.00    -0.056 N 
HETATM    3  H   UNL     1     -41.250  56.063 -57.062  1.00  0.00     0.278 HD
HETATM    4  H   UNL     1     -42.232  55.033 -56.245  1.00  0.00     0.278 HD
HETATM    5  C   UNL     1     -43.283  56.561 -57.271  1.00  0.00     0.209 C 
HETATM    6  C   UNL     1     -43.091  58.080 -57.523  1.00  0.00     0.115 C 
HETATM    7  N   UNL     1     -42.729  58.806 -56.306  1.00  0.00    -0.353 N 
HETATM    8  C   UNL     1     -41.889  58.307 -55.342  1.00  0.00     0.249 C 
HETATM    9  O   UNL     1     -41.323  59.062 -54.560  1.00  0.00    -0.271 OA
HETATM   10  C   UNL     1     -43.438  55.758 -58.564  1.00  0.00     0.035 C 
HETATM   11  C   UNL     1     -42.392  56.093 -59.625  1.00  0.00     0.002 C 
HETATM   12  C   UNL     1     -42.326  57.593 -59.890  1.00  0.00     0.002 C 
HETATM   13  C   UNL     1     -42.044  58.367 -58.609  1.00  0.00     0.027 C 
HETATM   14  H   UNL     1     -42.745  59.825 -56.336  1.00  0.00     0.163 HD
ENDROOT
BRANCH   1  15
HETATM   15  C   UNL     1     -42.810  56.390 -54.079  1.00  0.00     0.146 C 
BRANCH  15  16
HETATM   16  C   UNL     1     -42.594  54.970 -53.618  1.00  0.00     0.224 C 
HETATM   17  N   UNL     1     -41.261  54.628 -53.593  1.00  0.00    -0.327 N 
HETATM   18  H   UNL     1     -40.601  55.398 -53.644  1.00  0.00     0.169 HD
HETATM   19  O   UNL     1     -43.559  54.321 -53.226  1.00  0.00    -0.273 OA
BRANCH  17  20
HETATM   20  C   UNL     1     -40.667  53.393 -53.241  1.00  0.00     0.040 A 
HETATM   21  C   UNL     1     -40.174  53.030 -51.977  1.00  0.00    -0.035 A 
HETATM   22  C   UNL     1     -40.283  53.867 -50.734  1.00  0.00     0.050 C 
HETATM   23  C   UNL     1     -39.573  51.761 -51.825  1.00  0.00     0.009 A 
HETATM   24  C   UNL     1     -39.513  50.849 -52.877  1.00  0.00     0.001 A 
HETATM   25  C   UNL     1     -40.061  51.185 -54.105  1.00  0.00     0.002 A 
HETATM   26  C   UNL     1     -40.638  52.443 -54.281  1.00  0.00     0.030 A 
ENDBRANCH  17  20
ENDBRANCH  15  16
ENDBRANCH   1  15
TORSDOF 3
ENDMDL
MODEL 4
REMARK VINA RESULT:      -7.7      3.411      4.911
REMARK  3 active torsions:
REMARK  status: ('A' for Active; 'I' for Inactive)
REMARK    1  A    between atoms: C_3  and  N_4 
REMARK       I    between atoms: N_4  and  C_5 
REMARK    2  A    between atoms: C_5  and  C_6 
REMARK    3  A    between atoms: C_6  and  C_7 
ROOT
HETATM    1  C   UNL     1     -42.420  56.585 -53.235  1.00  0.00     0.286 C 
HETATM    2  N   UNL     1     -41.378  57.187 -52.293  1.00  0.00    -0.056 N 
HETATM    3  H   UNL     1     -41.732  57.106 -51.333  1.00  0.00     0.278 HD
HETATM    4  H   UNL     1     -40.545  56.562 -52.328  1.00  0.00     0.278 HD
HETATM    5  C   UNL     1     -41.003  58.613 -52.607  1.00  0.00     0.209 C 
HETATM    6  C   UNL     1     -42.290  59.480 -52.646  1.00  0.00     0.115 C 
HETATM    7  N   UNL     1     -43.343  58.879 -53.465  1.00  0.00    -0.353 N 
HETATM    8  C   UNL     1     -43.597  57.531 -53.511  1.00  0.00     0.249 C 
HETATM    9  O   UNL     1     -44.687  57.117 -53.888  1.00  0.00    -0.271 OA
HETATM   10  C   UNL     1     -39.982  59.109 -51.582  1.00  0.00     0.035 C 
HETATM   11  C   UNL     1     -40.584  59.406 -50.209  1.00  0.00     0.002 C 
HETATM   12  C   UNL     1     -41.784  60.339 -50.316  1.00  0.00     0.002 C 
HETATM   13  C   UNL     1     -42.847  59.766 -51.244  1.00  0.00     0.027 C 
HETATM   14  H   UNL     1     -44.158  59.449 -53.686  1.00  0.00     0.163 HD
ENDROOT
BRANCH   1  15
HETATM   15  C   UNL     1     -41.817  56.193 -54.589  1.00  0.00     0.146 C 
BRANCH  15  16
HETATM   16  C   UNL     1     -40.822  55.068 -54.451  1.00  0.00     0.224 C 
HETATM   17  N   UNL     1     -41.338  53.999 -53.756  1.00  0.00    -0.327 N 
HETATM   18  H   UNL     1     -42.347  53.987 -53.639  1.00  0.00     0.169 HD
HETATM   19  O   UNL     1     -39.743  55.157 -55.030  1.00  0.00    -0.273 OA
BRANCH  17  20
HETATM   20  C   UNL     1     -40.712  52.779 -53.408  1.00  0.00     0.040 A 
HETATM   21  C   UNL     1     -40.096  52.472 -52.183  1.00  0.00    -0.035 A 
HETATM   22  C   UNL     1     -40.082  53.365 -50.975  1.00  0.00     0.050 C 
HETATM   23  C   UNL     1     -39.483  51.208 -52.033  1.00  0.00     0.009 A 
HETATM   24  C   UNL     1     -39.527  50.250 -53.043  1.00  0.00     0.001 A 
HETATM   25  C   UNL     1     -40.194  50.531 -54.225  1.00  0.00     0.002 A 
HETATM   26  C   UNL     1     -40.785  51.782 -54.401  1.00  0.00     0.030 A 
ENDBRANCH  17  20
ENDBRANCH  15  16
ENDBRANCH   1  15
TORSDOF 3
ENDMDL
MODEL 5
REMARK VINA RESULT:      -7.4      2.300      7.628
REMARK  3 active torsions:
REMARK  status: ('A' for Active; 'I' for Inactive)
REMARK    1  A    between atoms: C_3  and  N_4 
REMARK       I    between atoms: N_4  and  C_5 
REMARK    2  A    between atoms: C_5  and  C_6 
REMARK    3  A    between atoms: C_6  and  C_7 
ROOT
HETATM    1  C   UNL     1     -43.062  56.042 -55.939  1.00  0.00     0.286 C 
HETATM    2  N   UNL     1     -41.985  54.958 -55.943  1.00  0.00    -0.056 N 
HETATM    3  H   UNL     1     -42.437  54.060 -55.735  1.00  0.00     0.278 HD
HETATM    4  H   UNL     1     -41.651  54.870 -56.926  1.00  0.00     0.278 HD
HETATM    5  C   UNL     1     -40.840  55.213 -54.998  1.00  0.00     0.209 C 
HETATM    6  C   UNL     1     -41.401  55.440 -53.568  1.00  0.00     0.115 C 
HETATM    7  N   UNL     1     -42.501  56.404 -53.548  1.00  0.00    -0.353 N 
HETATM    8  C   UNL     1     -43.461  56.488 -54.525  1.00  0.00     0.249 C 
HETATM    9  O   UNL     1     -44.539  57.020 -54.293  1.00  0.00    -0.271 OA
HETATM   10  C   UNL     1     -39.850  54.049 -55.070  1.00  0.00     0.035 C 
HETATM   11  C   UNL     1     -40.342  52.780 -54.377  1.00  0.00     0.002 C 
HETATM   12  C   UNL     1     -40.787  53.061 -52.947  1.00  0.00     0.002 C 
HETATM   13  C   UNL     1     -41.866  54.135 -52.906  1.00  0.00     0.027 C 
HETATM   14  H   UNL     1     -42.822  56.742 -52.641  1.00  0.00     0.163 HD
ENDROOT
BRANCH   1  15
HETATM   15  C   UNL     1     -42.625  57.293 -56.709  1.00  0.00     0.146 C 
BRANCH  15  16
HETATM   16  C   UNL     1     -43.254  57.352 -58.079  1.00  0.00     0.224 C 
HETATM   17  N   UNL     1     -44.593  57.039 -58.051  1.00  0.00    -0.327 N 
HETATM   18  H   UNL     1     -45.035  57.047 -57.136  1.00  0.00     0.169 HD
HETATM   19  O   UNL     1     -42.581  57.756 -59.023  1.00  0.00    -0.273 OA
BRANCH  17  20
HETATM   20  C   UNL     1     -45.512  56.966 -59.124  1.00  0.00     0.040 A 
HETATM   21  C   UNL     1     -45.669  55.897 -60.023  1.00  0.00    -0.035 A 
HETATM   22  C   UNL     1     -44.945  54.584 -59.938  1.00  0.00     0.050 C 
HETATM   23  C   UNL     1     -46.615  56.023 -61.064  1.00  0.00     0.009 A 
HETATM   24  C   UNL     1     -47.429  57.148 -61.181  1.00  0.00     0.001 A 
HETATM   25  C   UNL     1     -47.318  58.172 -60.253  1.00  0.00     0.002 A 
HETATM   26  C   UNL     1     -46.373  58.076 -59.232  1.00  0.00     0.030 A 
ENDBRANCH  17  20
ENDBRANCH  15  16
ENDBRANCH   1  15
TORSDOF 3
ENDMDL
MODEL 6
REMARK VINA RESULT:      -7.3      1.705      7.961
REMARK  3 active torsions:
REMARK  status: ('A' for Active; 'I' for Inactive)
REMARK    1  A    between atoms: C_3  and  N_4 
REMARK       I    between atoms: N_4  and  C_5 
REMARK    2  A    between atoms: C_5  and  C_6 
REMARK    3  A    between atoms: C_6  and  C_7 
ROOT
HETATM    1  C   UNL     1     -41.603  55.152 -53.817  1.00  0.00     0.286 C 
HETATM    2  N   UNL     1     -41.941  55.410 -52.349  1.00  0.00    -0.056 N 
HETATM    3  H   UNL     1     -41.186  55.976 -51.944  1.00  0.00     0.278 HD
HETATM    4  H   UNL     1     -42.779  56.030 -52.338  1.00  0.00     0.278 HD
HETATM    5  C   UNL     1     -42.174  54.164 -51.534  1.00  0.00     0.209 C 
HETATM    6  C   UNL     1     -40.941  53.231 -51.668  1.00  0.00     0.115 C 
HETATM    7  N   UNL     1     -40.534  53.042 -53.060  1.00  0.00    -0.353 N 
HETATM    8  C   UNL     1     -40.566  54.036 -54.006  1.00  0.00     0.249 C 
HETATM    9  O   UNL     1     -39.882  53.951 -55.019  1.00  0.00    -0.271 OA
HETATM   10  C   UNL     1     -42.471  54.552 -50.083  1.00  0.00     0.035 C 
HETATM   11  C   UNL     1     -41.240  55.017 -49.307  1.00  0.00     0.002 C 
HETATM   12  C   UNL     1     -40.103  54.007 -49.405  1.00  0.00     0.002 C 
HETATM   13  C   UNL     1     -39.736  53.729 -50.857  1.00  0.00     0.027 C 
HETATM   14  H   UNL     1     -39.844  52.319 -53.261  1.00  0.00     0.163 HD
ENDROOT
BRANCH   1  15
HETATM   15  C   UNL     1     -42.842  54.772 -54.636  1.00  0.00     0.146 C 
BRANCH  15  16
HETATM   16  C   UNL     1     -43.200  55.846 -55.633  1.00  0.00     0.224 C 
HETATM   17  N   UNL     1     -42.673  55.596 -56.879  1.00  0.00    -0.327 N 
HETATM   18  H   UNL     1     -42.334  54.653 -57.040  1.00  0.00     0.169 HD
HETATM   19  O   UNL     1     -43.973  56.737 -55.292  1.00  0.00    -0.273 OA
BRANCH  17  20
HETATM   20  C   UNL     1     -42.770  56.373 -58.058  1.00  0.00     0.040 A 
HETATM   21  C   UNL     1     -43.417  56.010 -59.251  1.00  0.00    -0.035 A 
HETATM   22  C   UNL     1     -44.216  54.754 -59.452  1.00  0.00     0.050 C 
HETATM   23  C   UNL     1     -43.374  56.905 -60.343  1.00  0.00     0.009 A 
HETATM   24  C   UNL     1     -42.760  58.151 -60.242  1.00  0.00     0.001 A 
HETATM   25  C   UNL     1     -42.180  58.535 -59.043  1.00  0.00     0.002 A 
HETATM   26  C   UNL     1     -42.193  57.655 -57.960  1.00  0.00     0.030 A 
ENDBRANCH  17  20
ENDBRANCH  15  16
ENDBRANCH   1  15
TORSDOF 3
ENDMDL
MODEL 7
REMARK VINA RESULT:      -7.2      4.093      5.443
REMARK  3 active torsions:
REMARK  status: ('A' for Active; 'I' for Inactive)
REMARK    1  A    between atoms: C_3  and  N_4 
REMARK       I    between atoms: N_4  and  C_5 
REMARK    2  A    between atoms: C_5  and  C_6 
REMARK    3  A    between atoms: C_6  and  C_7 
ROOT
HETATM    1  C   UNL     1     -43.577  57.385 -52.143  1.00  0.00     0.286 C 
HETATM    2  N   UNL     1     -43.320  58.396 -51.026  1.00  0.00    -0.056 N 
HETATM    3  H   UNL     1     -44.169  58.458 -50.452  1.00  0.00     0.278 HD
HETATM    4  H   UNL     1     -42.601  57.976 -50.400  1.00  0.00     0.278 HD
HETATM    5  C   UNL     1     -42.896  59.760 -51.505  1.00  0.00     0.209 C 
HETATM    6  C   UNL     1     -43.949  60.294 -52.514  1.00  0.00     0.115 C 
HETATM    7  N   UNL     1     -44.286  59.310 -53.541  1.00  0.00    -0.353 N 
HETATM    8  C   UNL     1     -44.403  57.964 -53.299  1.00  0.00     0.249 C 
HETATM    9  O   UNL     1     -45.040  57.249 -54.064  1.00  0.00    -0.271 OA
HETATM   10  C   UNL     1     -42.702  60.685 -50.302  1.00  0.00     0.035 C 
HETATM   11  C   UNL     1     -44.011  61.146 -49.663  1.00  0.00     0.002 C 
HETATM   12  C   UNL     1     -44.956  61.746 -50.697  1.00  0.00     0.002 C 
HETATM   13  C   UNL     1     -45.238  60.761 -51.824  1.00  0.00     0.027 C 
HETATM   14  H   UNL     1     -44.838  59.624 -54.339  1.00  0.00     0.163 HD
ENDROOT
BRANCH   1  15
HETATM   15  C   UNL     1     -42.273  56.839 -52.738  1.00  0.00     0.146 C 
BRANCH  15  16
HETATM   16  C   UNL     1     -42.225  55.332 -52.686  1.00  0.00     0.224 C 
HETATM   17  N   UNL     1     -40.946  54.847 -52.830  1.00  0.00    -0.327 N 
HETATM   18  H   UNL     1     -40.196  55.521 -52.711  1.00  0.00     0.169 HD
HETATM   19  O   UNL     1     -43.255  54.715 -52.428  1.00  0.00    -0.273 OA
BRANCH  17  20
HETATM   20  C   UNL     1     -40.503  53.503 -52.855  1.00  0.00     0.040 A 
HETATM   21  C   UNL     1     -40.033  52.754 -51.764  1.00  0.00    -0.035 A 
HETATM   22  C   UNL     1     -40.012  53.226 -50.338  1.00  0.00     0.050 C 
HETATM   23  C   UNL     1     -39.591  51.432 -51.991  1.00  0.00     0.009 A 
HETATM   24  C   UNL     1     -39.667  50.843 -53.251  1.00  0.00     0.001 A 
HETATM   25  C   UNL     1     -40.193  51.562 -54.313  1.00  0.00     0.002 A 
HETATM   26  C   UNL     1     -40.613  52.877 -54.113  1.00  0.00     0.030 A 
ENDBRANCH  17  20
ENDBRANCH  15  16
ENDBRANCH   1  15
TORSDOF 3
ENDMDL
MODEL 8
REMARK VINA RESULT:      -7.1      1.982      7.803
REMARK  3 active torsions:
REMARK  status: ('A' for Active; 'I' for Inactive)
REMARK    1  A    between atoms: C_3  and  N_4 
REMARK       I    between atoms: N_4  and  C_5 
REMARK    2  A    between atoms: C_5  and  C_6 
REMARK    3  A    between atoms: C_6  and  C_7 
ROOT
HETATM    1  C   UNL     1     -40.662  53.761 -53.580  1.00  0.00     0.286 C 
HETATM    2  N   UNL     1     -41.205  54.743 -52.542  1.00  0.00    -0.056 N 
HETATM    3  H   UNL     1     -40.418  55.299 -52.188  1.00  0.00     0.278 HD
HETATM    4  H   UNL     1     -41.806  55.421 -53.057  1.00  0.00     0.278 HD
HETATM    5  C   UNL     1     -41.959  54.097 -51.409  1.00  0.00     0.209 C 
HETATM    6  C   UNL     1     -41.057  53.023 -50.744  1.00  0.00     0.115 C 
HETATM    7  N   UNL     1     -40.445  52.126 -51.724  1.00  0.00    -0.353 N 
HETATM    8  C   UNL     1     -39.985  52.536 -52.951  1.00  0.00     0.249 C 
HETATM    9  O   UNL     1     -39.162  51.864 -53.561  1.00  0.00    -0.271 OA
HETATM   10  C   UNL     1     -42.423  55.175 -50.426  1.00  0.00     0.035 C 
HETATM   11  C   UNL     1     -41.299  55.743 -49.561  1.00  0.00     0.002 C 
HETATM   12  C   UNL     1     -40.517  54.635 -48.865  1.00  0.00     0.002 C 
HETATM   13  C   UNL     1     -39.955  53.640 -49.872  1.00  0.00     0.027 C 
HETATM   14  H   UNL     1     -39.973  51.292 -51.377  1.00  0.00     0.163 HD
ENDROOT
BRANCH   1  15
HETATM   15  C   UNL     1     -41.759  53.248 -54.520  1.00  0.00     0.146 C 
BRANCH  15  16
HETATM   16  C   UNL     1     -42.651  54.367 -54.998  1.00  0.00     0.224 C 
HETATM   17  N   UNL     1     -42.157  54.981 -56.125  1.00  0.00    -0.327 N 
HETATM   18  H   UNL     1     -41.425  54.482 -56.622  1.00  0.00     0.169 HD
HETATM   19  O   UNL     1     -43.728  54.548 -54.435  1.00  0.00    -0.273 OA
BRANCH  17  20
HETATM   20  C   UNL     1     -42.693  56.072 -56.850  1.00  0.00     0.040 A 
HETATM   21  C   UNL     1     -42.769  57.408 -56.421  1.00  0.00    -0.035 A 
HETATM   22  C   UNL     1     -42.196  57.936 -55.137  1.00  0.00     0.050 C 
HETATM   23  C   UNL     1     -43.379  58.357 -57.271  1.00  0.00     0.009 A 
HETATM   24  C   UNL     1     -43.848  58.010 -58.536  1.00  0.00     0.001 A 
HETATM   25  C   UNL     1     -43.711  56.706 -58.984  1.00  0.00     0.002 A 
HETATM   26  C   UNL     1     -43.132  55.749 -58.149  1.00  0.00     0.030 A 
ENDBRANCH  17  20
ENDBRANCH  15  16
ENDBRANCH   1  15
TORSDOF 3
ENDMDL
MODEL 9
REMARK VINA RESULT:      -7.1      2.963      4.594
REMARK  3 active torsions:
REMARK  status: ('A' for Active; 'I' for Inactive)
REMARK    1  A    between atoms: C_3  and  N_4 
REMARK       I    between atoms: N_4  and  C_5 
REMARK    2  A    between atoms: C_5  and  C_6 
REMARK    3  A    between atoms: C_6  and  C_7 
ROOT
HETATM    1  C   UNL     1     -44.614  56.934 -54.741  1.00  0.00     0.286 C 
HETATM    2  N   UNL     1     -44.686  57.095 -53.223  1.00  0.00    -0.056 N 
HETATM    3  H   UNL     1     -45.675  57.160 -52.957  1.00  0.00     0.278 HD
HETATM    4  H   UNL     1     -44.354  56.197 -52.810  1.00  0.00     0.278 HD
HETATM    5  C   UNL     1     -43.906  58.264 -52.682  1.00  0.00     0.209 C 
HETATM    6  C   UNL     1     -44.365  59.559 -53.404  1.00  0.00     0.115 C 
HETATM    7  N   UNL     1     -44.399  59.405 -54.858  1.00  0.00    -0.353 N 
HETATM    8  C   UNL     1     -44.803  58.258 -55.494  1.00  0.00     0.249 C 
HETATM    9  O   UNL     1     -45.174  58.294 -56.662  1.00  0.00    -0.271 OA
HETATM   10  C   UNL     1     -44.082  58.336 -51.163  1.00  0.00     0.035 C 
HETATM   11  C   UNL     1     -45.453  58.848 -50.727  1.00  0.00     0.002 C 
HETATM   12  C   UNL     1     -45.795  60.171 -51.403  1.00  0.00     0.002 C 
HETATM   13  C   UNL     1     -45.739  60.046 -52.920  1.00  0.00     0.027 C 
HETATM   14  H   UNL     1     -44.525  60.243 -55.424  1.00  0.00     0.163 HD
ENDROOT
BRANCH   1  15
HETATM   15  C   UNL     1     -43.279  56.333 -55.196  1.00  0.00     0.146 C 
BRANCH  15  16
HETATM   16  C   UNL     1     -42.969  55.050 -54.467  1.00  0.00     0.224 C 
HETATM   17  N   UNL     1     -41.635  54.943 -54.146  1.00  0.00    -0.327 N 
HETATM   18  H   UNL     1     -41.090  55.797 -54.210  1.00  0.00     0.169 HD
HETATM   19  O   UNL     1     -43.896  54.310 -54.148  1.00  0.00    -0.273 OA
BRANCH  17  20
HETATM   20  C   UNL     1     -40.962  53.887 -53.487  1.00  0.00     0.040 A 
HETATM   21  C   UNL     1     -40.690  53.794 -52.111  1.00  0.00    -0.035 A 
HETATM   22  C   UNL     1     -41.164  54.769 -51.071  1.00  0.00     0.050 C 
HETATM   23  C   UNL     1     -39.965  52.678 -51.639  1.00  0.00     0.009 A 
HETATM   24  C   UNL     1     -39.568  51.650 -52.492  1.00  0.00     0.001 A 
HETATM   25  C   UNL     1     -39.896  51.712 -53.837  1.00  0.00     0.002 A 
HETATM   26  C   UNL     1     -40.591  52.818 -54.326  1.00  0.00     0.030 A 
ENDBRANCH  17  20
ENDBRANCH  15  16
ENDBRANCH   1  15
TORSDOF 3
ENDMDL
MODEL 10
REMARK VINA RESULT:      -7.0     14.738     16.741
REMARK  3 active torsions:
REMARK  status: ('A' for Active; 'I' for Inactive)
REMARK    1  A    between atoms: C_3  and  N_4 
REMARK       I    between atoms: N_4  and  C_5 
REMARK    2  A    between atoms: C_5  and  C_6 
REMARK    3  A    between atoms: C_6  and  C_7 
ROOT
HETATM    1  C   UNL     1     -35.994  40.340 -55.129  1.00  0.00     0.286 C 
HETATM    2  N   UNL     1     -36.416  39.727 -56.464  1.00  0.00    -0.056 N 
HETATM    3  H   UNL     1     -35.677  39.919 -57.150  1.00  0.00     0.278 HD
HETATM    4  H   UNL     1     -36.404  38.693 -56.336  1.00  0.00     0.278 HD
HETATM    5  C   UNL     1     -37.754  40.199 -56.971  1.00  0.00     0.209 C 
HETATM    6  C   UNL     1     -37.753  41.749 -57.043  1.00  0.00     0.115 C 
HETATM    7  N   UNL     1     -37.261  42.364 -55.810  1.00  0.00    -0.353 N 
HETATM    8  C   UNL     1     -36.227  41.856 -55.064  1.00  0.00     0.249 C 
HETATM    9  O   UNL     1     -35.612  42.574 -54.285  1.00  0.00    -0.271 OA
HETATM   10  C   UNL     1     -38.049  39.541 -58.321  1.00  0.00     0.035 C 
HETATM   11  C   UNL     1     -37.233  40.118 -59.477  1.00  0.00     0.002 C 
HETATM   12  C   UNL     1     -37.356  41.636 -59.543  1.00  0.00     0.002 C 
HETATM   13  C   UNL     1     -36.937  42.281 -58.229  1.00  0.00     0.027 C 
HETATM   14  H   UNL     1     -37.379  43.370 -55.699  1.00  0.00     0.163 HD
ENDROOT
BRANCH   1  15
HETATM   15  C   UNL     1     -36.734  39.710 -53.944  1.00  0.00     0.146 C 
BRANCH  15  16
HETATM   16  C   UNL     1     -35.777  39.103 -52.948  1.00  0.00     0.224 C 
HETATM   17  N   UNL     1     -35.058  40.058 -52.269  1.00  0.00    -0.327 N 
HETATM   18  H   UNL     1     -35.407  41.009 -52.331  1.00  0.00     0.169 HD
HETATM   19  O   UNL     1     -35.803  37.888 -52.767  1.00  0.00    -0.273 OA
BRANCH  17  20
HETATM   20  C   UNL     1     -34.059  39.884 -51.282  1.00  0.00     0.040 A 
HETATM   21  C   UNL     1     -34.250  39.428 -49.966  1.00  0.00    -0.035 A 
HETATM   22  C   UNL     1     -35.556  38.945 -49.402  1.00  0.00     0.050 C 
HETATM   23  C   UNL     1     -33.132  39.358 -49.106  1.00  0.00     0.009 A 
HETATM   24  C   UNL     1     -31.849  39.672 -49.548  1.00  0.00     0.001 A 
HETATM   25  C   UNL     1     -31.654  40.056 -50.866  1.00  0.00     0.002 A 
HETATM   26  C   UNL     1     -32.749  40.154 -51.724  1.00  0.00     0.030 A 
ENDBRANCH  17  20
ENDBRANCH  15  16
ENDBRANCH   1  15
TORSDOF 3
ENDMDL
