MODEL 1
REMARK VINA RESULT:      -6.9      0.000      0.000
REMARK  5 active torsions:
REMARK  status: ('A' for Active; 'I' for Inactive)
REMARK    1  A    between atoms: C_2  and  N_3 
REMARK    2  A    between atoms: N_3  and  C_6 
REMARK    3  A    between atoms: C_6  and  C_7 
REMARK    4  A    between atoms: C_8  and  N_9 
REMARK       I    between atoms: N_9  and  C_10 
REMARK    5  A    between atoms: C_10  and  C_11 
ROOT
HETATM    1  C   UNL     1     -40.010  52.266 -52.250  1.00  0.00    -0.006 A 
HETATM    2  C   UNL     1     -40.526  52.351 -53.562  1.00  0.00     0.043 A 
HETATM    3  C   UNL     1     -40.507  51.187 -54.363  1.00  0.00     0.030 A 
HETATM    4  C   UNL     1     -39.968  49.980 -53.916  1.00  0.00     0.002 A 
HETATM    5  C   UNL     1     -39.434  49.903 -52.644  1.00  0.00     0.001 A 
HETATM    6  C   UNL     1     -39.460  51.027 -51.822  1.00  0.00     0.011 A 
ENDROOT
BRANCH   2   7
HETATM    7  N   UNL     1     -41.074  53.466 -54.242  1.00  0.00    -0.321 N 
HETATM    8  C   UNL     1     -42.129  54.308 -53.973  1.00  0.00     0.274 C 
HETATM    9  O   UNL     1     -42.954  54.171 -53.078  1.00  0.00    -0.266 OA
HETATM   10  H   UNL     1     -40.562  53.762 -55.078  1.00  0.00     0.169 HD
BRANCH   8  11
HETATM   11  C   UNL     1     -42.273  55.429 -54.954  1.00  0.00     0.126 A 
HETATM   12  N   UNL     1     -42.646  55.054 -56.202  1.00  0.00    -0.231 NA
HETATM   13  C   UNL     1     -42.865  56.063 -57.070  1.00  0.00     0.127 A 
HETATM   14 CL   UNL     1     -43.409  55.558 -58.613  1.00  0.00    -0.062 Cl
HETATM   15  C   UNL     1     -42.702  57.408 -56.773  1.00  0.00     0.044 A 
HETATM   16  C   UNL     1     -42.288  57.751 -55.488  1.00  0.00     0.006 A 
HETATM   17  C   UNL     1     -42.077  56.745 -54.551  1.00  0.00     0.037 A 
ENDBRANCH   8  11
ENDBRANCH   2   7
BRANCH   1  18
HETATM   18  C   UNL     1     -39.989  53.356 -51.207  1.00  0.00     0.273 C 
BRANCH  18  19
HETATM   19  N   UNL     1     -41.304  53.531 -50.539  1.00  0.00    -0.072 N 
HETATM   20  H   UNL     1     -41.685  52.625 -50.253  1.00  0.00     0.277 HD
HETATM   21  H   UNL     1     -41.906  53.891 -51.297  1.00  0.00     0.277 HD
BRANCH  19  22
HETATM   22  C   UNL     1     -41.355  54.535 -49.452  1.00  0.00     0.228 C 
HETATM   23  C   UNL     1     -40.449  54.074 -48.327  1.00  0.00     0.034 C 
ENDBRANCH  19  22
ENDBRANCH  18  19
ENDBRANCH   1  18
TORSDOF 5
ENDMDL
MODEL 2
REMARK VINA RESULT:      -6.8      1.426      1.670
REMARK  5 active torsions:
REMARK  status: ('A' for Active; 'I' for Inactive)
REMARK    1  A    between atoms: C_2  and  N_3 
REMARK    2  A    between atoms: N_3  and  C_6 
REMARK    3  A    between atoms: C_6  and  C_7 
REMARK    4  A    between atoms: C_8  and  N_9 
REMARK       I    between atoms: N_9  and  C_10 
REMARK    5  A    between atoms: C_10  and  C_11 
ROOT
HETATM    1  C   UNL     1     -40.009  52.256 -52.233  1.00  0.00    -0.006 A 
HETATM    2  C   UNL     1     -40.561  52.350 -53.530  1.00  0.00     0.043 A 
HETATM    3  C   UNL     1     -40.553  51.194 -54.343  1.00  0.00     0.030 A 
HETATM    4  C   UNL     1     -39.992  49.988 -53.924  1.00  0.00     0.002 A 
HETATM    5  C   UNL     1     -39.423  49.902 -52.668  1.00  0.00     0.001 A 
HETATM    6  C   UNL     1     -39.436  51.018 -51.833  1.00  0.00     0.011 A 
ENDROOT
BRANCH   2   7
HETATM    7  N   UNL     1     -41.137  53.467 -54.183  1.00  0.00    -0.321 N 
HETATM    8  C   UNL     1     -42.207  54.280 -53.890  1.00  0.00     0.274 C 
HETATM    9  O   UNL     1     -43.023  54.107 -52.993  1.00  0.00    -0.266 OA
HETATM   10  H   UNL     1     -40.637  53.791 -55.016  1.00  0.00     0.169 HD
BRANCH   8  11
HETATM   11  C   UNL     1     -42.381  55.418 -54.846  1.00  0.00     0.126 A 
HETATM   12  N   UNL     1     -42.084  56.641 -54.342  1.00  0.00    -0.231 NA
HETATM   13  C   UNL     1     -42.151  57.663 -55.220  1.00  0.00     0.127 A 
HETATM   14 CL   UNL     1     -41.695  59.180 -54.570  1.00  0.00    -0.062 Cl
HETATM   15  C   UNL     1     -42.526  57.537 -56.549  1.00  0.00     0.044 A 
HETATM   16  C   UNL     1     -42.853  56.268 -57.022  1.00  0.00     0.006 A 
HETATM   17  C   UNL     1     -42.771  55.180 -56.159  1.00  0.00     0.037 A 
ENDBRANCH   8  11
ENDBRANCH   2   7
BRANCH   1  18
HETATM   18  C   UNL     1     -39.969  53.335 -51.180  1.00  0.00     0.273 C 
BRANCH  18  19
HETATM   19  N   UNL     1     -41.277  53.513 -50.497  1.00  0.00    -0.072 N 
HETATM   20  H   UNL     1     -41.666  52.606 -50.223  1.00  0.00     0.277 HD
HETATM   21  H   UNL     1     -41.881  53.893 -51.242  1.00  0.00     0.277 HD
BRANCH  19  22
HETATM   22  C   UNL     1     -41.306  54.497 -49.390  1.00  0.00     0.228 C 
HETATM   23  C   UNL     1     -40.331  54.048 -48.320  1.00  0.00     0.034 C 
ENDBRANCH  19  22
ENDBRANCH  18  19
ENDBRANCH   1  18
TORSDOF 5
ENDMDL
MODEL 3
REMARK VINA RESULT:      -6.7      1.558      2.105
REMARK  5 active torsions:
REMARK  status: ('A' for Active; 'I' for Inactive)
REMARK    1  A    between atoms: C_2  and  N_3 
REMARK    2  A    between atoms: N_3  and  C_6 
REMARK    3  A    between atoms: C_6  and  C_7 
REMARK    4  A    between atoms: C_8  and  N_9 
REMARK       I    between atoms: N_9  and  C_10 
REMARK    5  A    between atoms: C_10  and  C_11 
ROOT
HETATM    1  C   UNL     1     -40.756  53.729 -52.453  1.00  0.00    -0.006 A 
HETATM    2  C   UNL     1     -40.797  53.516 -53.849  1.00  0.00     0.043 A 
HETATM    3  C   UNL     1     -40.231  52.327 -54.359  1.00  0.00     0.030 A 
HETATM    4  C   UNL     1     -39.608  51.384 -53.542  1.00  0.00     0.002 A 
HETATM    5  C   UNL     1     -39.538  51.604 -52.180  1.00  0.00     0.001 A 
HETATM    6  C   UNL     1     -40.108  52.756 -51.643  1.00  0.00     0.011 A 
ENDROOT
BRANCH   2   7
HETATM    7  N   UNL     1     -41.328  54.344 -54.869  1.00  0.00    -0.321 N 
HETATM    8  C   UNL     1     -42.596  54.797 -55.150  1.00  0.00     0.274 C 
HETATM    9  O   UNL     1     -43.629  54.441 -54.598  1.00  0.00    -0.266 OA
HETATM   10  H   UNL     1     -40.635  54.747 -55.507  1.00  0.00     0.169 HD
BRANCH   8  11
HETATM   11  C   UNL     1     -42.656  55.749 -56.303  1.00  0.00     0.126 A 
HETATM   12  N   UNL     1     -43.070  55.205 -57.473  1.00  0.00    -0.231 NA
HETATM   13  C   UNL     1     -43.214  56.072 -58.497  1.00  0.00     0.127 A 
HETATM   14 CL   UNL     1     -43.812  55.367 -59.938  1.00  0.00    -0.062 Cl
HETATM   15  C   UNL     1     -42.938  57.429 -58.426  1.00  0.00     0.044 A 
HETATM   16  C   UNL     1     -42.485  57.944 -57.213  1.00  0.00     0.006 A 
HETATM   17  C   UNL     1     -42.349  57.092 -56.122  1.00  0.00     0.037 A 
ENDBRANCH   8  11
ENDBRANCH   2   7
BRANCH   1  18
HETATM   18  C   UNL     1     -41.350  54.887 -51.690  1.00  0.00     0.273 C 
BRANCH  18  19
HETATM   19  N   UNL     1     -42.828  54.792 -51.572  1.00  0.00    -0.072 N 
HETATM   20  H   UNL     1     -43.092  53.996 -50.985  1.00  0.00     0.277 HD
HETATM   21  H   UNL     1     -43.127  54.574 -52.536  1.00  0.00     0.277 HD
BRANCH  19  22
HETATM   22  C   UNL     1     -43.533  56.036 -51.186  1.00  0.00     0.228 C 
HETATM   23  C   UNL     1     -43.270  57.088 -52.245  1.00  0.00     0.034 C 
ENDBRANCH  19  22
ENDBRANCH  18  19
ENDBRANCH   1  18
TORSDOF 5
ENDMDL
MODEL 4
REMARK VINA RESULT:      -6.7      3.732      4.444
REMARK  5 active torsions:
REMARK  status: ('A' for Active; 'I' for Inactive)
REMARK    1  A    between atoms: C_2  and  N_3 
REMARK    2  A    between atoms: N_3  and  C_6 
REMARK    3  A    between atoms: C_6  and  C_7 
REMARK    4  A    between atoms: C_8  and  N_9 
REMARK       I    between atoms: N_9  and  C_10 
REMARK    5  A    between atoms: C_10  and  C_11 
ROOT
HETATM    1  C   UNL     1     -40.912  53.628 -52.472  1.00  0.00    -0.006 A 
HETATM    2  C   UNL     1     -40.928  54.907 -53.071  1.00  0.00     0.043 A 
HETATM    3  C   UNL     1     -40.556  55.011 -54.430  1.00  0.00     0.030 A 
HETATM    4  C   UNL     1     -40.145  53.910 -55.180  1.00  0.00     0.002 A 
HETATM    5  C   UNL     1     -40.099  52.662 -54.587  1.00  0.00     0.001 A 
HETATM    6  C   UNL     1     -40.482  52.523 -53.255  1.00  0.00     0.011 A 
ENDROOT
BRANCH   2   7
HETATM    7  N   UNL     1     -41.260  56.162 -52.503  1.00  0.00    -0.321 N 
HETATM    8  C   UNL     1     -42.419  56.680 -51.976  1.00  0.00     0.274 C 
HETATM    9  O   UNL     1     -43.526  56.157 -52.010  1.00  0.00    -0.266 OA
HETATM   10  H   UNL     1     -40.476  56.815 -52.401  1.00  0.00     0.169 HD
BRANCH   8  11
HETATM   11  C   UNL     1     -42.260  58.050 -51.394  1.00  0.00     0.126 A 
HETATM   12  N   UNL     1     -43.340  58.858 -51.529  1.00  0.00    -0.231 NA
HETATM   13  C   UNL     1     -43.240  60.064 -50.931  1.00  0.00     0.127 A 
HETATM   14 CL   UNL     1     -44.649  61.029 -51.054  1.00  0.00    -0.062 Cl
HETATM   15  C   UNL     1     -42.123  60.513 -50.243  1.00  0.00     0.044 A 
HETATM   16  C   UNL     1     -41.022  59.664 -50.152  1.00  0.00     0.006 A 
HETATM   17  C   UNL     1     -41.090  58.400 -50.730  1.00  0.00     0.037 A 
ENDBRANCH   8  11
ENDBRANCH   2   7
BRANCH   1  18
HETATM   18  C   UNL     1     -41.328  53.277 -51.065  1.00  0.00     0.273 C 
BRANCH  18  19
HETATM   19  N   UNL     1     -40.167  53.099 -50.155  1.00  0.00    -0.072 N 
HETATM   20  H   UNL     1     -39.369  52.708 -50.663  1.00  0.00     0.277 HD
HETATM   21  H   UNL     1     -40.495  52.376 -49.496  1.00  0.00     0.277 HD
BRANCH  19  22
HETATM   22  C   UNL     1     -39.793  54.275 -49.336  1.00  0.00     0.228 C 
HETATM   23  C   UNL     1     -41.062  54.987 -48.908  1.00  0.00     0.034 C 
ENDBRANCH  19  22
ENDBRANCH  18  19
ENDBRANCH   1  18
TORSDOF 5
ENDMDL
MODEL 5
REMARK VINA RESULT:      -6.6      3.428      5.131
REMARK  5 active torsions:
REMARK  status: ('A' for Active; 'I' for Inactive)
REMARK    1  A    between atoms: C_2  and  N_3 
REMARK    2  A    between atoms: N_3  and  C_6 
REMARK    3  A    between atoms: C_6  and  C_7 
REMARK    4  A    between atoms: C_8  and  N_9 
REMARK       I    between atoms: N_9  and  C_10 
REMARK    5  A    between atoms: C_10  and  C_11 
ROOT
HETATM    1  C   UNL     1     -40.640  53.599 -54.126  1.00  0.00    -0.006 A 
HETATM    2  C   UNL     1     -40.642  54.156 -52.828  1.00  0.00     0.043 A 
HETATM    3  C   UNL     1     -40.197  53.350 -51.756  1.00  0.00     0.030 A 
HETATM    4  C   UNL     1     -39.795  52.026 -51.931  1.00  0.00     0.002 A 
HETATM    5  C   UNL     1     -39.822  51.469 -53.195  1.00  0.00     0.001 A 
HETATM    6  C   UNL     1     -40.233  52.245 -54.276  1.00  0.00     0.011 A 
ENDROOT
BRANCH   2   7
HETATM    7  N   UNL     1     -41.046  55.446 -52.404  1.00  0.00    -0.321 N 
HETATM    8  C   UNL     1     -42.273  56.058 -52.288  1.00  0.00     0.274 C 
HETATM    9  O   UNL     1     -43.343  55.612 -52.683  1.00  0.00    -0.266 OA
HETATM   10  H   UNL     1     -40.293  56.045 -52.051  1.00  0.00     0.169 HD
BRANCH   8  11
HETATM   11  C   UNL     1     -42.211  57.428 -51.691  1.00  0.00     0.126 A 
HETATM   12  N   UNL     1     -40.973  57.833 -51.313  1.00  0.00    -0.231 NA
HETATM   13  C   UNL     1     -40.892  59.100 -50.856  1.00  0.00     0.127 A 
HETATM   14 CL   UNL     1     -39.303  59.604 -50.461  1.00  0.00    -0.062 Cl
HETATM   15  C   UNL     1     -41.969  59.962 -50.725  1.00  0.00     0.044 A 
HETATM   16  C   UNL     1     -43.230  59.498 -51.096  1.00  0.00     0.006 A 
HETATM   17  C   UNL     1     -43.358  58.207 -51.600  1.00  0.00     0.037 A 
ENDBRANCH   8  11
ENDBRANCH   2   7
BRANCH   1  18
HETATM   18  C   UNL     1     -41.009  54.291 -55.414  1.00  0.00     0.273 C 
BRANCH  18  19
HETATM   19  N   UNL     1     -42.469  54.540 -55.528  1.00  0.00    -0.072 N 
HETATM   20  H   UNL     1     -42.935  54.364 -54.634  1.00  0.00     0.277 HD
HETATM   21  H   UNL     1     -42.781  53.808 -56.186  1.00  0.00     0.277 HD
BRANCH  19  22
HETATM   22  C   UNL     1     -42.865  55.837 -56.125  1.00  0.00     0.228 C 
HETATM   23  C   UNL     1     -43.031  55.649 -57.621  1.00  0.00     0.034 C 
ENDBRANCH  19  22
ENDBRANCH  18  19
ENDBRANCH   1  18
TORSDOF 5
ENDMDL
MODEL 6
REMARK VINA RESULT:      -6.6      3.094      5.954
REMARK  5 active torsions:
REMARK  status: ('A' for Active; 'I' for Inactive)
REMARK    1  A    between atoms: C_2  and  N_3 
REMARK    2  A    between atoms: N_3  and  C_6 
REMARK    3  A    between atoms: C_6  and  C_7 
REMARK    4  A    between atoms: C_8  and  N_9 
REMARK       I    between atoms: N_9  and  C_10 
REMARK    5  A    between atoms: C_10  and  C_11 
ROOT
HETATM    1  C   UNL     1     -41.989  56.328 -51.665  1.00  0.00    -0.006 A 
HETATM    2  C   UNL     1     -41.284  55.705 -52.719  1.00  0.00     0.043 A 
HETATM    3  C   UNL     1     -40.866  56.504 -53.806  1.00  0.00     0.030 A 
HETATM    4  C   UNL     1     -41.155  57.866 -53.888  1.00  0.00     0.002 A 
HETATM    5  C   UNL     1     -41.872  58.472 -52.874  1.00  0.00     0.001 A 
HETATM    6  C   UNL     1     -42.278  57.715 -51.777  1.00  0.00     0.011 A 
ENDROOT
BRANCH   2   7
HETATM    7  N   UNL     1     -40.921  54.344 -52.876  1.00  0.00    -0.321 N 
HETATM    8  C   UNL     1     -40.463  53.610 -53.945  1.00  0.00     0.274 C 
HETATM    9  O   UNL     1     -40.391  53.991 -55.107  1.00  0.00    -0.266 OA
HETATM   10  H   UNL     1     -40.940  53.786 -52.018  1.00  0.00     0.169 HD
BRANCH   8  11
HETATM   11  C   UNL     1     -40.114  52.195 -53.602  1.00  0.00     0.126 A 
HETATM   12  N   UNL     1     -40.071  51.923 -52.275  1.00  0.00    -0.231 NA
HETATM   13  C   UNL     1     -39.846  50.631 -51.955  1.00  0.00     0.127 A 
HETATM   14 CL   UNL     1     -39.874  50.307 -50.274  1.00  0.00    -0.062 Cl
HETATM   15  C   UNL     1     -39.631  49.617 -52.876  1.00  0.00     0.044 A 
HETATM   16  C   UNL     1     -39.654  49.943 -54.230  1.00  0.00     0.006 A 
HETATM   17  C   UNL     1     -39.911  51.258 -54.607  1.00  0.00     0.037 A 
ENDBRANCH   8  11
ENDBRANCH   2   7
BRANCH   1  18
HETATM   18  C   UNL     1     -42.471  55.687 -50.388  1.00  0.00     0.273 C 
BRANCH  18  19
HETATM   19  N   UNL     1     -41.487  55.812 -49.282  1.00  0.00    -0.072 N 
HETATM   20  H   UNL     1     -41.869  56.384 -48.523  1.00  0.00     0.277 HD
HETATM   21  H   UNL     1     -40.717  56.349 -49.712  1.00  0.00     0.277 HD
BRANCH  19  22
HETATM   22  C   UNL     1     -40.892  54.548 -48.791  1.00  0.00     0.228 C 
HETATM   23  C   UNL     1     -39.597  54.301 -49.539  1.00  0.00     0.034 C 
ENDBRANCH  19  22
ENDBRANCH  18  19
ENDBRANCH   1  18
TORSDOF 5
ENDMDL
MODEL 7
REMARK VINA RESULT:      -6.5      1.882      2.499
REMARK  5 active torsions:
REMARK  status: ('A' for Active; 'I' for Inactive)
REMARK    1  A    between atoms: C_2  and  N_3 
REMARK    2  A    between atoms: N_3  and  C_6 
REMARK    3  A    between atoms: C_6  and  C_7 
REMARK    4  A    between atoms: C_8  and  N_9 
REMARK       I    between atoms: N_9  and  C_10 
REMARK    5  A    between atoms: C_10  and  C_11 
ROOT
HETATM    1  C   UNL     1     -40.710  53.653 -52.399  1.00  0.00    -0.006 A 
HETATM    2  C   UNL     1     -40.780  53.508 -53.802  1.00  0.00     0.043 A 
HETATM    3  C   UNL     1     -40.211  52.352 -54.382  1.00  0.00     0.030 A 
HETATM    4  C   UNL     1     -39.560  51.378 -53.626  1.00  0.00     0.002 A 
HETATM    5  C   UNL     1     -39.462  51.533 -52.256  1.00  0.00     0.001 A 
HETATM    6  C   UNL     1     -40.034  52.650 -51.652  1.00  0.00     0.011 A 
ENDROOT
BRANCH   2   7
HETATM    7  N   UNL     1     -41.342  54.378 -54.768  1.00  0.00    -0.321 N 
HETATM    8  C   UNL     1     -42.626  54.803 -55.019  1.00  0.00     0.274 C 
HETATM    9  O   UNL     1     -43.645  54.378 -54.489  1.00  0.00    -0.266 OA
HETATM   10  H   UNL     1     -40.666  54.843 -55.382  1.00  0.00     0.169 HD
BRANCH   8  11
HETATM   11  C   UNL     1     -42.723  55.821 -56.112  1.00  0.00     0.126 A 
HETATM   12  N   UNL     1     -42.454  57.095 -55.733  1.00  0.00    -0.231 NA
HETATM   13  C   UNL     1     -42.451  58.007 -56.727  1.00  0.00     0.127 A 
HETATM   14 CL   UNL     1     -42.032  59.591 -56.228  1.00  0.00    -0.062 Cl
HETATM   15  C   UNL     1     -42.731  57.727 -58.056  1.00  0.00     0.044 A 
HETATM   16  C   UNL     1     -43.033  56.411 -58.400  1.00  0.00     0.006 A 
HETATM   17  C   UNL     1     -43.020  55.431 -57.412  1.00  0.00     0.037 A 
ENDBRANCH   8  11
ENDBRANCH   2   7
BRANCH   1  18
HETATM   18  C   UNL     1     -41.301  54.765 -51.568  1.00  0.00     0.273 C 
BRANCH  18  19
HETATM   19  N   UNL     1     -42.783  54.696 -51.495  1.00  0.00    -0.072 N 
HETATM   20  H   UNL     1     -43.082  53.811 -51.075  1.00  0.00     0.277 HD
HETATM   21  H   UNL     1     -43.065  54.674 -52.488  1.00  0.00     0.277 HD
BRANCH  19  22
HETATM   22  C   UNL     1     -43.462  55.865 -50.892  1.00  0.00     0.228 C 
HETATM   23  C   UNL     1     -43.775  56.861 -51.991  1.00  0.00     0.034 C 
ENDBRANCH  19  22
ENDBRANCH  18  19
ENDBRANCH   1  18
TORSDOF 5
ENDMDL
MODEL 8
REMARK VINA RESULT:      -6.5      1.443      3.555
REMARK  5 active torsions:
REMARK  status: ('A' for Active; 'I' for Inactive)
REMARK    1  A    between atoms: C_2  and  N_3 
REMARK    2  A    between atoms: N_3  and  C_6 
REMARK    3  A    between atoms: C_6  and  C_7 
REMARK    4  A    between atoms: C_8  and  N_9 
REMARK       I    between atoms: N_9  and  C_10 
REMARK    5  A    between atoms: C_10  and  C_11 
ROOT
HETATM    1  C   UNL     1     -40.630  53.642 -52.476  1.00  0.00    -0.006 A 
HETATM    2  C   UNL     1     -41.127  54.918 -52.822  1.00  0.00     0.043 A 
HETATM    3  C   UNL     1     -41.279  55.875 -51.794  1.00  0.00     0.030 A 
HETATM    4  C   UNL     1     -40.991  55.592 -50.459  1.00  0.00     0.002 A 
HETATM    5  C   UNL     1     -40.534  54.335 -50.113  1.00  0.00     0.001 A 
HETATM    6  C   UNL     1     -40.351  53.376 -51.107  1.00  0.00     0.011 A 
ENDROOT
BRANCH   2   7
HETATM    7  N   UNL     1     -41.528  55.414 -54.087  1.00  0.00    -0.321 N 
HETATM    8  C   UNL     1     -42.638  55.204 -54.872  1.00  0.00     0.274 C 
HETATM    9  O   UNL     1     -43.519  54.377 -54.672  1.00  0.00    -0.266 OA
HETATM   10  H   UNL     1     -40.907  56.119 -54.495  1.00  0.00     0.169 HD
BRANCH   8  11
HETATM   11  C   UNL     1     -42.667  56.040 -56.113  1.00  0.00     0.126 A 
HETATM   12  N   UNL     1     -42.992  55.371 -57.246  1.00  0.00    -0.231 NA
HETATM   13  C   UNL     1     -43.109  56.131 -58.355  1.00  0.00     0.127 A 
HETATM   14 CL   UNL     1     -43.595  55.267 -59.751  1.00  0.00    -0.062 Cl
HETATM   15  C   UNL     1     -42.889  57.499 -58.400  1.00  0.00     0.044 A 
HETATM   16  C   UNL     1     -42.528  58.145 -57.220  1.00  0.00     0.006 A 
HETATM   17  C   UNL     1     -42.423  57.407 -56.045  1.00  0.00     0.037 A 
ENDBRANCH   8  11
ENDBRANCH   2   7
BRANCH   1  18
HETATM   18  C   UNL     1     -40.330  52.497 -53.412  1.00  0.00     0.273 C 
BRANCH  18  19
HETATM   19  N   UNL     1     -39.408  51.498 -52.812  1.00  0.00    -0.072 N 
HETATM   20  H   UNL     1     -39.262  51.695 -51.818  1.00  0.00     0.277 HD
HETATM   21  H   UNL     1     -38.515  51.684 -53.296  1.00  0.00     0.277 HD
BRANCH  19  22
HETATM   22  C   UNL     1     -39.734  50.076 -53.064  1.00  0.00     0.228 C 
HETATM   23  C   UNL     1     -39.783  49.850 -54.563  1.00  0.00     0.034 C 
ENDBRANCH  19  22
ENDBRANCH  18  19
ENDBRANCH   1  18
TORSDOF 5
ENDMDL
MODEL 9
REMARK VINA RESULT:      -6.4      2.960      6.753
REMARK  5 active torsions:
REMARK  status: ('A' for Active; 'I' for Inactive)
REMARK    1  A    between atoms: C_2  and  N_3 
REMARK    2  A    between atoms: N_3  and  C_6 
REMARK    3  A    between atoms: C_6  and  C_7 
REMARK    4  A    between atoms: C_8  and  N_9 
REMARK       I    between atoms: N_9  and  C_10 
REMARK    5  A    between atoms: C_10  and  C_11 
ROOT
HETATM    1  C   UNL     1     -42.763  57.283 -53.809  1.00  0.00    -0.006 A 
HETATM    2  C   UNL     1     -41.556  56.795 -53.262  1.00  0.00     0.043 A 
HETATM    3  C   UNL     1     -40.667  57.721 -52.672  1.00  0.00     0.030 A 
HETATM    4  C   UNL     1     -40.925  59.092 -52.644  1.00  0.00     0.002 A 
HETATM    5  C   UNL     1     -42.091  59.576 -53.207  1.00  0.00     0.001 A 
HETATM    6  C   UNL     1     -42.998  58.685 -53.775  1.00  0.00     0.011 A 
ENDROOT
BRANCH   2   7
HETATM    7  N   UNL     1     -41.061  55.468 -53.217  1.00  0.00    -0.321 N 
HETATM    8  C   UNL     1     -40.974  54.528 -52.216  1.00  0.00     0.274 C 
HETATM    9  O   UNL     1     -41.213  54.713 -51.028  1.00  0.00    -0.266 OA
HETATM   10  H   UNL     1     -40.752  55.087 -54.116  1.00  0.00     0.169 HD
BRANCH   8  11
HETATM   11  C   UNL     1     -40.454  53.202 -52.674  1.00  0.00     0.126 A 
HETATM   12  N   UNL     1     -40.129  52.340 -51.680  1.00  0.00    -0.231 NA
HETATM   13  C   UNL     1     -39.743  51.111 -52.081  1.00  0.00     0.127 A 
HETATM   14 CL   UNL     1     -39.414  50.024 -50.800  1.00  0.00    -0.062 Cl
HETATM   15  C   UNL     1     -39.635  50.711 -53.404  1.00  0.00     0.044 A 
HETATM   16  C   UNL     1     -39.950  51.636 -54.398  1.00  0.00     0.006 A 
HETATM   17  C   UNL     1     -40.380  52.907 -54.030  1.00  0.00     0.037 A 
ENDBRANCH   8  11
ENDBRANCH   2   7
BRANCH   1  18
HETATM   18  C   UNL     1     -43.877  56.473 -54.425  1.00  0.00     0.273 C 
BRANCH  18  19
HETATM   19  N   UNL     1     -43.742  56.350 -55.899  1.00  0.00    -0.072 N 
HETATM   20  H   UNL     1     -43.447  57.241 -56.309  1.00  0.00     0.277 HD
HETATM   21  H   UNL     1     -44.712  56.177 -56.209  1.00  0.00     0.277 HD
BRANCH  19  22
HETATM   22  C   UNL     1     -42.936  55.209 -56.388  1.00  0.00     0.228 C 
HETATM   23  C   UNL     1     -43.317  53.974 -55.595  1.00  0.00     0.034 C 
ENDBRANCH  19  22
ENDBRANCH  18  19
ENDBRANCH   1  18
TORSDOF 5
ENDMDL
MODEL 10
REMARK VINA RESULT:      -6.3      2.592      6.850
REMARK  5 active torsions:
REMARK  status: ('A' for Active; 'I' for Inactive)
REMARK    1  A    between atoms: C_2  and  N_3 
REMARK    2  A    between atoms: N_3  and  C_6 
REMARK    3  A    between atoms: C_6  and  C_7 
REMARK    4  A    between atoms: C_8  and  N_9 
REMARK       I    between atoms: N_9  and  C_10 
REMARK    5  A    between atoms: C_10  and  C_11 
ROOT
HETATM    1  C   UNL     1     -42.872  57.526 -53.974  1.00  0.00    -0.006 A 
HETATM    2  C   UNL     1     -41.695  57.021 -53.379  1.00  0.00     0.043 A 
HETATM    3  C   UNL     1     -40.730  57.946 -52.921  1.00  0.00     0.030 A 
HETATM    4  C   UNL     1     -40.886  59.324 -53.066  1.00  0.00     0.002 A 
HETATM    5  C   UNL     1     -42.023  59.820 -53.676  1.00  0.00     0.001 A 
HETATM    6  C   UNL     1     -43.003  58.934 -54.117  1.00  0.00     0.011 A 
ENDROOT
BRANCH   2   7
HETATM    7  N   UNL     1     -41.299  55.677 -53.169  1.00  0.00    -0.321 N 
HETATM    8  C   UNL     1     -40.659  54.750 -53.959  1.00  0.00     0.274 C 
HETATM    9  O   UNL     1     -40.394  54.872 -55.148  1.00  0.00    -0.266 OA
HETATM   10  H   UNL     1     -41.459  55.318 -52.223  1.00  0.00     0.169 HD
BRANCH   8  11
HETATM   11  C   UNL     1     -40.362  53.462 -53.257  1.00  0.00     0.126 A 
HETATM   12  N   UNL     1     -40.167  52.397 -54.074  1.00  0.00    -0.231 NA
HETATM   13  C   UNL     1     -39.811  51.251 -53.457  1.00  0.00     0.127 A 
HETATM   14 CL   UNL     1     -39.497  49.947 -54.523  1.00  0.00    -0.062 Cl
HETATM   15  C   UNL     1     -39.673  51.103 -52.086  1.00  0.00     0.044 A 
HETATM   16  C   UNL     1     -39.912  52.213 -51.278  1.00  0.00     0.006 A 
HETATM   17  C   UNL     1     -40.254  53.424 -51.872  1.00  0.00     0.037 A 
ENDBRANCH   8  11
ENDBRANCH   2   7
BRANCH   1  18
HETATM   18  C   UNL     1     -44.054  56.731 -54.472  1.00  0.00     0.273 C 
BRANCH  18  19
HETATM   19  N   UNL     1     -44.216  56.815 -55.946  1.00  0.00    -0.072 N 
HETATM   20  H   UNL     1     -44.508  57.756 -56.223  1.00  0.00     0.277 HD
HETATM   21  H   UNL     1     -45.009  56.181 -56.131  1.00  0.00     0.277 HD
BRANCH  19  22
HETATM   22  C   UNL     1     -43.082  56.314 -56.756  1.00  0.00     0.228 C 
HETATM   23  C   UNL     1     -42.618  57.427 -57.677  1.00  0.00     0.034 C 
ENDBRANCH  19  22
ENDBRANCH  18  19
ENDBRANCH   1  18
TORSDOF 5
ENDMDL
