MODEL 1
REMARK VINA RESULT:      -7.4      0.000      0.000
REMARK  8 active torsions:
REMARK  status: ('A' for Active; 'I' for Inactive)
REMARK    1  A    between atoms: C_2  and  C_3 
REMARK    2  A    between atoms: C_3  and  C_4 
REMARK    3  A    between atoms: C_4  and  O_5 
REMARK    4  A    between atoms: O_5  and  C_6 
REMARK    5  A    between atoms: C_9  and  C_10 
REMARK    6  A    between atoms: C_10  and  N_11 
REMARK    7  A    between atoms: N_11  and  C_12 
REMARK    8  A    between atoms: C_19  and  C_20 
REMARK       I    between atoms: C_20  and  N_21 
ROOT
HETATM    1  C   UNL     1     -42.397  57.610 -54.462  1.00  0.00     0.009 A 
HETATM    2  C   UNL     1     -41.245  58.044 -53.780  1.00  0.00     0.039 A 
HETATM    3  C   UNL     1     -41.341  58.569 -52.474  1.00  0.00     0.030 A 
HETATM    4  C   UNL     1     -42.586  58.613 -51.864  1.00  0.00     0.063 A 
HETATM    5  N   UNL     1     -42.367  59.152 -50.627  1.00  0.00    -0.277 N 
HETATM    6  H   UNL     1     -43.055  59.327 -49.904  1.00  0.00     0.189 HD
HETATM    7  N   UNL     1     -41.085  59.469 -50.378  1.00  0.00    -0.168 NA
HETATM    8  C   UNL     1     -40.439  59.111 -51.511  1.00  0.00     0.156 A 
HETATM    9  C   UNL     1     -43.749  58.154 -52.482  1.00  0.00     0.034 A 
HETATM   10  C   UNL     1     -43.622  57.644 -53.782  1.00  0.00     0.026 A 
ENDROOT
BRANCH   1  11
HETATM   11  N   UNL     1     -42.241  57.035 -55.732  1.00  0.00    -0.289 NA
HETATM   12  H   UNL     1     -42.520  57.673 -56.475  1.00  0.00     0.128 HD
BRANCH  11  13
HETATM   13  C   UNL     1     -42.746  55.687 -55.956  1.00  0.00     0.131 C 
BRANCH  13  14
HETATM   14  C   UNL     1     -42.055  54.711 -55.032  1.00  0.00    -0.045 A 
HETATM   15  C   UNL     1     -40.751  54.274 -55.312  1.00  0.00     0.011 A 
HETATM   16  C   UNL     1     -40.074  53.432 -54.424  1.00  0.00     0.037 A 
HETATM   17  C   UNL     1     -40.694  53.024 -53.243  1.00  0.00     0.068 A 
HETATM   18  C   UNL     1     -42.009  53.408 -52.987  1.00  0.00     0.037 A 
HETATM   19  C   UNL     1     -42.687  54.251 -53.871  1.00  0.00     0.011 A 
BRANCH  17  20
HETATM   20  O   UNL     1     -40.112  52.237 -52.286  1.00  0.00    -0.351 OA
BRANCH  20  21
HETATM   21  C   UNL     1     -40.391  52.616 -50.933  1.00  0.00     0.176 C 
BRANCH  21  22
HETATM   22  C   UNL     1     -39.472  53.786 -50.580  1.00  0.00     0.030 C 
BRANCH  22  23
HETATM   23  C   UNL     1     -40.064  54.736 -49.527  1.00  0.00    -0.021 C 
HETATM   24  C   UNL     1     -40.568  53.989 -48.292  1.00  0.00     0.009 C 
HETATM   25  C   UNL     1     -41.203  55.552 -50.141  1.00  0.00     0.009 C 
ENDBRANCH  22  23
ENDBRANCH  21  22
ENDBRANCH  20  21
ENDBRANCH  17  20
ENDBRANCH  13  14
ENDBRANCH  11  13
ENDBRANCH   1  11
BRANCH   8  26
HETATM   26  C   UNL     1     -38.988  59.297 -51.652  1.00  0.00     0.270 C 
HETATM   27  N   UNL     1     -38.347  59.588 -50.480  1.00  0.00    -0.365 N 
HETATM   28  H   UNL     1     -38.896  59.655 -49.631  1.00  0.00     0.159 HD
HETATM   29  H   UNL     1     -37.350  59.736 -50.476  1.00  0.00     0.159 HD
HETATM   30  O   UNL     1     -38.373  59.209 -52.710  1.00  0.00    -0.266 OA
ENDBRANCH   8  26
TORSDOF 8
ENDMDL
MODEL 2
REMARK VINA RESULT:      -7.0      3.512      6.363
REMARK  8 active torsions:
REMARK  status: ('A' for Active; 'I' for Inactive)
REMARK    1  A    between atoms: C_2  and  C_3 
REMARK    2  A    between atoms: C_3  and  C_4 
REMARK    3  A    between atoms: C_4  and  O_5 
REMARK    4  A    between atoms: O_5  and  C_6 
REMARK    5  A    between atoms: C_9  and  C_10 
REMARK    6  A    between atoms: C_10  and  N_11 
REMARK    7  A    between atoms: N_11  and  C_12 
REMARK    8  A    between atoms: C_19  and  C_20 
REMARK       I    between atoms: C_20  and  N_21 
ROOT
HETATM    1  C   UNL     1     -43.922  58.523 -56.729  1.00  0.00     0.009 A 
HETATM    2  C   UNL     1     -44.154  57.457 -57.618  1.00  0.00     0.039 A 
HETATM    3  C   UNL     1     -43.254  57.195 -58.673  1.00  0.00     0.030 A 
HETATM    4  C   UNL     1     -42.119  57.984 -58.790  1.00  0.00     0.063 A 
HETATM    5  N   UNL     1     -41.447  57.497 -59.876  1.00  0.00    -0.277 N 
HETATM    6  H   UNL     1     -40.568  57.830 -60.254  1.00  0.00     0.189 HD
HETATM    7  N   UNL     1     -42.049  56.460 -60.483  1.00  0.00    -0.168 NA
HETATM    8  C   UNL     1     -43.167  56.261 -59.747  1.00  0.00     0.156 A 
HETATM    9  C   UNL     1     -41.823  59.023 -57.907  1.00  0.00     0.034 A 
HETATM   10  C   UNL     1     -42.740  59.262 -56.874  1.00  0.00     0.026 A 
ENDROOT
BRANCH   1  11
HETATM   11  N   UNL     1     -44.811  58.701 -55.658  1.00  0.00    -0.289 NA
HETATM   12  H   UNL     1     -45.455  59.473 -55.823  1.00  0.00     0.128 HD
BRANCH  11  13
HETATM   13  C   UNL     1     -44.278  58.719 -54.303  1.00  0.00     0.131 C 
BRANCH  13  14
HETATM   14  C   UNL     1     -43.532  57.437 -54.019  1.00  0.00    -0.045 A 
HETATM   15  C   UNL     1     -42.183  57.473 -53.634  1.00  0.00     0.011 A 
HETATM   16  C   UNL     1     -41.505  56.297 -53.294  1.00  0.00     0.037 A 
HETATM   17  C   UNL     1     -42.173  55.074 -53.330  1.00  0.00     0.068 A 
HETATM   18  C   UNL     1     -43.497  55.024 -53.767  1.00  0.00     0.037 A 
HETATM   19  C   UNL     1     -44.177  56.196 -54.104  1.00  0.00     0.011 A 
BRANCH  17  20
HETATM   20  O   UNL     1     -41.622  53.871 -52.980  1.00  0.00    -0.351 OA
BRANCH  20  21
HETATM   21  C   UNL     1     -41.526  52.913 -54.039  1.00  0.00     0.176 C 
BRANCH  21  22
HETATM   22  C   UNL     1     -40.043  52.695 -54.336  1.00  0.00     0.030 C 
BRANCH  22  23
HETATM   23  C   UNL     1     -39.495  51.368 -53.787  1.00  0.00    -0.021 C 
HETATM   24  C   UNL     1     -40.261  50.159 -54.326  1.00  0.00     0.009 C 
HETATM   25  C   UNL     1     -39.544  51.374 -52.259  1.00  0.00     0.009 C 
ENDBRANCH  22  23
ENDBRANCH  21  22
ENDBRANCH  20  21
ENDBRANCH  17  20
ENDBRANCH  13  14
ENDBRANCH  11  13
ENDBRANCH   1  11
BRANCH   8  26
HETATM   26  C   UNL     1     -44.121  55.196 -60.084  1.00  0.00     0.270 C 
HETATM   27  N   UNL     1     -44.371  54.325 -59.059  1.00  0.00    -0.365 N 
HETATM   28  H   UNL     1     -43.896  54.469 -58.175  1.00  0.00     0.159 HD
HETATM   29  H   UNL     1     -45.010  53.558 -59.195  1.00  0.00     0.159 HD
HETATM   30  O   UNL     1     -44.664  55.067 -61.176  1.00  0.00    -0.266 OA
ENDBRANCH   8  26
TORSDOF 8
ENDMDL
MODEL 3
REMARK VINA RESULT:      -6.9      2.856      5.796
REMARK  8 active torsions:
REMARK  status: ('A' for Active; 'I' for Inactive)
REMARK    1  A    between atoms: C_2  and  C_3 
REMARK    2  A    between atoms: C_3  and  C_4 
REMARK    3  A    between atoms: C_4  and  O_5 
REMARK    4  A    between atoms: O_5  and  C_6 
REMARK    5  A    between atoms: C_9  and  C_10 
REMARK    6  A    between atoms: C_10  and  N_11 
REMARK    7  A    between atoms: N_11  and  C_12 
REMARK    8  A    between atoms: C_19  and  C_20 
REMARK       I    between atoms: C_20  and  N_21 
ROOT
HETATM    1  C   UNL     1     -40.910  53.896 -54.528  1.00  0.00     0.009 A 
HETATM    2  C   UNL     1     -41.253  54.258 -53.212  1.00  0.00     0.039 A 
HETATM    3  C   UNL     1     -40.870  53.446 -52.123  1.00  0.00     0.030 A 
HETATM    4  C   UNL     1     -40.117  52.308 -52.373  1.00  0.00     0.063 A 
HETATM    5  N   UNL     1     -39.895  51.742 -51.149  1.00  0.00    -0.277 N 
HETATM    6  H   UNL     1     -39.372  50.897 -50.951  1.00  0.00     0.189 HD
HETATM    7  N   UNL     1     -40.443  52.410 -50.120  1.00  0.00    -0.168 NA
HETATM    8  C   UNL     1     -41.047  53.468 -50.708  1.00  0.00     0.156 A 
HETATM    9  C   UNL     1     -39.715  51.933 -53.655  1.00  0.00     0.034 A 
HETATM   10  C   UNL     1     -40.117  52.756 -54.717  1.00  0.00     0.026 A 
ENDROOT
BRANCH   1  11
HETATM   11  N   UNL     1     -41.257  54.769 -55.570  1.00  0.00    -0.289 NA
HETATM   12  H   UNL     1     -40.695  55.618 -55.556  1.00  0.00     0.128 HD
BRANCH  11  13
HETATM   13  C   UNL     1     -42.666  55.055 -55.803  1.00  0.00     0.131 C 
BRANCH  13  14
HETATM   14  C   UNL     1     -43.031  56.397 -55.214  1.00  0.00    -0.045 A 
HETATM   15  C   UNL     1     -44.087  56.504 -54.297  1.00  0.00     0.011 A 
HETATM   16  C   UNL     1     -44.384  57.728 -53.688  1.00  0.00     0.037 A 
HETATM   17  C   UNL     1     -43.620  58.856 -53.986  1.00  0.00     0.068 A 
HETATM   18  C   UNL     1     -42.606  58.770 -54.939  1.00  0.00     0.037 A 
HETATM   19  C   UNL     1     -42.307  57.548 -55.547  1.00  0.00     0.011 A 
BRANCH  17  20
HETATM   20  O   UNL     1     -43.794  60.090 -53.420  1.00  0.00    -0.351 OA
BRANCH  20  21
HETATM   21  C   UNL     1     -42.611  60.680 -52.870  1.00  0.00     0.176 C 
BRANCH  21  22
HETATM   22  C   UNL     1     -42.287  59.946 -51.569  1.00  0.00     0.030 C 
BRANCH  22  23
HETATM   23  C   UNL     1     -40.930  59.224 -51.593  1.00  0.00    -0.021 C 
HETATM   24  C   UNL     1     -41.085  57.704 -51.647  1.00  0.00     0.009 C 
HETATM   25  C   UNL     1     -40.106  59.619 -50.366  1.00  0.00     0.009 C 
ENDBRANCH  22  23
ENDBRANCH  21  22
ENDBRANCH  20  21
ENDBRANCH  17  20
ENDBRANCH  13  14
ENDBRANCH  11  13
ENDBRANCH   1  11
BRANCH   8  26
HETATM   26  C   UNL     1     -41.778  54.466 -49.914  1.00  0.00     0.270 C 
HETATM   27  N   UNL     1     -41.070  54.963 -48.854  1.00  0.00    -0.365 N 
HETATM   28  H   UNL     1     -40.130  54.619 -48.697  1.00  0.00     0.159 HD
HETATM   29  H   UNL     1     -41.489  55.650 -48.249  1.00  0.00     0.159 HD
HETATM   30  O   UNL     1     -42.922  54.842 -50.150  1.00  0.00    -0.266 OA
ENDBRANCH   8  26
TORSDOF 8
ENDMDL
MODEL 4
REMARK VINA RESULT:      -6.7      4.551      8.086
REMARK  8 active torsions:
REMARK  status: ('A' for Active; 'I' for Inactive)
REMARK    1  A    between atoms: C_2  and  C_3 
REMARK    2  A    between atoms: C_3  and  C_4 
REMARK    3  A    between atoms: C_4  and  O_5 
REMARK    4  A    between atoms: O_5  and  C_6 
REMARK    5  A    between atoms: C_9  and  C_10 
REMARK    6  A    between atoms: C_10  and  N_11 
REMARK    7  A    between atoms: N_11  and  C_12 
REMARK    8  A    between atoms: C_19  and  C_20 
REMARK       I    between atoms: C_20  and  N_21 
ROOT
HETATM    1  C   UNL     1     -40.927  54.446 -54.491  1.00  0.00     0.009 A 
HETATM    2  C   UNL     1     -40.558  53.097 -54.327  1.00  0.00     0.039 A 
HETATM    3  C   UNL     1     -40.284  52.581 -53.042  1.00  0.00     0.030 A 
HETATM    4  C   UNL     1     -40.424  53.418 -51.945  1.00  0.00     0.063 A 
HETATM    5  N   UNL     1     -40.106  52.651 -50.859  1.00  0.00    -0.277 N 
HETATM    6  H   UNL     1     -40.105  52.936 -49.887  1.00  0.00     0.189 HD
HETATM    7  N   UNL     1     -39.765  51.385 -51.153  1.00  0.00    -0.168 NA
HETATM    8  C   UNL     1     -39.874  51.327 -52.501  1.00  0.00     0.156 A 
HETATM    9  C   UNL     1     -40.830  54.748 -52.053  1.00  0.00     0.034 A 
HETATM   10  C   UNL     1     -41.089  55.233 -53.343  1.00  0.00     0.026 A 
ENDROOT
BRANCH   1  11
HETATM   11  N   UNL     1     -41.253  54.894 -55.780  1.00  0.00    -0.289 NA
HETATM   12  H   UNL     1     -40.836  55.800 -55.983  1.00  0.00     0.128 HD
BRANCH  11  13
HETATM   13  C   UNL     1     -42.642  54.825 -56.213  1.00  0.00     0.131 C 
BRANCH  13  14
HETATM   14  C   UNL     1     -42.967  55.998 -57.109  1.00  0.00    -0.045 A 
HETATM   15  C   UNL     1     -42.906  57.308 -56.610  1.00  0.00     0.011 A 
HETATM   16  C   UNL     1     -43.130  58.403 -57.451  1.00  0.00     0.037 A 
HETATM   17  C   UNL     1     -43.411  58.198 -58.801  1.00  0.00     0.068 A 
HETATM   18  C   UNL     1     -43.530  56.898 -59.291  1.00  0.00     0.037 A 
HETATM   19  C   UNL     1     -43.305  55.802 -58.454  1.00  0.00     0.011 A 
BRANCH  17  20
HETATM   20  O   UNL     1     -43.605  59.194 -59.720  1.00  0.00    -0.351 OA
BRANCH  20  21
HETATM   21  C   UNL     1     -44.839  59.123 -60.443  1.00  0.00     0.176 C 
BRANCH  21  22
HETATM   22  C   UNL     1     -45.941  59.669 -59.535  1.00  0.00     0.030 C 
BRANCH  22  23
HETATM   23  C   UNL     1     -47.071  58.661 -59.267  1.00  0.00    -0.021 C 
HETATM   24  C   UNL     1     -47.006  58.082 -57.853  1.00  0.00     0.009 C 
HETATM   25  C   UNL     1     -47.017  57.529 -60.295  1.00  0.00     0.009 C 
ENDBRANCH  22  23
ENDBRANCH  21  22
ENDBRANCH  20  21
ENDBRANCH  17  20
ENDBRANCH  13  14
ENDBRANCH  11  13
ENDBRANCH   1  11
BRANCH   8  26
HETATM   26  C   UNL     1     -39.581  50.089 -53.236  1.00  0.00     0.270 C 
HETATM   27  N   UNL     1     -39.397  48.995 -52.436  1.00  0.00    -0.365 N 
HETATM   28  H   UNL     1     -39.470  49.112 -51.432  1.00  0.00     0.159 HD
HETATM   29  H   UNL     1     -39.188  48.100 -52.849  1.00  0.00     0.159 HD
HETATM   30  O   UNL     1     -39.499  50.007 -54.458  1.00  0.00    -0.266 OA
ENDBRANCH   8  26
TORSDOF 8
ENDMDL
MODEL 5
REMARK VINA RESULT:      -6.6      4.515      7.235
REMARK  8 active torsions:
REMARK  status: ('A' for Active; 'I' for Inactive)
REMARK    1  A    between atoms: C_2  and  C_3 
REMARK    2  A    between atoms: C_3  and  C_4 
REMARK    3  A    between atoms: C_4  and  O_5 
REMARK    4  A    between atoms: O_5  and  C_6 
REMARK    5  A    between atoms: C_9  and  C_10 
REMARK    6  A    between atoms: C_10  and  N_11 
REMARK    7  A    between atoms: N_11  and  C_12 
REMARK    8  A    between atoms: C_19  and  C_20 
REMARK       I    between atoms: C_20  and  N_21 
ROOT
HETATM    1  C   UNL     1     -44.843  58.604 -57.887  1.00  0.00     0.009 A 
HETATM    2  C   UNL     1     -44.774  57.457 -58.700  1.00  0.00     0.039 A 
HETATM    3  C   UNL     1     -45.806  57.167 -59.618  1.00  0.00     0.030 A 
HETATM    4  C   UNL     1     -46.867  58.055 -59.729  1.00  0.00     0.063 A 
HETATM    5  N   UNL     1     -47.688  57.524 -60.684  1.00  0.00    -0.277 N 
HETATM    6  H   UNL     1     -48.558  57.912 -61.028  1.00  0.00     0.189 HD
HETATM    7  N   UNL     1     -47.257  56.362 -61.204  1.00  0.00    -0.168 NA
HETATM    8  C   UNL     1     -46.093  56.131 -60.555  1.00  0.00     0.156 A 
HETATM    9  C   UNL     1     -46.956  59.227 -58.978  1.00  0.00     0.034 A 
HETATM   10  C   UNL     1     -45.918  59.483 -58.070  1.00  0.00     0.026 A 
ENDROOT
BRANCH   1  11
HETATM   11  N   UNL     1     -43.760  58.882 -57.038  1.00  0.00    -0.289 NA
HETATM   12  H   UNL     1     -43.432  59.840 -57.144  1.00  0.00     0.128 HD
BRANCH  11  13
HETATM   13  C   UNL     1     -42.657  57.933 -56.978  1.00  0.00     0.131 C 
BRANCH  13  14
HETATM   14  C   UNL     1     -42.635  57.243 -55.634  1.00  0.00    -0.045 A 
HETATM   15  C   UNL     1     -43.487  56.156 -55.383  1.00  0.00     0.011 A 
HETATM   16  C   UNL     1     -43.421  55.462 -54.170  1.00  0.00     0.037 A 
HETATM   17  C   UNL     1     -42.496  55.846 -53.199  1.00  0.00     0.068 A 
HETATM   18  C   UNL     1     -41.687  56.960 -53.419  1.00  0.00     0.037 A 
HETATM   19  C   UNL     1     -41.750  57.653 -54.630  1.00  0.00     0.011 A 
BRANCH  17  20
HETATM   20  O   UNL     1     -42.316  55.215 -51.997  1.00  0.00    -0.351 OA
BRANCH  20  21
HETATM   21  C   UNL     1     -42.179  53.791 -52.071  1.00  0.00     0.176 C 
BRANCH  21  22
HETATM   22  C   UNL     1     -40.766  53.486 -52.569  1.00  0.00     0.030 C 
BRANCH  22  23
HETATM   23  C   UNL     1     -40.734  52.805 -53.947  1.00  0.00    -0.021 C 
HETATM   24  C   UNL     1     -39.919  51.511 -53.933  1.00  0.00     0.009 C 
HETATM   25  C   UNL     1     -40.166  53.766 -54.992  1.00  0.00     0.009 C 
ENDBRANCH  22  23
ENDBRANCH  21  22
ENDBRANCH  20  21
ENDBRANCH  17  20
ENDBRANCH  13  14
ENDBRANCH  11  13
ENDBRANCH   1  11
BRANCH   8  26
HETATM   26  C   UNL     1     -45.288  54.934 -60.836  1.00  0.00     0.270 C 
HETATM   27  N   UNL     1     -45.104  54.118 -59.754  1.00  0.00    -0.365 N 
HETATM   28  H   UNL     1     -45.517  54.388 -58.869  1.00  0.00     0.159 HD
HETATM   29  H   UNL     1     -44.562  53.273 -59.848  1.00  0.00     0.159 HD
HETATM   30  O   UNL     1     -44.807  54.659 -61.931  1.00  0.00    -0.266 OA
ENDBRANCH   8  26
TORSDOF 8
ENDMDL
MODEL 6
REMARK VINA RESULT:      -6.6      4.144      7.456
REMARK  8 active torsions:
REMARK  status: ('A' for Active; 'I' for Inactive)
REMARK    1  A    between atoms: C_2  and  C_3 
REMARK    2  A    between atoms: C_3  and  C_4 
REMARK    3  A    between atoms: C_4  and  O_5 
REMARK    4  A    between atoms: O_5  and  C_6 
REMARK    5  A    between atoms: C_9  and  C_10 
REMARK    6  A    between atoms: C_10  and  N_11 
REMARK    7  A    between atoms: N_11  and  C_12 
REMARK    8  A    between atoms: C_19  and  C_20 
REMARK       I    between atoms: C_20  and  N_21 
ROOT
HETATM    1  C   UNL     1     -40.653  53.871 -54.364  1.00  0.00     0.009 A 
HETATM    2  C   UNL     1     -40.956  54.219 -53.034  1.00  0.00     0.039 A 
HETATM    3  C   UNL     1     -40.683  53.322 -51.979  1.00  0.00     0.030 A 
HETATM    4  C   UNL     1     -40.076  52.110 -52.276  1.00  0.00     0.063 A 
HETATM    5  N   UNL     1     -39.933  51.471 -51.076  1.00  0.00    -0.277 N 
HETATM    6  H   UNL     1     -39.521  50.560 -50.912  1.00  0.00     0.189 HD
HETATM    7  N   UNL     1     -40.400  52.159 -50.021  1.00  0.00    -0.168 NA
HETATM    8  C   UNL     1     -40.865  53.308 -50.564  1.00  0.00     0.156 A 
HETATM    9  C   UNL     1     -39.716  51.740 -53.572  1.00  0.00     0.034 A 
HETATM   10  C   UNL     1     -40.006  52.651 -54.599  1.00  0.00     0.026 A 
ENDROOT
BRANCH   1  11
HETATM   11  N   UNL     1     -40.882  54.823 -55.369  1.00  0.00    -0.289 NA
HETATM   12  H   UNL     1     -40.055  54.976 -55.943  1.00  0.00     0.128 HD
BRANCH  11  13
HETATM   13  C   UNL     1     -41.533  56.076 -55.009  1.00  0.00     0.131 C 
BRANCH  13  14
HETATM   14  C   UNL     1     -42.552  56.454 -56.059  1.00  0.00    -0.045 A 
HETATM   15  C   UNL     1     -43.278  57.649 -55.942  1.00  0.00     0.011 A 
HETATM   16  C   UNL     1     -44.167  58.046 -56.946  1.00  0.00     0.037 A 
HETATM   17  C   UNL     1     -44.333  57.253 -58.081  1.00  0.00     0.068 A 
HETATM   18  C   UNL     1     -43.659  56.036 -58.177  1.00  0.00     0.037 A 
HETATM   19  C   UNL     1     -42.768  55.639 -57.177  1.00  0.00     0.011 A 
BRANCH  17  20
HETATM   20  O   UNL     1     -45.142  57.563 -59.141  1.00  0.00    -0.351 OA
BRANCH  20  21
HETATM   21  C   UNL     1     -44.458  57.862 -60.363  1.00  0.00     0.176 C 
BRANCH  21  22
HETATM   22  C   UNL     1     -44.001  59.319 -60.294  1.00  0.00     0.030 C 
BRANCH  22  23
HETATM   23  C   UNL     1     -42.474  59.486 -60.343  1.00  0.00    -0.021 C 
HETATM   24  C   UNL     1     -41.747  58.144 -60.441  1.00  0.00     0.009 C 
HETATM   25  C   UNL     1     -41.991  60.249 -59.108  1.00  0.00     0.009 C 
ENDBRANCH  22  23
ENDBRANCH  21  22
ENDBRANCH  20  21
ENDBRANCH  17  20
ENDBRANCH  13  14
ENDBRANCH  11  13
ENDBRANCH   1  11
BRANCH   8  26
HETATM   26  C   UNL     1     -41.470  54.355 -49.731  1.00  0.00     0.270 C 
HETATM   27  N   UNL     1     -40.805  54.590 -48.559  1.00  0.00    -0.365 N 
HETATM   28  H   UNL     1     -39.975  54.045 -48.356  1.00  0.00     0.159 HD
HETATM   29  H   UNL     1     -41.147  55.289 -47.919  1.00  0.00     0.159 HD
HETATM   30  O   UNL     1     -42.483  54.982 -50.026  1.00  0.00    -0.266 OA
ENDBRANCH   8  26
TORSDOF 8
ENDMDL
MODEL 7
REMARK VINA RESULT:      -6.5      3.565      7.006
REMARK  8 active torsions:
REMARK  status: ('A' for Active; 'I' for Inactive)
REMARK    1  A    between atoms: C_2  and  C_3 
REMARK    2  A    between atoms: C_3  and  C_4 
REMARK    3  A    between atoms: C_4  and  O_5 
REMARK    4  A    between atoms: O_5  and  C_6 
REMARK    5  A    between atoms: C_9  and  C_10 
REMARK    6  A    between atoms: C_10  and  N_11 
REMARK    7  A    between atoms: N_11  and  C_12 
REMARK    8  A    between atoms: C_19  and  C_20 
REMARK       I    between atoms: C_20  and  N_21 
ROOT
HETATM    1  C   UNL     1     -43.529  55.368 -53.523  1.00  0.00     0.009 A 
HETATM    2  C   UNL     1     -42.805  55.165 -52.333  1.00  0.00     0.039 A 
HETATM    3  C   UNL     1     -41.789  54.188 -52.271  1.00  0.00     0.030 A 
HETATM    4  C   UNL     1     -41.492  53.462 -53.415  1.00  0.00     0.063 A 
HETATM    5  N   UNL     1     -40.480  52.616 -53.057  1.00  0.00    -0.277 N 
HETATM    6  H   UNL     1     -40.009  51.940 -53.647  1.00  0.00     0.189 HD
HETATM    7  N   UNL     1     -40.093  52.723 -51.775  1.00  0.00    -0.168 NA
HETATM    8  C   UNL     1     -40.892  53.695 -51.277  1.00  0.00     0.156 A 
HETATM    9  C   UNL     1     -42.151  53.658 -54.629  1.00  0.00     0.034 A 
HETATM   10  C   UNL     1     -43.160  54.631 -54.657  1.00  0.00     0.026 A 
ENDROOT
BRANCH   1  11
HETATM   11  N   UNL     1     -44.484  56.395 -53.554  1.00  0.00    -0.289 NA
HETATM   12  H   UNL     1     -45.201  56.226 -54.256  1.00  0.00     0.128 HD
BRANCH  11  13
HETATM   13  C   UNL     1     -44.023  57.777 -53.571  1.00  0.00     0.131 C 
BRANCH  13  14
HETATM   14  C   UNL     1     -43.819  58.241 -54.994  1.00  0.00    -0.045 A 
HETATM   15  C   UNL     1     -42.535  58.573 -55.453  1.00  0.00     0.011 A 
HETATM   16  C   UNL     1     -42.323  58.930 -56.788  1.00  0.00     0.037 A 
HETATM   17  C   UNL     1     -43.395  58.952 -57.681  1.00  0.00     0.068 A 
HETATM   18  C   UNL     1     -44.682  58.679 -57.219  1.00  0.00     0.037 A 
HETATM   19  C   UNL     1     -44.895  58.320 -55.886  1.00  0.00     0.011 A 
BRANCH  17  20
HETATM   20  O   UNL     1     -43.296  59.244 -59.014  1.00  0.00    -0.351 OA
BRANCH  20  21
HETATM   21  C   UNL     1     -43.767  58.221 -59.899  1.00  0.00     0.176 C 
BRANCH  21  22
HETATM   22  C   UNL     1     -42.655  57.182 -60.040  1.00  0.00     0.030 C 
BRANCH  22  23
HETATM   23  C   UNL     1     -43.116  55.745 -59.746  1.00  0.00    -0.021 C 
HETATM   24  C   UNL     1     -44.469  55.429 -60.387  1.00  0.00     0.009 C 
HETATM   25  C   UNL     1     -43.192  55.519 -58.236  1.00  0.00     0.009 C 
ENDBRANCH  22  23
ENDBRANCH  21  22
ENDBRANCH  20  21
ENDBRANCH  17  20
ENDBRANCH  13  14
ENDBRANCH  11  13
ENDBRANCH   1  11
BRANCH   8  26
HETATM   26  C   UNL     1     -40.788  54.123 -49.876  1.00  0.00     0.270 C 
HETATM   27  N   UNL     1     -39.505  54.327 -49.449  1.00  0.00    -0.365 N 
HETATM   28  H   UNL     1     -38.747  54.172 -50.103  1.00  0.00     0.159 HD
HETATM   29  H   UNL     1     -39.332  54.620 -48.500  1.00  0.00     0.159 HD
HETATM   30  O   UNL     1     -41.744  54.291 -49.125  1.00  0.00    -0.266 OA
ENDBRANCH   8  26
TORSDOF 8
ENDMDL
MODEL 8
REMARK VINA RESULT:      -6.5      4.187      7.596
REMARK  8 active torsions:
REMARK  status: ('A' for Active; 'I' for Inactive)
REMARK    1  A    between atoms: C_2  and  C_3 
REMARK    2  A    between atoms: C_3  and  C_4 
REMARK    3  A    between atoms: C_4  and  O_5 
REMARK    4  A    between atoms: O_5  and  C_6 
REMARK    5  A    between atoms: C_9  and  C_10 
REMARK    6  A    between atoms: C_10  and  N_11 
REMARK    7  A    between atoms: N_11  and  C_12 
REMARK    8  A    between atoms: C_19  and  C_20 
REMARK       I    between atoms: C_20  and  N_21 
ROOT
HETATM    1  C   UNL     1     -40.962  53.923 -54.524  1.00  0.00     0.009 A 
HETATM    2  C   UNL     1     -41.254  54.324 -53.207  1.00  0.00     0.039 A 
HETATM    3  C   UNL     1     -40.850  53.534 -52.110  1.00  0.00     0.030 A 
HETATM    4  C   UNL     1     -40.126  52.375 -52.356  1.00  0.00     0.063 A 
HETATM    5  N   UNL     1     -39.873  51.836 -51.126  1.00  0.00    -0.277 N 
HETATM    6  H   UNL     1     -39.360  50.987 -50.923  1.00  0.00     0.189 HD
HETATM    7  N   UNL     1     -40.375  52.540 -50.097  1.00  0.00    -0.168 NA
HETATM    8  C   UNL     1     -40.979  53.595 -50.691  1.00  0.00     0.156 A 
HETATM    9  C   UNL     1     -39.774  51.960 -53.640  1.00  0.00     0.034 A 
HETATM   10  C   UNL     1     -40.196  52.764 -54.709  1.00  0.00     0.026 A 
ENDROOT
BRANCH   1  11
HETATM   11  N   UNL     1     -41.327  54.776 -55.576  1.00  0.00    -0.289 NA
HETATM   12  H   UNL     1     -41.000  55.728 -55.423  1.00  0.00     0.128 HD
BRANCH  11  13
HETATM   13  C   UNL     1     -42.702  54.745 -56.056  1.00  0.00     0.131 C 
BRANCH  13  14
HETATM   14  C   UNL     1     -42.954  55.904 -56.992  1.00  0.00    -0.045 A 
HETATM   15  C   UNL     1     -42.807  57.224 -56.540  1.00  0.00     0.011 A 
HETATM   16  C   UNL     1     -42.963  58.302 -57.419  1.00  0.00     0.037 A 
HETATM   17  C   UNL     1     -43.260  58.067 -58.761  1.00  0.00     0.068 A 
HETATM   18  C   UNL     1     -43.464  56.761 -59.204  1.00  0.00     0.037 A 
HETATM   19  C   UNL     1     -43.307  55.683 -58.329  1.00  0.00     0.011 A 
BRANCH  17  20
HETATM   20  O   UNL     1     -43.392  59.041 -59.714  1.00  0.00    -0.351 OA
BRANCH  20  21
HETATM   21  C   UNL     1     -44.639  59.039 -60.418  1.00  0.00     0.176 C 
BRANCH  21  22
HETATM   22  C   UNL     1     -45.697  59.636 -59.490  1.00  0.00     0.030 C 
BRANCH  22  23
HETATM   23  C   UNL     1     -46.891  58.701 -59.238  1.00  0.00    -0.021 C 
HETATM   24  C   UNL     1     -46.888  58.127 -57.820  1.00  0.00     0.009 C 
HETATM   25  C   UNL     1     -46.888  57.562 -60.259  1.00  0.00     0.009 C 
ENDBRANCH  22  23
ENDBRANCH  21  22
ENDBRANCH  20  21
ENDBRANCH  17  20
ENDBRANCH  13  14
ENDBRANCH  11  13
ENDBRANCH   1  11
BRANCH   8  26
HETATM   26  C   UNL     1     -41.664  54.625 -49.900  1.00  0.00     0.270 C 
HETATM   27  N   UNL     1     -41.064  54.900 -48.702  1.00  0.00    -0.365 N 
HETATM   28  H   UNL     1     -40.224  54.391 -48.454  1.00  0.00     0.159 HD
HETATM   29  H   UNL     1     -41.463  55.591 -48.087  1.00  0.00     0.159 HD
HETATM   30  O   UNL     1     -42.687  55.207 -50.249  1.00  0.00    -0.266 OA
ENDBRANCH   8  26
TORSDOF 8
ENDMDL
MODEL 9
REMARK VINA RESULT:      -6.4      3.369      6.280
REMARK  8 active torsions:
REMARK  status: ('A' for Active; 'I' for Inactive)
REMARK    1  A    between atoms: C_2  and  C_3 
REMARK    2  A    between atoms: C_3  and  C_4 
REMARK    3  A    between atoms: C_4  and  O_5 
REMARK    4  A    between atoms: O_5  and  C_6 
REMARK    5  A    between atoms: C_9  and  C_10 
REMARK    6  A    between atoms: C_10  and  N_11 
REMARK    7  A    between atoms: N_11  and  C_12 
REMARK    8  A    between atoms: C_19  and  C_20 
REMARK       I    between atoms: C_20  and  N_21 
ROOT
HETATM    1  C   UNL     1     -41.976  60.009 -57.046  1.00  0.00     0.009 A 
HETATM    2  C   UNL     1     -42.377  58.674 -57.236  1.00  0.00     0.039 A 
HETATM    3  C   UNL     1     -42.538  58.152 -58.537  1.00  0.00     0.030 A 
HETATM    4  C   UNL     1     -42.255  58.970 -59.622  1.00  0.00     0.063 A 
HETATM    5  N   UNL     1     -42.489  58.202 -60.728  1.00  0.00    -0.277 N 
HETATM    6  H   UNL     1     -42.380  58.475 -61.697  1.00  0.00     0.189 HD
HETATM    7  N   UNL     1     -42.906  56.953 -60.460  1.00  0.00    -0.168 NA
HETATM    8  C   UNL     1     -42.938  56.908 -59.108  1.00  0.00     0.156 A 
HETATM    9  C   UNL     1     -41.812  60.285 -59.483  1.00  0.00     0.034 A 
HETATM   10  C   UNL     1     -41.668  60.776 -58.177  1.00  0.00     0.026 A 
ENDROOT
BRANCH   1  11
HETATM   11  N   UNL     1     -41.767  60.460 -55.734  1.00  0.00    -0.289 NA
HETATM   12  H   UNL     1     -40.834  60.229 -55.397  1.00  0.00     0.128 HD
BRANCH  11  13
HETATM   13  C   UNL     1     -42.788  60.192 -54.731  1.00  0.00     0.131 C 
BRANCH  13  14
HETATM   14  C   UNL     1     -42.388  59.007 -53.883  1.00  0.00    -0.045 A 
HETATM   15  C   UNL     1     -41.039  58.789 -53.564  1.00  0.00     0.011 A 
HETATM   16  C   UNL     1     -40.666  57.739 -52.717  1.00  0.00     0.037 A 
HETATM   17  C   UNL     1     -41.641  56.902 -52.176  1.00  0.00     0.068 A 
HETATM   18  C   UNL     1     -42.977  57.078 -52.535  1.00  0.00     0.037 A 
HETATM   19  C   UNL     1     -43.352  58.126 -53.379  1.00  0.00     0.011 A 
BRANCH  17  20
HETATM   20  O   UNL     1     -41.395  55.874 -51.306  1.00  0.00    -0.351 OA
BRANCH  20  21
HETATM   21  C   UNL     1     -41.794  54.578 -51.766  1.00  0.00     0.176 C 
BRANCH  21  22
HETATM   22  C   UNL     1     -40.621  53.978 -52.540  1.00  0.00     0.030 C 
BRANCH  22  23
HETATM   23  C   UNL     1     -40.940  53.694 -54.017  1.00  0.00    -0.021 C 
HETATM   24  C   UNL     1     -40.149  54.598 -54.963  1.00  0.00     0.009 C 
HETATM   25  C   UNL     1     -42.439  53.862 -54.269  1.00  0.00     0.009 C 
ENDBRANCH  22  23
ENDBRANCH  21  22
ENDBRANCH  20  21
ENDBRANCH  17  20
ENDBRANCH  13  14
ENDBRANCH  11  13
ENDBRANCH   1  11
BRANCH   8  26
HETATM   26  C   UNL     1     -43.351  55.690 -58.396  1.00  0.00     0.270 C 
HETATM   27  N   UNL     1     -44.297  54.953 -59.054  1.00  0.00    -0.365 N 
HETATM   28  H   UNL     1     -44.634  55.288 -59.949  1.00  0.00     0.159 HD
HETATM   29  H   UNL     1     -44.646  54.102 -58.643  1.00  0.00     0.159 HD
HETATM   30  O   UNL     1     -42.910  55.336 -57.307  1.00  0.00    -0.266 OA
ENDBRANCH   8  26
TORSDOF 8
ENDMDL
MODEL 10
REMARK VINA RESULT:      -6.3      2.150      3.005
REMARK  8 active torsions:
REMARK  status: ('A' for Active; 'I' for Inactive)
REMARK    1  A    between atoms: C_2  and  C_3 
REMARK    2  A    between atoms: C_3  and  C_4 
REMARK    3  A    between atoms: C_4  and  O_5 
REMARK    4  A    between atoms: O_5  and  C_6 
REMARK    5  A    between atoms: C_9  and  C_10 
REMARK    6  A    between atoms: C_10  and  N_11 
REMARK    7  A    between atoms: N_11  and  C_12 
REMARK    8  A    between atoms: C_19  and  C_20 
REMARK       I    between atoms: C_20  and  N_21 
ROOT
HETATM    1  C   UNL     1     -41.866  58.508 -53.713  1.00  0.00     0.009 A 
HETATM    2  C   UNL     1     -43.025  59.144 -53.230  1.00  0.00     0.039 A 
HETATM    3  C   UNL     1     -43.045  59.711 -51.938  1.00  0.00     0.030 A 
HETATM    4  C   UNL     1     -41.890  59.663 -51.172  1.00  0.00     0.063 A 
HETATM    5  N   UNL     1     -42.205  60.286 -49.997  1.00  0.00    -0.277 N 
HETATM    6  H   UNL     1     -41.596  60.441 -49.202  1.00  0.00     0.189 HD
HETATM    7  N   UNL     1     -43.470  60.734 -49.928  1.00  0.00    -0.168 NA
HETATM    8  C   UNL     1     -44.001  60.387 -51.123  1.00  0.00     0.156 A 
HETATM    9  C   UNL     1     -40.704  59.084 -51.624  1.00  0.00     0.034 A 
HETATM   10  C   UNL     1     -40.718  58.524 -52.910  1.00  0.00     0.026 A 
ENDROOT
BRANCH   1  11
HETATM   11  N   UNL     1     -41.875  58.019 -55.028  1.00  0.00    -0.289 NA
HETATM   12  H   UNL     1     -41.989  58.767 -55.710  1.00  0.00     0.128 HD
BRANCH  11  13
HETATM   13  C   UNL     1     -42.711  56.868 -55.340  1.00  0.00     0.131 C 
BRANCH  13  14
HETATM   14  C   UNL     1     -42.140  55.622 -54.706  1.00  0.00    -0.045 A 
HETATM   15  C   UNL     1     -40.835  55.206 -55.012  1.00  0.00     0.011 A 
HETATM   16  C   UNL     1     -40.270  54.097 -54.372  1.00  0.00     0.037 A 
HETATM   17  C   UNL     1     -41.004  53.398 -53.414  1.00  0.00     0.068 A 
HETATM   18  C   UNL     1     -42.320  53.771 -53.147  1.00  0.00     0.037 A 
HETATM   19  C   UNL     1     -42.886  54.879 -53.782  1.00  0.00     0.011 A 
BRANCH  17  20
HETATM   20  O   UNL     1     -40.537  52.329 -52.698  1.00  0.00    -0.351 OA
BRANCH  20  21
HETATM   21  C   UNL     1     -39.673  52.658 -51.605  1.00  0.00     0.176 C 
BRANCH  21  22
HETATM   22  C   UNL     1     -40.554  53.002 -50.404  1.00  0.00     0.030 C 
BRANCH  22  23
HETATM   23  C   UNL     1     -40.044  54.202 -49.591  1.00  0.00    -0.021 C 
HETATM   24  C   UNL     1     -40.209  53.993 -48.085  1.00  0.00     0.009 C 
HETATM   25  C   UNL     1     -40.775  55.475 -50.022  1.00  0.00     0.009 C 
ENDBRANCH  22  23
ENDBRANCH  21  22
ENDBRANCH  20  21
ENDBRANCH  17  20
ENDBRANCH  13  14
ENDBRANCH  11  13
ENDBRANCH   1  11
BRANCH   8  26
HETATM   26  C   UNL     1     -45.397  60.700 -51.456  1.00  0.00     0.270 C 
HETATM   27  N   UNL     1     -45.729  62.016 -51.287  1.00  0.00    -0.365 N 
HETATM   28  H   UNL     1     -45.017  62.655 -50.954  1.00  0.00     0.159 HD
HETATM   29  H   UNL     1     -46.667  62.327 -51.487  1.00  0.00     0.159 HD
HETATM   30  O   UNL     1     -46.220  59.880 -51.852  1.00  0.00    -0.266 OA
ENDBRANCH   8  26
TORSDOF 8
ENDMDL
