MODEL 1
REMARK VINA RESULT:      -8.3      0.000      0.000
REMARK  6 active torsions:
REMARK  status: ('A' for Active; 'I' for Inactive)
REMARK    1  A    between atoms: C_2  and  O_3 
REMARK    2  A    between atoms: C_2  and  C_4 
REMARK    3  A    between atoms: C_7  and  N_8 
REMARK       I    between atoms: N_8  and  C_9 
REMARK    4  A    between atoms: C_9  and  C_10 
REMARK    5  A    between atoms: C_15  and  C_16 
REMARK    6  A    between atoms: C_22  and  C_23 
ROOT
HETATM    1  C   UNL     1     -43.693  56.911 -51.330  1.00  0.00     0.148 A 
HETATM    2  N   UNL     1     -42.920  57.967 -51.677  1.00  0.00    -0.165 NA
HETATM    3  N   UNL     1     -43.733  59.025 -51.485  1.00  0.00    -0.240 N 
HETATM    4  C   UNL     1     -45.014  58.685 -51.147  1.00  0.00     0.123 A 
HETATM    5  N   UNL     1     -45.990  59.609 -51.030  1.00  0.00    -0.364 N 
HETATM    6  C   UNL     1     -45.715  61.044 -51.079  1.00  0.00     0.143 C 
HETATM    7  C   UNL     1     -44.471  61.324 -51.941  1.00  0.00     0.068 C 
HETATM    8  C   UNL     1     -43.277  60.390 -51.663  1.00  0.00     0.221 C 
HETATM    9  C   UNL     1     -45.013  57.325 -50.997  1.00  0.00     0.089 A 
HETATM   10  H   UNL     1     -46.900  59.357 -50.648  1.00  0.00     0.162 HD
ENDROOT
BRANCH   1  11
HETATM   11  C   UNL     1     -43.194  55.524 -51.337  1.00  0.00     0.276 C 
HETATM   12  N   UNL     1     -42.101  55.365 -52.167  1.00  0.00    -0.322 N 
HETATM   13  H   UNL     1     -41.834  56.216 -52.655  1.00  0.00     0.169 HD
HETATM   14  O   UNL     1     -43.748  54.649 -50.679  1.00  0.00    -0.266 OA
BRANCH  12  15
HETATM   15  C   UNL     1     -41.388  54.185 -52.442  1.00  0.00     0.035 A 
HETATM   16  C   UNL     1     -40.570  53.540 -51.514  1.00  0.00     0.030 A 
HETATM   17  C   UNL     1     -39.905  52.355 -51.852  1.00  0.00     0.012 A 
HETATM   18  C   UNL     1     -40.045  51.790 -53.125  1.00  0.00    -0.030 A 
HETATM   19  C   UNL     1     -40.868  52.441 -54.054  1.00  0.00     0.012 A 
HETATM   20  C   UNL     1     -41.523  53.632 -53.719  1.00  0.00     0.030 A 
BRANCH  18  21
HETATM   21  C   UNL     1     -39.359  50.480 -53.449  1.00  0.00     0.147 C 
HETATM   22  C   UNL     1     -39.827  49.837 -54.748  1.00  0.00     0.044 C 
BRANCH  21  23
HETATM   23  O   UNL     1     -39.571  49.558 -52.382  1.00  0.00    -0.391 OA
HETATM   24  H   UNL     1     -40.247  48.924 -52.677  1.00  0.00     0.210 HD
ENDBRANCH  21  23
ENDBRANCH  18  21
ENDBRANCH  12  15
ENDBRANCH   1  11
BRANCH   8  25
HETATM   25  C   UNL     1     -42.434  60.807 -50.478  1.00  0.00     0.409 C 
HETATM   26  F   UNL     1     -42.897  60.358 -49.296  1.00  0.00    -0.169 F 
HETATM   27  F   UNL     1     -41.155  60.379 -50.599  1.00  0.00    -0.169 F 
HETATM   28  F   UNL     1     -42.371  62.160 -50.398  1.00  0.00    -0.169 F 
ENDBRANCH   8  25
BRANCH   6  29
HETATM   29  C   UNL     1     -45.680  61.716 -49.744  1.00  0.00     0.075 A 
HETATM   30  O   UNL     1     -45.966  60.934 -48.663  1.00  0.00    -0.325 OA
HETATM   31  C   UNL     1     -45.839  61.716 -47.560  1.00  0.00     0.142 A 
HETATM   32  C   UNL     1     -45.472  62.993 -47.914  1.00  0.00     0.027 A 
HETATM   33  C   UNL     1     -45.362  62.993 -49.325  1.00  0.00     0.037 A 
ENDBRANCH   6  29
TORSDOF 6
ENDMDL
MODEL 2
REMARK VINA RESULT:      -8.3      6.058      7.242
REMARK  6 active torsions:
REMARK  status: ('A' for Active; 'I' for Inactive)
REMARK    1  A    between atoms: C_2  and  O_3 
REMARK    2  A    between atoms: C_2  and  C_4 
REMARK    3  A    between atoms: C_7  and  N_8 
REMARK       I    between atoms: N_8  and  C_9 
REMARK    4  A    between atoms: C_9  and  C_10 
REMARK    5  A    between atoms: C_15  and  C_16 
REMARK    6  A    between atoms: C_22  and  C_23 
ROOT
HETATM    1  C   UNL     1     -43.036  56.059 -56.311  1.00  0.00     0.148 A 
HETATM    2  N   UNL     1     -43.110  56.021 -57.662  1.00  0.00    -0.165 NA
HETATM    3  N   UNL     1     -43.269  57.316 -58.002  1.00  0.00    -0.240 N 
HETATM    4  C   UNL     1     -43.416  58.155 -56.932  1.00  0.00     0.123 A 
HETATM    5  N   UNL     1     -43.699  59.465 -57.087  1.00  0.00    -0.364 N 
HETATM    6  C   UNL     1     -43.694  60.115 -58.397  1.00  0.00     0.143 C 
HETATM    7  C   UNL     1     -44.045  59.101 -59.500  1.00  0.00     0.068 C 
HETATM    8  C   UNL     1     -43.315  57.750 -59.385  1.00  0.00     0.221 C 
HETATM    9  C   UNL     1     -43.228  57.381 -55.820  1.00  0.00     0.089 A 
HETATM   10  H   UNL     1     -43.672  60.100 -56.290  1.00  0.00     0.162 HD
ENDROOT
BRANCH   1  11
HETATM   11  C   UNL     1     -42.810  54.853 -55.493  1.00  0.00     0.276 C 
HETATM   12  N   UNL     1     -41.636  54.925 -54.769  1.00  0.00    -0.322 N 
HETATM   13  H   UNL     1     -41.108  55.777 -54.933  1.00  0.00     0.169 HD
HETATM   14  O   UNL     1     -43.600  53.915 -55.518  1.00  0.00    -0.266 OA
BRANCH  12  15
HETATM   15  C   UNL     1     -41.088  53.954 -53.912  1.00  0.00     0.035 A 
HETATM   16  C   UNL     1     -41.110  54.050 -52.520  1.00  0.00     0.030 A 
HETATM   17  C   UNL     1     -40.561  53.034 -51.727  1.00  0.00     0.012 A 
HETATM   18  C   UNL     1     -39.981  51.901 -52.310  1.00  0.00    -0.030 A 
HETATM   19  C   UNL     1     -39.962  51.809 -53.708  1.00  0.00     0.012 A 
HETATM   20  C   UNL     1     -40.499  52.831 -54.500  1.00  0.00     0.030 A 
BRANCH  18  21
HETATM   21  C   UNL     1     -39.444  50.791 -51.432  1.00  0.00     0.147 C 
HETATM   22  C   UNL     1     -39.552  49.403 -52.048  1.00  0.00     0.044 C 
BRANCH  21  23
HETATM   23  O   UNL     1     -40.141  50.794 -50.187  1.00  0.00    -0.391 OA
HETATM   24  H   UNL     1     -40.714  51.580 -50.178  1.00  0.00     0.210 HD
ENDBRANCH  21  23
ENDBRANCH  18  21
ENDBRANCH  12  15
ENDBRANCH   1  11
BRANCH   8  25
HETATM   25  C   UNL     1     -41.918  57.756 -59.965  1.00  0.00     0.409 C 
HETATM   26  F   UNL     1     -41.768  58.584 -61.016  1.00  0.00    -0.169 F 
HETATM   27  F   UNL     1     -40.993  58.107 -59.041  1.00  0.00    -0.169 F 
HETATM   28  F   UNL     1     -41.577  56.509 -60.382  1.00  0.00    -0.169 F 
ENDBRANCH   8  25
BRANCH   6  29
HETATM   29  C   UNL     1     -42.464  60.914 -58.689  1.00  0.00     0.075 A 
HETATM   30  O   UNL     1     -42.362  61.431 -59.949  1.00  0.00    -0.325 OA
HETATM   31  C   UNL     1     -41.210  62.147 -59.993  1.00  0.00     0.142 A 
HETATM   32  C   UNL     1     -40.567  62.101 -58.779  1.00  0.00     0.027 A 
HETATM   33  C   UNL     1     -41.379  61.310 -57.933  1.00  0.00     0.037 A 
ENDBRANCH   6  29
TORSDOF 6
ENDMDL
MODEL 3
REMARK VINA RESULT:      -7.8      6.056      7.316
REMARK  6 active torsions:
REMARK  status: ('A' for Active; 'I' for Inactive)
REMARK    1  A    between atoms: C_2  and  O_3 
REMARK    2  A    between atoms: C_2  and  C_4 
REMARK    3  A    between atoms: C_7  and  N_8 
REMARK       I    between atoms: N_8  and  C_9 
REMARK    4  A    between atoms: C_9  and  C_10 
REMARK    5  A    between atoms: C_15  and  C_16 
REMARK    6  A    between atoms: C_22  and  C_23 
ROOT
HETATM    1  C   UNL     1     -42.679  55.801 -56.850  1.00  0.00     0.148 A 
HETATM    2  N   UNL     1     -42.301  57.084 -56.641  1.00  0.00    -0.165 NA
HETATM    3  N   UNL     1     -42.596  57.691 -57.808  1.00  0.00    -0.240 N 
HETATM    4  C   UNL     1     -43.034  56.835 -58.781  1.00  0.00     0.123 A 
HETATM    5  N   UNL     1     -43.266  57.249 -60.044  1.00  0.00    -0.364 N 
HETATM    6  C   UNL     1     -43.239  58.663 -60.418  1.00  0.00     0.143 C 
HETATM    7  C   UNL     1     -42.281  59.443 -59.500  1.00  0.00     0.068 C 
HETATM    8  C   UNL     1     -42.423  59.117 -58.002  1.00  0.00     0.221 C 
HETATM    9  C   UNL     1     -43.140  55.609 -58.182  1.00  0.00     0.089 A 
HETATM   10  H   UNL     1     -43.717  56.633 -60.718  1.00  0.00     0.162 HD
ENDROOT
BRANCH   1  11
HETATM   11  C   UNL     1     -42.584  54.764 -55.806  1.00  0.00     0.276 C 
HETATM   12  N   UNL     1     -41.348  54.753 -55.191  1.00  0.00    -0.322 N 
HETATM   13  H   UNL     1     -40.698  55.438 -55.569  1.00  0.00     0.169 HD
HETATM   14  O   UNL     1     -43.524  54.009 -55.577  1.00  0.00    -0.266 OA
BRANCH  12  15
HETATM   15  C   UNL     1     -40.892  53.888 -54.180  1.00  0.00     0.035 A 
HETATM   16  C   UNL     1     -41.002  54.165 -52.816  1.00  0.00     0.030 A 
HETATM   17  C   UNL     1     -40.544  53.247 -51.864  1.00  0.00     0.012 A 
HETATM   18  C   UNL     1     -39.967  52.032 -52.254  1.00  0.00    -0.030 A 
HETATM   19  C   UNL     1     -39.860  51.759 -53.624  1.00  0.00     0.012 A 
HETATM   20  C   UNL     1     -40.307  52.683 -54.576  1.00  0.00     0.030 A 
BRANCH  18  21
HETATM   21  C   UNL     1     -39.529  51.032 -51.205  1.00  0.00     0.147 C 
HETATM   22  C   UNL     1     -39.589  49.582 -51.665  1.00  0.00     0.044 C 
BRANCH  21  23
HETATM   23  O   UNL     1     -40.344  51.178 -50.044  1.00  0.00    -0.391 OA
HETATM   24  H   UNL     1     -40.946  51.926 -50.205  1.00  0.00     0.210 HD
ENDBRANCH  21  23
ENDBRANCH  18  21
ENDBRANCH  12  15
ENDBRANCH   1  11
BRANCH   8  25
HETATM   25  C   UNL     1     -43.543  59.866 -57.313  1.00  0.00     0.409 C 
HETATM   26  F   UNL     1     -44.700  59.180 -57.252  1.00  0.00    -0.169 F 
HETATM   27  F   UNL     1     -43.210  60.209 -56.046  1.00  0.00    -0.169 F 
HETATM   28  F   UNL     1     -43.798  61.031 -57.962  1.00  0.00    -0.169 F 
ENDBRANCH   8  25
BRANCH   6  29
HETATM   29  C   UNL     1     -44.587  59.296 -60.551  1.00  0.00     0.075 A 
HETATM   30  O   UNL     1     -44.613  60.569 -61.042  1.00  0.00    -0.325 OA
HETATM   31  C   UNL     1     -45.917  60.939 -61.123  1.00  0.00     0.142 A 
HETATM   32  C   UNL     1     -46.734  59.921 -60.692  1.00  0.00     0.027 A 
HETATM   33  C   UNL     1     -45.876  58.856 -60.329  1.00  0.00     0.037 A 
ENDBRANCH   6  29
TORSDOF 6
ENDMDL
MODEL 4
REMARK VINA RESULT:      -7.7      6.367      7.657
REMARK  6 active torsions:
REMARK  status: ('A' for Active; 'I' for Inactive)
REMARK    1  A    between atoms: C_2  and  O_3 
REMARK    2  A    between atoms: C_2  and  C_4 
REMARK    3  A    between atoms: C_7  and  N_8 
REMARK       I    between atoms: N_8  and  C_9 
REMARK    4  A    between atoms: C_9  and  C_10 
REMARK    5  A    between atoms: C_15  and  C_16 
REMARK    6  A    between atoms: C_22  and  C_23 
ROOT
HETATM    1  C   UNL     1     -42.291  56.972 -55.734  1.00  0.00     0.148 A 
HETATM    2  N   UNL     1     -43.016  56.344 -56.689  1.00  0.00    -0.165 NA
HETATM    3  N   UNL     1     -43.481  57.359 -57.445  1.00  0.00    -0.240 N 
HETATM    4  C   UNL     1     -43.183  58.599 -56.950  1.00  0.00     0.123 A 
HETATM    5  N   UNL     1     -43.666  59.726 -57.513  1.00  0.00    -0.364 N 
HETATM    6  C   UNL     1     -44.388  59.715 -58.785  1.00  0.00     0.143 C 
HETATM    7  C   UNL     1     -45.109  58.370 -58.981  1.00  0.00     0.068 C 
HETATM    8  C   UNL     1     -44.256  57.131 -58.649  1.00  0.00     0.221 C 
HETATM    9  C   UNL     1     -42.378  58.386 -55.866  1.00  0.00     0.089 A 
HETATM   10  H   UNL     1     -43.328  60.640 -57.217  1.00  0.00     0.162 HD
ENDROOT
BRANCH   1  11
HETATM   11  C   UNL     1     -41.543  56.241 -54.694  1.00  0.00     0.276 C 
HETATM   12  N   UNL     1     -41.725  54.874 -54.783  1.00  0.00    -0.322 N 
HETATM   13  H   UNL     1     -42.358  54.595 -55.527  1.00  0.00     0.169 HD
HETATM   14  O   UNL     1     -40.875  56.839 -53.857  1.00  0.00    -0.266 OA
BRANCH  12  15
HETATM   15  C   UNL     1     -41.195  53.876 -53.947  1.00  0.00     0.035 A 
HETATM   16  C   UNL     1     -40.440  52.797 -54.410  1.00  0.00     0.030 A 
HETATM   17  C   UNL     1     -39.927  51.849 -53.516  1.00  0.00     0.012 A 
HETATM   18  C   UNL     1     -40.156  51.961 -52.140  1.00  0.00    -0.030 A 
HETATM   19  C   UNL     1     -40.913  53.046 -51.679  1.00  0.00     0.012 A 
HETATM   20  C   UNL     1     -41.437  53.986 -52.575  1.00  0.00     0.030 A 
BRANCH  18  21
HETATM   21  C   UNL     1     -39.545  50.955 -51.188  1.00  0.00     0.147 C 
HETATM   22  C   UNL     1     -39.491  49.534 -51.735  1.00  0.00     0.044 C 
BRANCH  21  23
HETATM   23  O   UNL     1     -40.285  50.947 -49.969  1.00  0.00    -0.391 OA
HETATM   24  H   UNL     1     -40.930  51.675 -50.018  1.00  0.00     0.210 HD
ENDBRANCH  21  23
ENDBRANCH  18  21
ENDBRANCH  12  15
ENDBRANCH   1  11
BRANCH   8  25
HETATM   25  C   UNL     1     -43.340  56.697 -59.772  1.00  0.00     0.409 C 
HETATM   26  F   UNL     1     -43.078  55.377 -59.780  1.00  0.00    -0.169 F 
HETATM   27  F   UNL     1     -43.851  57.014 -60.986  1.00  0.00    -0.169 F 
HETATM   28  F   UNL     1     -42.150  57.344 -59.685  1.00  0.00    -0.169 F 
ENDBRANCH   8  25
BRANCH   6  29
HETATM   29  C   UNL     1     -43.572  60.133 -59.966  1.00  0.00     0.075 A 
HETATM   30  O   UNL     1     -42.275  60.477 -59.717  1.00  0.00    -0.325 OA
HETATM   31  C   UNL     1     -41.706  60.779 -60.912  1.00  0.00     0.142 A 
HETATM   32  C   UNL     1     -42.619  60.634 -61.930  1.00  0.00     0.027 A 
HETATM   33  C   UNL     1     -43.823  60.210 -61.322  1.00  0.00     0.037 A 
ENDBRANCH   6  29
TORSDOF 6
ENDMDL
MODEL 5
REMARK VINA RESULT:      -7.7      1.521      1.986
REMARK  6 active torsions:
REMARK  status: ('A' for Active; 'I' for Inactive)
REMARK    1  A    between atoms: C_2  and  O_3 
REMARK    2  A    between atoms: C_2  and  C_4 
REMARK    3  A    between atoms: C_7  and  N_8 
REMARK       I    between atoms: N_8  and  C_9 
REMARK    4  A    between atoms: C_9  and  C_10 
REMARK    5  A    between atoms: C_15  and  C_16 
REMARK    6  A    between atoms: C_22  and  C_23 
ROOT
HETATM    1  C   UNL     1     -42.957  57.749 -52.638  1.00  0.00     0.148 A 
HETATM    2  N   UNL     1     -43.135  58.909 -53.312  1.00  0.00    -0.165 NA
HETATM    3  N   UNL     1     -44.071  59.552 -52.584  1.00  0.00    -0.240 N 
HETATM    4  C   UNL     1     -44.575  58.809 -51.552  1.00  0.00     0.123 A 
HETATM    5  N   UNL     1     -45.599  59.249 -50.792  1.00  0.00    -0.364 N 
HETATM    6  C   UNL     1     -46.121  60.611 -50.898  1.00  0.00     0.143 C 
HETATM    7  C   UNL     1     -45.911  61.157 -52.322  1.00  0.00     0.068 C 
HETATM    8  C   UNL     1     -44.511  60.895 -52.908  1.00  0.00     0.221 C 
HETATM    9  C   UNL     1     -43.847  57.652 -51.532  1.00  0.00     0.089 A 
HETATM   10  H   UNL     1     -45.873  58.748 -49.949  1.00  0.00     0.162 HD
ENDROOT
BRANCH   1  11
HETATM   11  C   UNL     1     -41.971  56.733 -53.051  1.00  0.00     0.276 C 
HETATM   12  N   UNL     1     -42.371  55.452 -52.723  1.00  0.00    -0.322 N 
HETATM   13  H   UNL     1     -43.260  55.416 -52.233  1.00  0.00     0.169 HD
HETATM   14  O   UNL     1     -40.920  57.056 -53.595  1.00  0.00    -0.266 OA
BRANCH  12  15
HETATM   15  C   UNL     1     -41.676  54.248 -52.935  1.00  0.00     0.035 A 
HETATM   16  C   UNL     1     -41.713  53.533 -54.133  1.00  0.00     0.030 A 
HETATM   17  C   UNL     1     -40.978  52.350 -54.279  1.00  0.00     0.012 A 
HETATM   18  C   UNL     1     -40.191  51.857 -53.232  1.00  0.00    -0.030 A 
HETATM   19  C   UNL     1     -40.157  52.579 -52.031  1.00  0.00     0.012 A 
HETATM   20  C   UNL     1     -40.902  53.756 -51.881  1.00  0.00     0.030 A 
BRANCH  18  21
HETATM   21  C   UNL     1     -39.363  50.606 -53.432  1.00  0.00     0.147 C 
HETATM   22  C   UNL     1     -39.745  49.798 -54.665  1.00  0.00     0.044 C 
BRANCH  21  23
HETATM   23  O   UNL     1     -39.484  49.770 -52.283  1.00  0.00    -0.391 OA
HETATM   24  H   UNL     1     -40.007  50.259 -51.624  1.00  0.00     0.210 HD
ENDBRANCH  21  23
ENDBRANCH  18  21
ENDBRANCH  12  15
ENDBRANCH   1  11
BRANCH   8  25
HETATM   25  C   UNL     1     -43.464  61.896 -52.472  1.00  0.00     0.409 C 
HETATM   26  F   UNL     1     -43.972  63.085 -52.095  1.00  0.00    -0.169 F 
HETATM   27  F   UNL     1     -42.724  61.428 -51.439  1.00  0.00    -0.169 F 
HETATM   28  F   UNL     1     -42.590  62.133 -53.483  1.00  0.00    -0.169 F 
ENDBRANCH   8  25
BRANCH   6  29
HETATM   29  C   UNL     1     -45.650  61.542 -49.827  1.00  0.00     0.075 A 
HETATM   30  O   UNL     1     -46.276  62.754 -49.758  1.00  0.00    -0.325 OA
HETATM   31  C   UNL     1     -45.737  63.421 -48.706  1.00  0.00     0.142 A 
HETATM   32  C   UNL     1     -44.773  62.657 -48.093  1.00  0.00     0.027 A 
HETATM   33  C   UNL     1     -44.720  61.439 -48.811  1.00  0.00     0.037 A 
ENDBRANCH   6  29
TORSDOF 6
ENDMDL
MODEL 6
REMARK VINA RESULT:      -7.6      1.688      1.940
REMARK  6 active torsions:
REMARK  status: ('A' for Active; 'I' for Inactive)
REMARK    1  A    between atoms: C_2  and  O_3 
REMARK    2  A    between atoms: C_2  and  C_4 
REMARK    3  A    between atoms: C_7  and  N_8 
REMARK       I    between atoms: N_8  and  C_9 
REMARK    4  A    between atoms: C_9  and  C_10 
REMARK    5  A    between atoms: C_15  and  C_16 
REMARK    6  A    between atoms: C_22  and  C_23 
ROOT
HETATM    1  C   UNL     1     -43.395  57.653 -53.300  1.00  0.00     0.148 A 
HETATM    2  N   UNL     1     -42.471  58.539 -52.858  1.00  0.00    -0.165 NA
HETATM    3  N   UNL     1     -43.151  59.703 -52.814  1.00  0.00    -0.240 N 
HETATM    4  C   UNL     1     -44.422  59.620 -53.314  1.00  0.00     0.123 A 
HETATM    5  N   UNL     1     -45.204  60.710 -53.454  1.00  0.00    -0.364 N 
HETATM    6  C   UNL     1     -44.824  62.018 -52.922  1.00  0.00     0.143 C 
HETATM    7  C   UNL     1     -43.291  62.154 -52.878  1.00  0.00     0.068 C 
HETATM    8  C   UNL     1     -42.555  60.925 -52.312  1.00  0.00     0.221 C 
HETATM    9  C   UNL     1     -44.627  58.298 -53.599  1.00  0.00     0.089 A 
HETATM   10  H   UNL     1     -46.188  60.614 -53.700  1.00  0.00     0.162 HD
ENDROOT
BRANCH   1  11
HETATM   11  C   UNL     1     -43.106  56.216 -53.458  1.00  0.00     0.276 C 
HETATM   12  N   UNL     1     -41.821  55.895 -53.068  1.00  0.00    -0.322 N 
HETATM   13  H   UNL     1     -41.276  56.696 -52.760  1.00  0.00     0.169 HD
HETATM   14  O   UNL     1     -43.946  55.449 -53.917  1.00  0.00    -0.266 OA
BRANCH  12  15
HETATM   15  C   UNL     1     -41.194  54.637 -53.107  1.00  0.00     0.035 A 
HETATM   16  C   UNL     1     -40.890  53.886 -51.971  1.00  0.00     0.030 A 
HETATM   17  C   UNL     1     -40.282  52.630 -52.088  1.00  0.00     0.012 A 
HETATM   18  C   UNL     1     -39.966  52.098 -53.343  1.00  0.00    -0.030 A 
HETATM   19  C   UNL     1     -40.273  52.855 -54.481  1.00  0.00     0.012 A 
HETATM   20  C   UNL     1     -40.870  54.116 -54.363  1.00  0.00     0.030 A 
BRANCH  18  21
HETATM   21  C   UNL     1     -39.359  50.715 -53.446  1.00  0.00     0.147 C 
HETATM   22  C   UNL     1     -39.883  49.890 -54.614  1.00  0.00     0.044 C 
BRANCH  21  23
HETATM   23  O   UNL     1     -39.604  50.000 -52.236  1.00  0.00    -0.391 OA
HETATM   24  H   UNL     1     -38.832  50.135 -51.659  1.00  0.00     0.210 HD
ENDBRANCH  21  23
ENDBRANCH  18  21
ENDBRANCH  12  15
ENDBRANCH   1  11
BRANCH   8  25
HETATM   25  C   UNL     1     -42.501  60.884 -50.800  1.00  0.00     0.409 C 
HETATM   26  F   UNL     1     -41.378  60.326 -50.311  1.00  0.00    -0.169 F 
HETATM   27  F   UNL     1     -42.603  62.123 -50.262  1.00  0.00    -0.169 F 
HETATM   28  F   UNL     1     -43.551  60.175 -50.311  1.00  0.00    -0.169 F 
ENDBRANCH   8  25
BRANCH   6  29
HETATM   29  C   UNL     1     -45.493  62.385 -51.636  1.00  0.00     0.075 A 
HETATM   30  O   UNL     1     -45.210  63.623 -51.137  1.00  0.00    -0.325 OA
HETATM   31  C   UNL     1     -45.942  63.772 -50.003  1.00  0.00     0.142 A 
HETATM   32  C   UNL     1     -46.695  62.647 -49.765  1.00  0.00     0.027 A 
HETATM   33  C   UNL     1     -46.412  61.752 -50.823  1.00  0.00     0.037 A 
ENDBRANCH   6  29
TORSDOF 6
ENDMDL
MODEL 7
REMARK VINA RESULT:      -7.6      6.985      9.010
REMARK  6 active torsions:
REMARK  status: ('A' for Active; 'I' for Inactive)
REMARK    1  A    between atoms: C_2  and  O_3 
REMARK    2  A    between atoms: C_2  and  C_4 
REMARK    3  A    between atoms: C_7  and  N_8 
REMARK       I    between atoms: N_8  and  C_9 
REMARK    4  A    between atoms: C_9  and  C_10 
REMARK    5  A    between atoms: C_15  and  C_16 
REMARK    6  A    between atoms: C_22  and  C_23 
ROOT
HETATM    1  C   UNL     1     -43.427  56.965 -56.843  1.00  0.00     0.148 A 
HETATM    2  N   UNL     1     -42.164  56.556 -56.580  1.00  0.00    -0.165 NA
HETATM    3  N   UNL     1     -42.057  56.714 -55.245  1.00  0.00    -0.240 N 
HETATM    4  C   UNL     1     -43.146  57.309 -54.670  1.00  0.00     0.123 A 
HETATM    5  N   UNL     1     -43.165  57.649 -53.365  1.00  0.00    -0.364 N 
HETATM    6  C   UNL     1     -42.107  57.250 -52.438  1.00  0.00     0.143 C 
HETATM    7  C   UNL     1     -40.771  57.089 -53.186  1.00  0.00     0.068 C 
HETATM    8  C   UNL     1     -40.871  56.314 -54.514  1.00  0.00     0.221 C 
HETATM    9  C   UNL     1     -44.069  57.447 -55.669  1.00  0.00     0.089 A 
HETATM   10  H   UNL     1     -44.027  57.967 -52.924  1.00  0.00     0.162 HD
ENDROOT
BRANCH   1  11
HETATM   11  C   UNL     1     -44.011  56.920 -58.197  1.00  0.00     0.276 C 
HETATM   12  N   UNL     1     -45.300  57.417 -58.228  1.00  0.00    -0.322 N 
HETATM   13  H   UNL     1     -45.646  57.708 -57.317  1.00  0.00     0.169 HD
HETATM   14  O   UNL     1     -43.382  56.457 -59.142  1.00  0.00    -0.266 OA
BRANCH  12  15
HETATM   15  C   UNL     1     -46.168  57.502 -59.330  1.00  0.00     0.035 A 
HETATM   16  C   UNL     1     -46.685  58.703 -59.819  1.00  0.00     0.030 A 
HETATM   17  C   UNL     1     -47.529  58.714 -60.935  1.00  0.00     0.012 A 
HETATM   18  C   UNL     1     -47.874  57.525 -61.588  1.00  0.00    -0.030 A 
HETATM   19  C   UNL     1     -47.353  56.322 -61.094  1.00  0.00     0.012 A 
HETATM   20  C   UNL     1     -46.518  56.310 -59.970  1.00  0.00     0.030 A 
BRANCH  18  21
HETATM   21  C   UNL     1     -48.745  57.567 -62.826  1.00  0.00     0.147 C 
HETATM   22  C   UNL     1     -50.089  58.250 -62.618  1.00  0.00     0.044 C 
BRANCH  21  23
HETATM   23  O   UNL     1     -48.975  56.237 -63.287  1.00  0.00    -0.391 OA
HETATM   24  H   UNL     1     -49.907  56.025 -63.106  1.00  0.00     0.210 HD
ENDBRANCH  21  23
ENDBRANCH  18  21
ENDBRANCH  12  15
ENDBRANCH   1  11
BRANCH   8  25
HETATM   25  C   UNL     1     -40.853  54.810 -54.351  1.00  0.00     0.409 C 
HETATM   26  F   UNL     1     -40.265  54.393 -53.213  1.00  0.00    -0.169 F 
HETATM   27  F   UNL     1     -42.102  54.290 -54.373  1.00  0.00    -0.169 F 
HETATM   28  F   UNL     1     -40.187  54.233 -55.384  1.00  0.00    -0.169 F 
ENDBRANCH   8  25
BRANCH   6  29
HETATM   29  C   UNL     1     -42.449  56.082 -51.570  1.00  0.00     0.075 A 
HETATM   30  O   UNL     1     -41.548  55.767 -50.594  1.00  0.00    -0.325 OA
HETATM   31  C   UNL     1     -42.061  54.719 -49.901  1.00  0.00     0.142 A 
HETATM   32  C   UNL     1     -43.283  54.353 -50.415  1.00  0.00     0.027 A 
HETATM   33  C   UNL     1     -43.538  55.237 -51.489  1.00  0.00     0.037 A 
ENDBRANCH   6  29
TORSDOF 6
ENDMDL
MODEL 8
REMARK VINA RESULT:      -7.5      3.133      9.683
REMARK  6 active torsions:
REMARK  status: ('A' for Active; 'I' for Inactive)
REMARK    1  A    between atoms: C_2  and  O_3 
REMARK    2  A    between atoms: C_2  and  C_4 
REMARK    3  A    between atoms: C_7  and  N_8 
REMARK       I    between atoms: N_8  and  C_9 
REMARK    4  A    between atoms: C_9  and  C_10 
REMARK    5  A    between atoms: C_15  and  C_16 
REMARK    6  A    between atoms: C_22  and  C_23 
ROOT
HETATM    1  C   UNL     1     -44.162  58.954 -51.260  1.00  0.00     0.148 A 
HETATM    2  N   UNL     1     -44.511  58.689 -52.541  1.00  0.00    -0.165 NA
HETATM    3  N   UNL     1     -43.398  58.131 -53.057  1.00  0.00    -0.240 N 
HETATM    4  C   UNL     1     -42.329  58.135 -52.204  1.00  0.00     0.123 A 
HETATM    5  N   UNL     1     -41.105  57.723 -52.592  1.00  0.00    -0.364 N 
HETATM    6  C   UNL     1     -40.873  57.079 -53.885  1.00  0.00     0.143 C 
HETATM    7  C   UNL     1     -41.900  57.568 -54.921  1.00  0.00     0.068 C 
HETATM    8  C   UNL     1     -43.353  57.613 -54.411  1.00  0.00     0.221 C 
HETATM    9  C   UNL     1     -42.800  58.624 -51.016  1.00  0.00     0.089 A 
HETATM   10  H   UNL     1     -40.356  57.606 -51.912  1.00  0.00     0.162 HD
ENDROOT
BRANCH   1  11
HETATM   11  C   UNL     1     -45.102  59.536 -50.284  1.00  0.00     0.276 C 
HETATM   12  N   UNL     1     -44.587  60.659 -49.665  1.00  0.00    -0.322 N 
HETATM   13  H   UNL     1     -43.641  60.887 -49.959  1.00  0.00     0.169 HD
HETATM   14  O   UNL     1     -46.194  59.019 -50.072  1.00  0.00    -0.266 OA
BRANCH  12  15
HETATM   15  C   UNL     1     -45.185  61.448 -48.668  1.00  0.00     0.035 A 
HETATM   16  C   UNL     1     -44.811  61.414 -47.324  1.00  0.00     0.030 A 
HETATM   17  C   UNL     1     -45.439  62.244 -46.387  1.00  0.00     0.012 A 
HETATM   18  C   UNL     1     -46.453  63.128 -46.775  1.00  0.00    -0.030 A 
HETATM   19  C   UNL     1     -46.825  63.159 -48.126  1.00  0.00     0.012 A 
HETATM   20  C   UNL     1     -46.206  62.319 -49.059  1.00  0.00     0.030 A 
BRANCH  18  21
HETATM   21  C   UNL     1     -47.079  64.054 -45.755  1.00  0.00     0.147 C 
HETATM   22  C   UNL     1     -46.294  64.171 -44.456  1.00  0.00     0.044 C 
BRANCH  21  23
HETATM   23  O   UNL     1     -48.397  63.603 -45.453  1.00  0.00    -0.391 OA
HETATM   24  H   UNL     1     -48.929  63.700 -46.262  1.00  0.00     0.210 HD
ENDBRANCH  21  23
ENDBRANCH  18  21
ENDBRANCH  12  15
ENDBRANCH   1  11
BRANCH   8  25
HETATM   25  C   UNL     1     -44.066  56.280 -54.472  1.00  0.00     0.409 C 
HETATM   26  F   UNL     1     -45.397  56.383 -54.645  1.00  0.00    -0.169 F 
HETATM   27  F   UNL     1     -43.589  55.502 -55.473  1.00  0.00    -0.169 F 
HETATM   28  F   UNL     1     -43.861  55.583 -53.325  1.00  0.00    -0.169 F 
ENDBRANCH   8  25
BRANCH   6  29
HETATM   29  C   UNL     1     -40.749  55.590 -53.824  1.00  0.00     0.075 A 
HETATM   30  O   UNL     1     -40.975  55.011 -52.609  1.00  0.00    -0.325 OA
HETATM   31  C   UNL     1     -40.855  53.669 -52.779  1.00  0.00     0.142 A 
HETATM   32  C   UNL     1     -40.558  53.374 -54.088  1.00  0.00     0.027 A 
HETATM   33  C   UNL     1     -40.495  54.613 -54.767  1.00  0.00     0.037 A 
ENDBRANCH   6  29
TORSDOF 6
ENDMDL
MODEL 9
REMARK VINA RESULT:      -7.5     17.665     20.165
REMARK  6 active torsions:
REMARK  status: ('A' for Active; 'I' for Inactive)
REMARK    1  A    between atoms: C_2  and  O_3 
REMARK    2  A    between atoms: C_2  and  C_4 
REMARK    3  A    between atoms: C_7  and  N_8 
REMARK       I    between atoms: N_8  and  C_9 
REMARK    4  A    between atoms: C_9  and  C_10 
REMARK    5  A    between atoms: C_15  and  C_16 
REMARK    6  A    between atoms: C_22  and  C_23 
ROOT
HETATM    1  C   UNL     1     -35.004  41.450 -53.587  1.00  0.00     0.148 A 
HETATM    2  N   UNL     1     -36.213  41.936 -53.953  1.00  0.00    -0.165 NA
HETATM    3  N   UNL     1     -36.216  41.789 -55.293  1.00  0.00    -0.240 N 
HETATM    4  C   UNL     1     -35.028  41.343 -55.803  1.00  0.00     0.123 A 
HETATM    5  N   UNL     1     -34.815  41.248 -57.131  1.00  0.00    -0.364 N 
HETATM    6  C   UNL     1     -35.884  41.441 -58.110  1.00  0.00     0.143 C 
HETATM    7  C   UNL     1     -36.953  42.399 -57.555  1.00  0.00     0.068 C 
HETATM    8  C   UNL     1     -37.375  42.115 -56.102  1.00  0.00     0.221 C 
HETATM    9  C   UNL     1     -34.234  41.074 -54.723  1.00  0.00     0.089 A 
HETATM   10  H   UNL     1     -33.979  40.790 -57.491  1.00  0.00     0.162 HD
ENDROOT
BRANCH   1  11
HETATM   11  C   UNL     1     -34.574  41.365 -52.179  1.00  0.00     0.276 C 
HETATM   12  N   UNL     1     -33.996  40.146 -51.881  1.00  0.00    -0.322 N 
HETATM   13  H   UNL     1     -33.983  39.499 -52.665  1.00  0.00     0.169 HD
HETATM   14  O   UNL     1     -34.761  42.297 -51.404  1.00  0.00    -0.266 OA
BRANCH  12  15
HETATM   15  C   UNL     1     -33.502  39.704 -50.642  1.00  0.00     0.035 A 
HETATM   16  C   UNL     1     -34.229  38.907 -49.756  1.00  0.00     0.030 A 
HETATM   17  C   UNL     1     -33.664  38.487 -48.546  1.00  0.00     0.012 A 
HETATM   18  C   UNL     1     -32.360  38.853 -48.196  1.00  0.00    -0.030 A 
HETATM   19  C   UNL     1     -31.633  39.653 -49.087  1.00  0.00     0.012 A 
HETATM   20  C   UNL     1     -32.203  40.083 -50.292  1.00  0.00     0.030 A 
BRANCH  18  21
HETATM   21  C   UNL     1     -31.751  38.342 -46.907  1.00  0.00     0.147 C 
HETATM   22  C   UNL     1     -30.873  39.356 -46.188  1.00  0.00     0.044 C 
BRANCH  21  23
HETATM   23  O   UNL     1     -30.975  37.178 -47.181  1.00  0.00    -0.391 OA
HETATM   24  H   UNL     1     -30.459  36.979 -46.380  1.00  0.00     0.210 HD
ENDBRANCH  21  23
ENDBRANCH  18  21
ENDBRANCH  12  15
ENDBRANCH   1  11
BRANCH   8  25
HETATM   25  C   UNL     1     -38.416  41.026 -55.966  1.00  0.00     0.409 C 
HETATM   26  F   UNL     1     -39.158  40.841 -57.074  1.00  0.00    -0.169 F 
HETATM   27  F   UNL     1     -37.856  39.834 -55.652  1.00  0.00    -0.169 F 
HETATM   28  F   UNL     1     -39.272  41.317 -54.953  1.00  0.00    -0.169 F 
ENDBRANCH   8  25
BRANCH   6  29
HETATM   29  C   UNL     1     -36.450  40.175 -58.670  1.00  0.00     0.075 A 
HETATM   30  O   UNL     1     -37.410  40.313 -59.630  1.00  0.00    -0.325 OA
HETATM   31  C   UNL     1     -37.757  39.062 -60.030  1.00  0.00     0.142 A 
HETATM   32  C   UNL     1     -37.031  38.119 -59.342  1.00  0.00     0.027 A 
HETATM   33  C   UNL     1     -36.182  38.836 -58.467  1.00  0.00     0.037 A 
ENDBRANCH   6  29
TORSDOF 6
ENDMDL
MODEL 10
REMARK VINA RESULT:      -7.4      5.597      8.372
REMARK  6 active torsions:
REMARK  status: ('A' for Active; 'I' for Inactive)
REMARK    1  A    between atoms: C_2  and  O_3 
REMARK    2  A    between atoms: C_2  and  C_4 
REMARK    3  A    between atoms: C_7  and  N_8 
REMARK       I    between atoms: N_8  and  C_9 
REMARK    4  A    between atoms: C_9  and  C_10 
REMARK    5  A    between atoms: C_15  and  C_16 
REMARK    6  A    between atoms: C_22  and  C_23 
ROOT
HETATM    1  C   UNL     1     -43.629  57.095 -55.152  1.00  0.00     0.148 A 
HETATM    2  N   UNL     1     -43.513  57.738 -53.966  1.00  0.00    -0.165 NA
HETATM    3  N   UNL     1     -43.392  56.732 -53.077  1.00  0.00    -0.240 N 
HETATM    4  C   UNL     1     -43.541  55.488 -53.626  1.00  0.00     0.123 A 
HETATM    5  N   UNL     1     -43.565  54.373 -52.867  1.00  0.00    -0.364 N 
HETATM    6  C   UNL     1     -43.258  54.395 -51.437  1.00  0.00     0.143 C 
HETATM    7  C   UNL     1     -43.619  55.763 -50.832  1.00  0.00     0.068 C 
HETATM    8  C   UNL     1     -43.162  56.974 -51.666  1.00  0.00     0.221 C 
HETATM    9  C   UNL     1     -43.654  55.684 -54.974  1.00  0.00     0.089 A 
HETATM   10  H   UNL     1     -43.542  53.450 -53.299  1.00  0.00     0.162 HD
ENDROOT
BRANCH   1  11
HETATM   11  C   UNL     1     -43.737  57.811 -56.437  1.00  0.00     0.276 C 
HETATM   12  N   UNL     1     -42.512  58.259 -56.892  1.00  0.00    -0.322 N 
HETATM   13  H   UNL     1     -41.743  58.048 -56.263  1.00  0.00     0.169 HD
HETATM   14  O   UNL     1     -44.826  57.981 -56.976  1.00  0.00    -0.266 OA
BRANCH  12  15
HETATM   15  C   UNL     1     -42.240  58.998 -58.056  1.00  0.00     0.035 A 
HETATM   16  C   UNL     1     -42.346  58.479 -59.347  1.00  0.00     0.030 A 
HETATM   17  C   UNL     1     -42.077  59.281 -60.463  1.00  0.00     0.012 A 
HETATM   18  C   UNL     1     -41.698  60.620 -60.312  1.00  0.00    -0.030 A 
HETATM   19  C   UNL     1     -41.593  61.137 -59.014  1.00  0.00     0.012 A 
HETATM   20  C   UNL     1     -41.850  60.331 -57.898  1.00  0.00     0.030 A 
BRANCH  18  21
HETATM   21  C   UNL     1     -41.466  61.482 -61.534  1.00  0.00     0.147 C 
HETATM   22  C   UNL     1     -42.342  62.726 -61.594  1.00  0.00     0.044 C 
BRANCH  21  23
HETATM   23  O   UNL     1     -41.694  60.707 -62.709  1.00  0.00    -0.391 OA
HETATM   24  H   UNL     1     -42.138  61.283 -63.355  1.00  0.00     0.210 HD
ENDBRANCH  21  23
ENDBRANCH  18  21
ENDBRANCH  12  15
ENDBRANCH   1  11
BRANCH   8  25
HETATM   25  C   UNL     1     -41.717  57.362 -51.443  1.00  0.00     0.409 C 
HETATM   26  F   UNL     1     -40.858  56.784 -52.305  1.00  0.00    -0.169 F 
HETATM   27  F   UNL     1     -41.539  58.702 -51.535  1.00  0.00    -0.169 F 
HETATM   28  F   UNL     1     -41.324  57.017 -50.190  1.00  0.00    -0.169 F 
ENDBRANCH   8  25
BRANCH   6  29
HETATM   29  C   UNL     1     -41.878  53.935 -51.091  1.00  0.00     0.075 A 
HETATM   30  O   UNL     1     -41.550  53.946 -49.766  1.00  0.00    -0.325 OA
HETATM   31  C   UNL     1     -40.287  53.458 -49.665  1.00  0.00     0.142 A 
HETATM   32  C   UNL     1     -39.795  53.130 -50.906  1.00  0.00     0.027 A 
HETATM   33  C   UNL     1     -40.825  53.431 -51.828  1.00  0.00     0.037 A 
ENDBRANCH   6  29
TORSDOF 6
ENDMDL
