MODEL 1
REMARK VINA RESULT:      -7.6      0.000      0.000
REMARK  7 active torsions:
REMARK  status: ('A' for Active; 'I' for Inactive)
REMARK    1  A    between atoms: C_7  and  C_8 
REMARK    2  A    between atoms: C_8  and  C_9 
REMARK    3  A    between atoms: C_9  and  C_10 
REMARK    4  A    between atoms: C_10  and  O_11 
REMARK    5  A    between atoms: C_13  and  C_14 
REMARK    6  A    between atoms: C_21  and  C_22 
REMARK       I    between atoms: C_22  and  N_23 
REMARK    7  A    between atoms: N_23  and  C_24 
ROOT
HETATM    1  C   UNL     1     -43.208  55.661 -58.820  1.00  0.00     0.070 C 
HETATM    2  C   UNL     1     -42.874  56.960 -58.128  1.00  0.00     0.037 C 
HETATM    3  N   UNL     1     -42.825  58.081 -58.949  1.00  0.00    -0.192 N 
HETATM    4  C   UNL     1     -42.320  59.264 -58.546  1.00  0.00     0.726 A 
HETATM    5  N   UNL     1     -41.975  59.438 -57.235  1.00  0.00    -0.083 N 
HETATM    6  N   UNL     1     -41.418  60.651 -57.030  1.00  0.00    -0.140 NA
HETATM    7  C   UNL     1     -41.489  61.172 -58.263  1.00  0.00     0.166 A 
HETATM    8  N   UNL     1     -42.041  60.350 -59.219  1.00  0.00    -0.046 NA
HETATM    9  C   UNL     1     -42.118  58.404 -56.204  1.00  0.00     0.202 C 
HETATM   10  C   UNL     1     -42.563  57.077 -56.813  1.00  0.00     0.062 C 
HETATM   11  H   UNL     1     -42.975  57.944 -59.945  1.00  0.00     0.184 HD
ENDROOT
BRANCH  10  12
HETATM   12  C   UNL     1     -42.513  55.939 -55.859  1.00  0.00     0.256 C 
HETATM   13  N   UNL     1     -41.236  55.622 -55.450  1.00  0.00    -0.323 N 
HETATM   14  H   UNL     1     -40.482  56.179 -55.830  1.00  0.00     0.169 HD
HETATM   15  O   UNL     1     -43.557  55.370 -55.569  1.00  0.00    -0.267 OA
BRANCH  13  16
HETATM   16  C   UNL     1     -40.857  54.601 -54.554  1.00  0.00     0.035 A 
HETATM   17  C   UNL     1     -40.375  53.352 -54.953  1.00  0.00     0.031 A 
HETATM   18  C   UNL     1     -40.024  52.388 -54.000  1.00  0.00     0.026 A 
HETATM   19  C   UNL     1     -40.161  52.669 -52.644  1.00  0.00     0.034 A 
HETATM   20 CL   UNL     1     -39.738  51.480 -51.475  1.00  0.00    -0.084 Cl
HETATM   21  C   UNL     1     -40.641  53.908 -52.232  1.00  0.00     0.026 A 
HETATM   22  C   UNL     1     -40.983  54.872 -53.185  1.00  0.00     0.031 A 
ENDBRANCH  13  16
ENDBRANCH  10  12
BRANCH   9  23
HETATM   23  C   UNL     1     -43.068  58.872 -55.103  1.00  0.00    -0.025 A 
HETATM   24  C   UNL     1     -42.605  58.956 -53.779  1.00  0.00     0.052 A 
HETATM   25  C   UNL     1     -43.464  59.361 -52.763  1.00  0.00     0.117 A 
HETATM   26  F   UNL     1     -43.006  59.440 -51.506  1.00  0.00    -0.206 F 
HETATM   27  C   UNL     1     -44.789  59.682 -53.028  1.00  0.00     0.042 A 
HETATM   28  C   UNL     1     -45.267  59.596 -54.333  1.00  0.00     0.004 A 
HETATM   29  C   UNL     1     -44.414  59.191 -55.365  1.00  0.00     0.010 A 
ENDBRANCH   9  23
BRANCH   7  30
HETATM   30  C   UNL     1     -41.001  62.538 -58.581  1.00  0.00     0.085 C 
BRANCH  30  31
HETATM   31  C   UNL     1     -39.906  62.557 -59.645  1.00  0.00     0.034 C 
BRANCH  31  32
HETATM   32  C   UNL     1     -40.429  62.923 -61.029  1.00  0.00     0.164 C 
BRANCH  32  33
HETATM   33  O   UNL     1     -40.785  61.739 -61.734  1.00  0.00    -0.401 OA
HETATM   34  H   UNL     1     -41.003  61.995 -62.646  1.00  0.00     0.209 HD
ENDBRANCH  32  33
ENDBRANCH  31  32
ENDBRANCH  30  31
ENDBRANCH   7  30
TORSDOF 7
ENDMDL
MODEL 2
REMARK VINA RESULT:      -7.6      4.329      6.281
REMARK  7 active torsions:
REMARK  status: ('A' for Active; 'I' for Inactive)
REMARK    1  A    between atoms: C_7  and  C_8 
REMARK    2  A    between atoms: C_8  and  C_9 
REMARK    3  A    between atoms: C_9  and  C_10 
REMARK    4  A    between atoms: C_10  and  O_11 
REMARK    5  A    between atoms: C_13  and  C_14 
REMARK    6  A    between atoms: C_21  and  C_22 
REMARK       I    between atoms: C_22  and  N_23 
REMARK    7  A    between atoms: N_23  and  C_24 
ROOT
HETATM    1  C   UNL     1     -41.120  56.654 -49.850  1.00  0.00     0.070 C 
HETATM    2  C   UNL     1     -42.095  57.193 -50.867  1.00  0.00     0.037 C 
HETATM    3  N   UNL     1     -42.426  58.537 -50.726  1.00  0.00    -0.192 N 
HETATM    4  C   UNL     1     -43.443  59.116 -51.392  1.00  0.00     0.726 A 
HETATM    5  N   UNL     1     -44.098  58.414 -52.366  1.00  0.00    -0.083 N 
HETATM    6  N   UNL     1     -45.133  59.119 -52.870  1.00  0.00    -0.140 NA
HETATM    7  C   UNL     1     -45.024  60.259 -52.173  1.00  0.00     0.166 A 
HETATM    8  N   UNL     1     -43.996  60.294 -51.259  1.00  0.00    -0.046 NA
HETATM    9  C   UNL     1     -43.763  57.038 -52.751  1.00  0.00     0.202 C 
HETATM   10  C   UNL     1     -42.697  56.453 -51.831  1.00  0.00     0.062 C 
HETATM   11  H   UNL     1     -42.027  59.041 -49.939  1.00  0.00     0.184 HD
ENDROOT
BRANCH  10  12
HETATM   12  C   UNL     1     -42.474  54.997 -52.029  1.00  0.00     0.256 C 
HETATM   13  N   UNL     1     -41.217  54.694 -52.504  1.00  0.00    -0.323 N 
HETATM   14  H   UNL     1     -40.589  55.471 -52.666  1.00  0.00     0.169 HD
HETATM   15  O   UNL     1     -43.401  54.227 -51.815  1.00  0.00    -0.267 OA
BRANCH  13  16
HETATM   16  C   UNL     1     -40.699  53.414 -52.791  1.00  0.00     0.035 A 
HETATM   17  C   UNL     1     -39.976  52.642 -51.879  1.00  0.00     0.031 A 
HETATM   18  C   UNL     1     -39.491  51.380 -52.243  1.00  0.00     0.026 A 
HETATM   19  C   UNL     1     -39.722  50.890 -53.525  1.00  0.00     0.034 A 
HETATM   20 CL   UNL     1     -39.117  49.344 -53.973  1.00  0.00    -0.084 Cl
HETATM   21  C   UNL     1     -40.440  51.647 -54.444  1.00  0.00     0.026 A 
HETATM   22  C   UNL     1     -40.931  52.904 -54.076  1.00  0.00     0.031 A 
ENDBRANCH  13  16
ENDBRANCH  10  12
BRANCH   9  23
HETATM   23  C   UNL     1     -43.344  56.979 -54.219  1.00  0.00    -0.025 A 
HETATM   24  C   UNL     1     -43.518  55.785 -54.940  1.00  0.00     0.052 A 
HETATM   25  C   UNL     1     -43.122  55.710 -56.272  1.00  0.00     0.117 A 
HETATM   26  F   UNL     1     -43.298  54.566 -56.948  1.00  0.00    -0.206 F 
HETATM   27  C   UNL     1     -42.545  56.799 -56.912  1.00  0.00     0.042 A 
HETATM   28  C   UNL     1     -42.358  57.987 -56.210  1.00  0.00     0.004 A 
HETATM   29  C   UNL     1     -42.751  58.077 -54.870  1.00  0.00     0.010 A 
ENDBRANCH   9  23
BRANCH   7  30
HETATM   30  C   UNL     1     -45.950  61.404 -52.364  1.00  0.00     0.085 C 
BRANCH  30  31
HETATM   31  C   UNL     1     -45.724  62.539 -51.370  1.00  0.00     0.034 C 
BRANCH  31  32
HETATM   32  C   UNL     1     -46.675  62.485 -50.180  1.00  0.00     0.164 C 
BRANCH  32  33
HETATM   33  O   UNL     1     -46.289  61.430 -49.307  1.00  0.00    -0.401 OA
HETATM   34  H   UNL     1     -47.099  60.974 -49.021  1.00  0.00     0.209 HD
ENDBRANCH  32  33
ENDBRANCH  31  32
ENDBRANCH  30  31
ENDBRANCH   7  30
TORSDOF 7
ENDMDL
MODEL 3
REMARK VINA RESULT:      -7.5      4.252      7.057
REMARK  7 active torsions:
REMARK  status: ('A' for Active; 'I' for Inactive)
REMARK    1  A    between atoms: C_7  and  C_8 
REMARK    2  A    between atoms: C_8  and  C_9 
REMARK    3  A    between atoms: C_9  and  C_10 
REMARK    4  A    between atoms: C_10  and  O_11 
REMARK    5  A    between atoms: C_13  and  C_14 
REMARK    6  A    between atoms: C_21  and  C_22 
REMARK       I    between atoms: C_22  and  N_23 
REMARK    7  A    between atoms: N_23  and  C_24 
ROOT
HETATM    1  C   UNL     1     -39.463  59.208 -50.916  1.00  0.00     0.070 C 
HETATM    2  C   UNL     1     -40.948  59.383 -51.115  1.00  0.00     0.037 C 
HETATM    3  N   UNL     1     -41.533  60.415 -50.389  1.00  0.00    -0.192 N 
HETATM    4  C   UNL     1     -42.866  60.563 -50.267  1.00  0.00     0.726 A 
HETATM    5  N   UNL     1     -43.703  59.769 -51.002  1.00  0.00    -0.083 N 
HETATM    6  N   UNL     1     -44.997  60.002 -50.697  1.00  0.00    -0.140 NA
HETATM    7  C   UNL     1     -44.869  60.979 -49.788  1.00  0.00     0.166 A 
HETATM    8  N   UNL     1     -43.575  61.352 -49.502  1.00  0.00    -0.046 NA
HETATM    9  C   UNL     1     -43.242  58.740 -51.941  1.00  0.00     0.202 C 
HETATM   10  C   UNL     1     -41.726  58.577 -51.879  1.00  0.00     0.062 C 
HETATM   11  H   UNL     1     -40.937  60.943 -49.756  1.00  0.00     0.184 HD
ENDROOT
BRANCH  10  12
HETATM   12  C   UNL     1     -41.223  57.404 -52.640  1.00  0.00     0.256 C 
HETATM   13  N   UNL     1     -41.560  56.195 -52.070  1.00  0.00    -0.323 N 
HETATM   14  H   UNL     1     -42.100  56.226 -51.215  1.00  0.00     0.169 HD
HETATM   15  O   UNL     1     -40.539  57.600 -53.635  1.00  0.00    -0.267 OA
BRANCH  13  16
HETATM   16  C   UNL     1     -41.236  54.908 -52.548  1.00  0.00     0.035 A 
HETATM   17  C   UNL     1     -40.515  53.963 -51.814  1.00  0.00     0.031 A 
HETATM   18  C   UNL     1     -40.229  52.706 -52.362  1.00  0.00     0.026 A 
HETATM   19  C   UNL     1     -40.658  52.395 -53.648  1.00  0.00     0.034 A 
HETATM   20 CL   UNL     1     -40.298  50.854 -54.323  1.00  0.00    -0.084 Cl
HETATM   21  C   UNL     1     -41.376  53.326 -54.391  1.00  0.00     0.026 A 
HETATM   22  C   UNL     1     -41.668  54.578 -53.839  1.00  0.00     0.031 A 
ENDBRANCH  13  16
ENDBRANCH  10  12
BRANCH   9  23
HETATM   23  C   UNL     1     -43.725  59.051 -53.357  1.00  0.00    -0.025 A 
HETATM   24  C   UNL     1     -44.710  58.240 -53.945  1.00  0.00     0.052 A 
HETATM   25  C   UNL     1     -45.144  58.498 -55.241  1.00  0.00     0.117 A 
HETATM   26  F   UNL     1     -46.088  57.719 -55.787  1.00  0.00    -0.206 F 
HETATM   27  C   UNL     1     -44.615  59.549 -55.980  1.00  0.00     0.042 A 
HETATM   28  C   UNL     1     -43.631  60.357 -55.415  1.00  0.00     0.004 A 
HETATM   29  C   UNL     1     -43.185  60.109 -54.113  1.00  0.00     0.010 A 
ENDBRANCH   9  23
BRANCH   7  30
HETATM   30  C   UNL     1     -46.038  61.612 -49.127  1.00  0.00     0.085 C 
BRANCH  30  31
HETATM   31  C   UNL     1     -45.772  62.012 -47.678  1.00  0.00     0.034 C 
BRANCH  31  32
HETATM   32  C   UNL     1     -45.659  60.814 -46.742  1.00  0.00     0.164 C 
BRANCH  32  33
HETATM   33  O   UNL     1     -44.293  60.600 -46.403  1.00  0.00    -0.401 OA
HETATM   34  H   UNL     1     -43.919  59.990 -47.061  1.00  0.00     0.209 HD
ENDBRANCH  32  33
ENDBRANCH  31  32
ENDBRANCH  30  31
ENDBRANCH   7  30
TORSDOF 7
ENDMDL
MODEL 4
REMARK VINA RESULT:      -7.2      4.300      7.967
REMARK  7 active torsions:
REMARK  status: ('A' for Active; 'I' for Inactive)
REMARK    1  A    between atoms: C_7  and  C_8 
REMARK    2  A    between atoms: C_8  and  C_9 
REMARK    3  A    between atoms: C_9  and  C_10 
REMARK    4  A    between atoms: C_10  and  O_11 
REMARK    5  A    between atoms: C_13  and  C_14 
REMARK    6  A    between atoms: C_21  and  C_22 
REMARK       I    between atoms: C_22  and  N_23 
REMARK    7  A    between atoms: N_23  and  C_24 
ROOT
HETATM    1  C   UNL     1     -43.140  56.363 -57.572  1.00  0.00     0.070 C 
HETATM    2  C   UNL     1     -42.659  56.029 -56.182  1.00  0.00     0.037 C 
HETATM    3  N   UNL     1     -41.703  55.021 -56.105  1.00  0.00    -0.192 N 
HETATM    4  C   UNL     1     -41.339  54.442 -54.945  1.00  0.00     0.726 A 
HETATM    5  N   UNL     1     -41.802  54.951 -53.763  1.00  0.00    -0.083 N 
HETATM    6  N   UNL     1     -41.400  54.202 -52.714  1.00  0.00    -0.140 NA
HETATM    7  C   UNL     1     -40.666  53.270 -53.337  1.00  0.00     0.166 A 
HETATM    8  N   UNL     1     -40.603  53.387 -54.706  1.00  0.00    -0.046 NA
HETATM    9  C   UNL     1     -42.689  56.115 -53.663  1.00  0.00     0.202 C 
HETATM   10  C   UNL     1     -43.138  56.586 -55.042  1.00  0.00     0.062 C 
HETATM   11  H   UNL     1     -41.431  54.562 -56.970  1.00  0.00     0.184 HD
ENDROOT
BRANCH  10  12
HETATM   12  C   UNL     1     -44.207  57.617 -55.000  1.00  0.00     0.256 C 
HETATM   13  N   UNL     1     -43.735  58.903 -55.153  1.00  0.00    -0.323 N 
HETATM   14  H   UNL     1     -42.737  59.013 -55.276  1.00  0.00     0.169 HD
HETATM   15  O   UNL     1     -45.358  57.261 -54.789  1.00  0.00    -0.267 OA
BRANCH  13  16
HETATM   16  C   UNL     1     -44.491  60.093 -55.161  1.00  0.00     0.035 A 
HETATM   17  C   UNL     1     -44.698  60.893 -54.034  1.00  0.00     0.031 A 
HETATM   18  C   UNL     1     -45.466  62.060 -54.123  1.00  0.00     0.026 A 
HETATM   19  C   UNL     1     -46.037  62.426 -55.338  1.00  0.00     0.034 A 
HETATM   20 CL   UNL     1     -46.988  63.855 -55.443  1.00  0.00    -0.084 Cl
HETATM   21  C   UNL     1     -45.840  61.639 -56.468  1.00  0.00     0.026 A 
HETATM   22  C   UNL     1     -45.065  60.479 -56.380  1.00  0.00     0.031 A 
ENDBRANCH  13  16
ENDBRANCH  10  12
BRANCH   9  23
HETATM   23  C   UNL     1     -42.018  57.234 -52.868  1.00  0.00    -0.025 A 
HETATM   24  C   UNL     1     -40.747  57.691 -53.257  1.00  0.00     0.052 A 
HETATM   25  C   UNL     1     -40.114  58.695 -52.531  1.00  0.00     0.117 A 
HETATM   26  F   UNL     1     -38.904  59.123 -52.917  1.00  0.00    -0.206 F 
HETATM   27  C   UNL     1     -40.713  59.259 -51.412  1.00  0.00     0.042 A 
HETATM   28  C   UNL     1     -41.968  58.811 -51.008  1.00  0.00     0.004 A 
HETATM   29  C   UNL     1     -42.617  57.803 -51.729  1.00  0.00     0.010 A 
ENDBRANCH   9  23
BRANCH   7  30
HETATM   30  C   UNL     1     -39.974  52.178 -52.605  1.00  0.00     0.085 C 
BRANCH  30  31
HETATM   31  C   UNL     1     -39.197  51.234 -53.519  1.00  0.00     0.034 C 
BRANCH  31  32
HETATM   32  C   UNL     1     -39.768  49.821 -53.536  1.00  0.00     0.164 C 
BRANCH  32  33
HETATM   33  O   UNL     1     -40.048  49.435 -54.878  1.00  0.00    -0.401 OA
HETATM   34  H   UNL     1     -39.596  48.589 -55.040  1.00  0.00     0.209 HD
ENDBRANCH  32  33
ENDBRANCH  31  32
ENDBRANCH  30  31
ENDBRANCH   7  30
TORSDOF 7
ENDMDL
MODEL 5
REMARK VINA RESULT:      -7.2      2.365      3.059
REMARK  7 active torsions:
REMARK  status: ('A' for Active; 'I' for Inactive)
REMARK    1  A    between atoms: C_7  and  C_8 
REMARK    2  A    between atoms: C_8  and  C_9 
REMARK    3  A    between atoms: C_9  and  C_10 
REMARK    4  A    between atoms: C_10  and  O_11 
REMARK    5  A    between atoms: C_13  and  C_14 
REMARK    6  A    between atoms: C_21  and  C_22 
REMARK       I    between atoms: C_22  and  N_23 
REMARK    7  A    between atoms: N_23  and  C_24 
ROOT
HETATM    1  C   UNL     1     -43.218  53.917 -55.772  1.00  0.00     0.070 C 
HETATM    2  C   UNL     1     -43.078  55.409 -55.948  1.00  0.00     0.037 C 
HETATM    3  N   UNL     1     -43.775  55.954 -57.021  1.00  0.00    -0.192 N 
HETATM    4  C   UNL     1     -43.580  57.213 -57.459  1.00  0.00     0.726 A 
HETATM    5  N   UNL     1     -42.779  58.060 -56.744  1.00  0.00    -0.083 N 
HETATM    6  N   UNL     1     -42.636  59.248 -57.369  1.00  0.00    -0.140 NA
HETATM    7  C   UNL     1     -43.410  59.058 -58.447  1.00  0.00     0.166 A 
HETATM    8  N   UNL     1     -44.008  57.822 -58.534  1.00  0.00    -0.046 NA
HETATM    9  C   UNL     1     -42.099  57.688 -55.498  1.00  0.00     0.202 C 
HETATM   10  C   UNL     1     -42.285  56.206 -55.189  1.00  0.00     0.062 C 
HETATM   11  H   UNL     1     -44.288  55.316 -57.623  1.00  0.00     0.184 HD
ENDROOT
BRANCH  10  12
HETATM   12  C   UNL     1     -41.442  55.723 -54.065  1.00  0.00     0.256 C 
HETATM   13  N   UNL     1     -42.149  55.508 -52.903  1.00  0.00    -0.323 N 
HETATM   14  H   UNL     1     -43.143  55.695 -52.930  1.00  0.00     0.169 HD
HETATM   15  O   UNL     1     -40.236  55.611 -54.241  1.00  0.00    -0.267 OA
BRANCH  13  16
HETATM   16  C   UNL     1     -41.643  55.050 -51.668  1.00  0.00     0.035 A 
HETATM   17  C   UNL     1     -41.090  53.782 -51.474  1.00  0.00     0.031 A 
HETATM   18  C   UNL     1     -40.612  53.400 -50.214  1.00  0.00     0.026 A 
HETATM   19  C   UNL     1     -40.693  54.285 -49.143  1.00  0.00     0.034 A 
HETATM   20 CL   UNL     1     -40.114  53.812 -47.594  1.00  0.00    -0.084 Cl
HETATM   21  C   UNL     1     -41.241  55.551 -49.322  1.00  0.00     0.026 A 
HETATM   22  C   UNL     1     -41.710  55.933 -50.582  1.00  0.00     0.031 A 
ENDBRANCH  13  16
ENDBRANCH  10  12
BRANCH   9  23
HETATM   23  C   UNL     1     -42.570  58.574 -54.346  1.00  0.00    -0.025 A 
HETATM   24  C   UNL     1     -43.930  58.586 -53.994  1.00  0.00     0.052 A 
HETATM   25  C   UNL     1     -44.377  59.403 -52.961  1.00  0.00     0.117 A 
HETATM   26  F   UNL     1     -45.676  59.399 -52.633  1.00  0.00    -0.206 F 
HETATM   27  C   UNL     1     -43.499  60.225 -52.264  1.00  0.00     0.042 A 
HETATM   28  C   UNL     1     -42.150  60.232 -52.607  1.00  0.00     0.004 A 
HETATM   29  C   UNL     1     -41.687  59.415 -53.643  1.00  0.00     0.010 A 
ENDBRANCH   9  23
BRANCH   7  30
HETATM   30  C   UNL     1     -43.605  60.105 -59.483  1.00  0.00     0.085 C 
BRANCH  30  31
HETATM   31  C   UNL     1     -43.251  59.636 -60.892  1.00  0.00     0.034 C 
BRANCH  31  32
HETATM   32  C   UNL     1     -41.805  59.167 -61.016  1.00  0.00     0.164 C 
BRANCH  32  33
HETATM   33  O   UNL     1     -41.741  57.759 -60.817  1.00  0.00    -0.401 OA
HETATM   34  H   UNL     1     -42.395  57.529 -60.134  1.00  0.00     0.209 HD
ENDBRANCH  32  33
ENDBRANCH  31  32
ENDBRANCH  30  31
ENDBRANCH   7  30
TORSDOF 7
ENDMDL
MODEL 6
REMARK VINA RESULT:      -7.0      3.583      5.097
REMARK  7 active torsions:
REMARK  status: ('A' for Active; 'I' for Inactive)
REMARK    1  A    between atoms: C_7  and  C_8 
REMARK    2  A    between atoms: C_8  and  C_9 
REMARK    3  A    between atoms: C_9  and  C_10 
REMARK    4  A    between atoms: C_10  and  O_11 
REMARK    5  A    between atoms: C_13  and  C_14 
REMARK    6  A    between atoms: C_21  and  C_22 
REMARK       I    between atoms: C_22  and  N_23 
REMARK    7  A    between atoms: N_23  and  C_24 
ROOT
HETATM    1  C   UNL     1     -40.997  57.208 -50.441  1.00  0.00     0.070 C 
HETATM    2  C   UNL     1     -41.983  57.574 -51.522  1.00  0.00     0.037 C 
HETATM    3  N   UNL     1     -42.308  58.924 -51.604  1.00  0.00    -0.192 N 
HETATM    4  C   UNL     1     -43.332  59.389 -52.346  1.00  0.00     0.726 A 
HETATM    5  N   UNL     1     -44.001  58.537 -53.181  1.00  0.00    -0.083 N 
HETATM    6  N   UNL     1     -45.040  59.153 -53.783  1.00  0.00    -0.140 NA
HETATM    7  C   UNL     1     -44.918  60.393 -53.288  1.00  0.00     0.166 A 
HETATM    8  N   UNL     1     -43.879  60.575 -52.405  1.00  0.00    -0.046 NA
HETATM    9  C   UNL     1     -43.675  57.114 -53.334  1.00  0.00     0.202 C 
HETATM   10  C   UNL     1     -42.599  56.686 -52.341  1.00  0.00     0.062 C 
HETATM   11  H   UNL     1     -41.897  59.551 -50.917  1.00  0.00     0.184 HD
ENDROOT
BRANCH  10  12
HETATM   12  C   UNL     1     -42.383  55.216 -52.295  1.00  0.00     0.256 C 
HETATM   13  N   UNL     1     -41.218  54.814 -52.911  1.00  0.00    -0.323 N 
HETATM   14  H   UNL     1     -40.642  55.538 -53.321  1.00  0.00     0.169 HD
HETATM   15  O   UNL     1     -43.244  54.513 -51.785  1.00  0.00    -0.267 OA
BRANCH  13  16
HETATM   16  C   UNL     1     -40.731  53.496 -53.035  1.00  0.00     0.035 A 
HETATM   17  C   UNL     1     -40.828  52.735 -54.202  1.00  0.00     0.031 A 
HETATM   18  C   UNL     1     -40.323  51.430 -54.243  1.00  0.00     0.026 A 
HETATM   19  C   UNL     1     -39.725  50.879 -53.113  1.00  0.00     0.034 A 
HETATM   20 CL   UNL     1     -39.113  49.273 -53.163  1.00  0.00    -0.084 Cl
HETATM   21  C   UNL     1     -39.622  51.625 -51.944  1.00  0.00     0.026 A 
HETATM   22  C   UNL     1     -40.120  52.931 -51.907  1.00  0.00     0.031 A 
ENDBRANCH  13  16
ENDBRANCH  10  12
BRANCH   9  23
HETATM   23  C   UNL     1     -43.275  56.808 -54.776  1.00  0.00    -0.025 A 
HETATM   24  C   UNL     1     -42.707  57.822 -55.566  1.00  0.00     0.052 A 
HETATM   25  C   UNL     1     -42.357  57.564 -56.887  1.00  0.00     0.117 A 
HETATM   26  F   UNL     1     -41.811  58.539 -57.627  1.00  0.00    -0.206 F 
HETATM   27  C   UNL     1     -42.566  56.313 -57.454  1.00  0.00     0.042 A 
HETATM   28  C   UNL     1     -43.137  55.300 -56.688  1.00  0.00     0.004 A 
HETATM   29  C   UNL     1     -43.493  55.545 -55.358  1.00  0.00     0.010 A 
ENDBRANCH   9  23
BRANCH   7  30
HETATM   30  C   UNL     1     -45.844  61.494 -53.657  1.00  0.00     0.085 C 
BRANCH  30  31
HETATM   31  C   UNL     1     -45.134  62.710 -54.245  1.00  0.00     0.034 C 
BRANCH  31  32
HETATM   32  C   UNL     1     -44.020  62.336 -55.216  1.00  0.00     0.164 C 
BRANCH  32  33
HETATM   33  O   UNL     1     -42.756  62.535 -54.592  1.00  0.00    -0.401 OA
HETATM   34  H   UNL     1     -42.105  61.991 -55.068  1.00  0.00     0.209 HD
ENDBRANCH  32  33
ENDBRANCH  31  32
ENDBRANCH  30  31
ENDBRANCH   7  30
TORSDOF 7
ENDMDL
MODEL 7
REMARK VINA RESULT:      -7.0      4.138      7.984
REMARK  7 active torsions:
REMARK  status: ('A' for Active; 'I' for Inactive)
REMARK    1  A    between atoms: C_7  and  C_8 
REMARK    2  A    between atoms: C_8  and  C_9 
REMARK    3  A    between atoms: C_9  and  C_10 
REMARK    4  A    between atoms: C_10  and  O_11 
REMARK    5  A    between atoms: C_13  and  C_14 
REMARK    6  A    between atoms: C_21  and  C_22 
REMARK       I    between atoms: C_22  and  N_23 
REMARK    7  A    between atoms: N_23  and  C_24 
ROOT
HETATM    1  C   UNL     1     -42.768  58.404 -57.095  1.00  0.00     0.070 C 
HETATM    2  C   UNL     1     -42.320  57.708 -55.833  1.00  0.00     0.037 C 
HETATM    3  N   UNL     1     -41.700  56.477 -56.015  1.00  0.00    -0.192 N 
HETATM    4  C   UNL     1     -41.451  55.624 -55.003  1.00  0.00     0.726 A 
HETATM    5  N   UNL     1     -41.670  56.024 -53.714  1.00  0.00    -0.083 N 
HETATM    6  N   UNL     1     -41.441  55.020 -52.841  1.00  0.00    -0.140 NA
HETATM    7  C   UNL     1     -41.054  54.045 -53.675  1.00  0.00     0.166 A 
HETATM    8  N   UNL     1     -41.044  54.381 -55.010  1.00  0.00    -0.046 NA
HETATM    9  C   UNL     1     -42.168  57.353 -53.341  1.00  0.00     0.202 C 
HETATM   10  C   UNL     1     -42.543  58.167 -54.576  1.00  0.00     0.062 C 
HETATM   11  H   UNL     1     -41.630  56.120 -56.965  1.00  0.00     0.184 HD
ENDROOT
BRANCH  10  12
HETATM   12  C   UNL     1     -43.257  59.431 -54.260  1.00  0.00     0.256 C 
HETATM   13  N   UNL     1     -44.596  59.252 -53.988  1.00  0.00    -0.323 N 
HETATM   14  H   UNL     1     -44.949  58.304 -54.029  1.00  0.00     0.169 HD
HETATM   15  O   UNL     1     -42.638  60.485 -54.317  1.00  0.00    -0.267 OA
BRANCH  13  16
HETATM   16  C   UNL     1     -45.539  60.246 -53.654  1.00  0.00     0.035 A 
HETATM   17  C   UNL     1     -45.971  61.239 -54.536  1.00  0.00     0.031 A 
HETATM   18  C   UNL     1     -46.908  62.195 -54.125  1.00  0.00     0.026 A 
HETATM   19  C   UNL     1     -47.410  62.164 -52.828  1.00  0.00     0.034 A 
HETATM   20 CL   UNL     1     -48.554  63.345 -52.322  1.00  0.00    -0.084 Cl
HETATM   21  C   UNL     1     -46.988  61.182 -51.938  1.00  0.00     0.026 A 
HETATM   22  C   UNL     1     -46.058  60.223 -52.352  1.00  0.00     0.031 A 
ENDBRANCH  13  16
ENDBRANCH  10  12
BRANCH   9  23
HETATM   23  C   UNL     1     -41.149  58.082 -52.466  1.00  0.00    -0.025 A 
HETATM   24  C   UNL     1     -41.478  58.395 -51.136  1.00  0.00     0.052 A 
HETATM   25  C   UNL     1     -40.569  59.076 -50.334  1.00  0.00     0.117 A 
HETATM   26  F   UNL     1     -40.895  59.364 -49.067  1.00  0.00    -0.206 F 
HETATM   27  C   UNL     1     -39.329  59.466 -50.825  1.00  0.00     0.042 A 
HETATM   28  C   UNL     1     -38.991  59.172 -52.143  1.00  0.00     0.004 A 
HETATM   29  C   UNL     1     -39.895  58.487 -52.961  1.00  0.00     0.010 A 
ENDBRANCH   9  23
BRANCH   7  30
HETATM   30  C   UNL     1     -40.668  52.693 -53.197  1.00  0.00     0.085 C 
BRANCH  30  31
HETATM   31  C   UNL     1     -40.397  51.706 -54.329  1.00  0.00     0.034 C 
BRANCH  31  32
HETATM   32  C   UNL     1     -39.824  50.381 -53.838  1.00  0.00     0.164 C 
BRANCH  32  33
HETATM   33  O   UNL     1     -39.951  49.397 -54.859  1.00  0.00    -0.401 OA
HETATM   34  H   UNL     1     -39.581  48.567 -54.514  1.00  0.00     0.209 HD
ENDBRANCH  32  33
ENDBRANCH  31  32
ENDBRANCH  30  31
ENDBRANCH   7  30
TORSDOF 7
ENDMDL
MODEL 8
REMARK VINA RESULT:      -7.0      3.854      5.285
REMARK  7 active torsions:
REMARK  status: ('A' for Active; 'I' for Inactive)
REMARK    1  A    between atoms: C_7  and  C_8 
REMARK    2  A    between atoms: C_8  and  C_9 
REMARK    3  A    between atoms: C_9  and  C_10 
REMARK    4  A    between atoms: C_10  and  O_11 
REMARK    5  A    between atoms: C_13  and  C_14 
REMARK    6  A    between atoms: C_21  and  C_22 
REMARK       I    between atoms: C_22  and  N_23 
REMARK    7  A    between atoms: N_23  and  C_24 
ROOT
HETATM    1  C   UNL     1     -41.039  58.376 -50.249  1.00  0.00     0.070 C 
HETATM    2  C   UNL     1     -42.046  58.401 -51.372  1.00  0.00     0.037 C 
HETATM    3  N   UNL     1     -42.389  59.665 -51.841  1.00  0.00    -0.192 N 
HETATM    4  C   UNL     1     -43.430  59.884 -52.667  1.00  0.00     0.726 A 
HETATM    5  N   UNL     1     -44.101  58.819 -53.203  1.00  0.00    -0.083 N 
HETATM    6  N   UNL     1     -45.157  59.224 -53.940  1.00  0.00    -0.140 NA
HETATM    7  C   UNL     1     -45.043  60.555 -53.833  1.00  0.00     0.166 A 
HETATM    8  N   UNL     1     -43.993  60.996 -53.062  1.00  0.00    -0.046 NA
HETATM    9  C   UNL     1     -43.760  57.417 -52.938  1.00  0.00     0.202 C 
HETATM   10  C   UNL     1     -42.663  57.307 -51.883  1.00  0.00     0.062 C 
HETATM   11  H   UNL     1     -41.975  60.469 -51.376  1.00  0.00     0.184 HD
ENDROOT
BRANCH  10  12
HETATM   12  C   UNL     1     -42.429  55.917 -51.412  1.00  0.00     0.256 C 
HETATM   13  N   UNL     1     -41.324  55.324 -51.983  1.00  0.00    -0.323 N 
HETATM   14  H   UNL     1     -40.798  55.878 -52.647  1.00  0.00     0.169 HD
HETATM   15  O   UNL     1     -43.229  55.419 -50.632  1.00  0.00    -0.267 OA
BRANCH  13  16
HETATM   16  C   UNL     1     -40.837  54.022 -51.745  1.00  0.00     0.035 A 
HETATM   17  C   UNL     1     -40.740  53.446 -50.476  1.00  0.00     0.031 A 
HETATM   18  C   UNL     1     -40.239  52.147 -50.322  1.00  0.00     0.026 A 
HETATM   19  C   UNL     1     -39.828  51.424 -51.437  1.00  0.00     0.034 A 
HETATM   20 CL   UNL     1     -39.205  49.832 -51.245  1.00  0.00    -0.084 Cl
HETATM   21  C   UNL     1     -39.918  51.985 -52.706  1.00  0.00     0.026 A 
HETATM   22  C   UNL     1     -40.425  53.279 -52.859  1.00  0.00     0.031 A 
ENDBRANCH  13  16
ENDBRANCH  10  12
BRANCH   9  23
HETATM   23  C   UNL     1     -43.379  56.704 -54.234  1.00  0.00    -0.025 A 
HETATM   24  C   UNL     1     -43.755  55.363 -54.421  1.00  0.00     0.052 A 
HETATM   25  C   UNL     1     -43.397  54.694 -55.587  1.00  0.00     0.117 A 
HETATM   26  F   UNL     1     -43.767  53.417 -55.754  1.00  0.00    -0.206 F 
HETATM   27  C   UNL     1     -42.660  55.327 -56.581  1.00  0.00     0.042 A 
HETATM   28  C   UNL     1     -42.271  56.652 -56.406  1.00  0.00     0.004 A 
HETATM   29  C   UNL     1     -42.625  57.337 -55.239  1.00  0.00     0.010 A 
ENDBRANCH   9  23
BRANCH   7  30
HETATM   30  C   UNL     1     -45.988  61.492 -54.492  1.00  0.00     0.085 C 
BRANCH  30  31
HETATM   31  C   UNL     1     -45.514  61.966 -55.863  1.00  0.00     0.034 C 
BRANCH  31  32
HETATM   32  C   UNL     1     -45.619  60.887 -56.934  1.00  0.00     0.164 C 
BRANCH  32  33
HETATM   33  O   UNL     1     -46.774  60.090 -56.697  1.00  0.00    -0.401 OA
HETATM   34  H   UNL     1     -47.228  59.969 -57.548  1.00  0.00     0.209 HD
ENDBRANCH  32  33
ENDBRANCH  31  32
ENDBRANCH  30  31
ENDBRANCH   7  30
TORSDOF 7
ENDMDL
MODEL 9
REMARK VINA RESULT:      -6.8      4.092      5.971
REMARK  7 active torsions:
REMARK  status: ('A' for Active; 'I' for Inactive)
REMARK    1  A    between atoms: C_7  and  C_8 
REMARK    2  A    between atoms: C_8  and  C_9 
REMARK    3  A    between atoms: C_9  and  C_10 
REMARK    4  A    between atoms: C_10  and  O_11 
REMARK    5  A    between atoms: C_13  and  C_14 
REMARK    6  A    between atoms: C_21  and  C_22 
REMARK       I    between atoms: C_22  and  N_23 
REMARK    7  A    between atoms: N_23  and  C_24 
ROOT
HETATM    1  C   UNL     1     -40.461  58.360 -50.308  1.00  0.00     0.070 C 
HETATM    2  C   UNL     1     -41.670  58.904 -51.029  1.00  0.00     0.037 C 
HETATM    3  N   UNL     1     -41.891  60.269 -50.882  1.00  0.00    -0.192 N 
HETATM    4  C   UNL     1     -43.035  60.872 -51.258  1.00  0.00     0.726 A 
HETATM    5  N   UNL     1     -43.975  60.162 -51.953  1.00  0.00    -0.083 N 
HETATM    6  N   UNL     1     -45.083  60.899 -52.177  1.00  0.00    -0.140 NA
HETATM    7  C   UNL     1     -44.728  62.063 -51.615  1.00  0.00     0.166 A 
HETATM    8  N   UNL     1     -43.477  62.084 -51.044  1.00  0.00    -0.046 NA
HETATM    9  C   UNL     1     -43.823  58.752 -52.332  1.00  0.00     0.202 C 
HETATM   10  C   UNL     1     -42.557  58.153 -51.728  1.00  0.00     0.062 C 
HETATM   11  H   UNL     1     -41.258  60.788 -50.279  1.00  0.00     0.184 HD
ENDROOT
BRANCH  10  12
HETATM   12  C   UNL     1     -42.461  56.679 -51.890  1.00  0.00     0.256 C 
HETATM   13  N   UNL     1     -41.368  56.279 -52.628  1.00  0.00    -0.323 N 
HETATM   14  H   UNL     1     -40.757  57.008 -52.975  1.00  0.00     0.169 HD
HETATM   15  O   UNL     1     -43.348  55.978 -51.423  1.00  0.00    -0.267 OA
BRANCH  13  16
HETATM   16  C   UNL     1     -40.998  54.958 -52.956  1.00  0.00     0.035 A 
HETATM   17  C   UNL     1     -40.784  53.951 -52.012  1.00  0.00     0.031 A 
HETATM   18  C   UNL     1     -40.413  52.664 -52.418  1.00  0.00     0.026 A 
HETATM   19  C   UNL     1     -40.247  52.382 -53.771  1.00  0.00     0.034 A 
HETATM   20 CL   UNL     1     -39.782  50.803 -54.268  1.00  0.00    -0.084 Cl
HETATM   21  C   UNL     1     -40.455  53.375 -54.722  1.00  0.00     0.026 A 
HETATM   22  C   UNL     1     -40.834  54.658 -54.315  1.00  0.00     0.031 A 
ENDBRANCH  13  16
ENDBRANCH  10  12
BRANCH   9  23
HETATM   23  C   UNL     1     -43.857  58.599 -53.852  1.00  0.00    -0.025 A 
HETATM   24  C   UNL     1     -42.781  59.078 -54.619  1.00  0.00     0.052 A 
HETATM   25  C   UNL     1     -42.807  58.964 -56.005  1.00  0.00     0.117 A 
HETATM   26  F   UNL     1     -41.772  59.421 -56.724  1.00  0.00    -0.206 F 
HETATM   27  C   UNL     1     -43.890  58.388 -56.658  1.00  0.00     0.042 A 
HETATM   28  C   UNL     1     -44.968  57.916 -55.913  1.00  0.00     0.004 A 
HETATM   29  C   UNL     1     -44.954  58.024 -54.519  1.00  0.00     0.010 A 
ENDBRANCH   9  23
BRANCH   7  30
HETATM   30  C   UNL     1     -45.624  63.248 -51.599  1.00  0.00     0.085 C 
BRANCH  30  31
HETATM   31  C   UNL     1     -47.069  62.910 -51.240  1.00  0.00     0.034 C 
BRANCH  31  32
HETATM   32  C   UNL     1     -47.986  62.854 -52.456  1.00  0.00     0.164 C 
BRANCH  32  33
HETATM   33  O   UNL     1     -48.030  61.524 -52.961  1.00  0.00    -0.401 OA
HETATM   34  H   UNL     1     -48.067  60.922 -52.198  1.00  0.00     0.209 HD
ENDBRANCH  32  33
ENDBRANCH  31  32
ENDBRANCH  30  31
ENDBRANCH   7  30
TORSDOF 7
ENDMDL
MODEL 10
REMARK VINA RESULT:      -6.8      3.930      8.173
REMARK  7 active torsions:
REMARK  status: ('A' for Active; 'I' for Inactive)
REMARK    1  A    between atoms: C_7  and  C_8 
REMARK    2  A    between atoms: C_8  and  C_9 
REMARK    3  A    between atoms: C_9  and  C_10 
REMARK    4  A    between atoms: C_10  and  O_11 
REMARK    5  A    between atoms: C_13  and  C_14 
REMARK    6  A    between atoms: C_21  and  C_22 
REMARK       I    between atoms: C_22  and  N_23 
REMARK    7  A    between atoms: N_23  and  C_24 
ROOT
HETATM    1  C   UNL     1     -44.443  61.128 -55.283  1.00  0.00     0.070 C 
HETATM    2  C   UNL     1     -44.070  59.719 -55.673  1.00  0.00     0.037 C 
HETATM    3  N   UNL     1     -44.266  58.753 -54.692  1.00  0.00    -0.192 N 
HETATM    4  C   UNL     1     -43.776  57.502 -54.785  1.00  0.00     0.726 A 
HETATM    5  N   UNL     1     -43.188  57.093 -55.950  1.00  0.00    -0.083 N 
HETATM    6  N   UNL     1     -42.688  55.844 -55.838  1.00  0.00    -0.140 NA
HETATM    7  C   UNL     1     -43.041  55.545 -54.580  1.00  0.00     0.166 A 
HETATM    8  N   UNL     1     -43.714  56.537 -53.905  1.00  0.00    -0.046 NA
HETATM    9  C   UNL     1     -43.048  57.941 -57.140  1.00  0.00     0.202 C 
HETATM   10  C   UNL     1     -43.511  59.367 -56.858  1.00  0.00     0.062 C 
HETATM   11  H   UNL     1     -44.602  59.065 -53.784  1.00  0.00     0.184 HD
ENDROOT
BRANCH  10  12
HETATM   12  C   UNL     1     -43.191  60.323 -57.950  1.00  0.00     0.256 C 
HETATM   13  N   UNL     1     -41.838  60.493 -58.150  1.00  0.00    -0.323 N 
HETATM   14  H   UNL     1     -41.216  59.966 -57.551  1.00  0.00     0.169 HD
HETATM   15  O   UNL     1     -44.112  60.893 -58.519  1.00  0.00    -0.267 OA
BRANCH  13  16
HETATM   16  C   UNL     1     -41.216  61.325 -59.105  1.00  0.00     0.035 A 
HETATM   17  C   UNL     1     -41.495  61.285 -60.473  1.00  0.00     0.031 A 
HETATM   18  C   UNL     1     -40.830  62.142 -61.359  1.00  0.00     0.026 A 
HETATM   19  C   UNL     1     -39.877  63.035 -60.878  1.00  0.00     0.034 A 
HETATM   20 CL   UNL     1     -39.054  64.081 -61.968  1.00  0.00    -0.084 Cl
HETATM   21  C   UNL     1     -39.589  63.085 -59.518  1.00  0.00     0.026 A 
HETATM   22  C   UNL     1     -40.260  62.235 -58.634  1.00  0.00     0.031 A 
ENDBRANCH  13  16
ENDBRANCH  10  12
BRANCH   9  23
HETATM   23  C   UNL     1     -43.789  57.325 -58.326  1.00  0.00    -0.025 A 
HETATM   24  C   UNL     1     -45.191  57.410 -58.385  1.00  0.00     0.052 A 
HETATM   25  C   UNL     1     -45.881  56.837 -59.448  1.00  0.00     0.117 A 
HETATM   26  F   UNL     1     -47.217  56.930 -59.493  1.00  0.00    -0.206 F 
HETATM   27  C   UNL     1     -45.209  56.166 -60.462  1.00  0.00     0.042 A 
HETATM   28  C   UNL     1     -43.821  56.065 -60.414  1.00  0.00     0.004 A 
HETATM   29  C   UNL     1     -43.114  56.638 -59.352  1.00  0.00     0.010 A 
ENDBRANCH   9  23
BRANCH   7  30
HETATM   30  C   UNL     1     -42.724  54.237 -53.952  1.00  0.00     0.085 C 
BRANCH  30  31
HETATM   31  C   UNL     1     -41.274  54.122 -53.491  1.00  0.00     0.034 C 
BRANCH  31  32
HETATM   32  C   UNL     1     -40.380  53.427 -54.511  1.00  0.00     0.164 C 
BRANCH  32  33
HETATM   33  O   UNL     1     -39.958  54.365 -55.495  1.00  0.00    -0.401 OA
HETATM   34  H   UNL     1     -40.563  54.289 -56.252  1.00  0.00     0.209 HD
ENDBRANCH  32  33
ENDBRANCH  31  32
ENDBRANCH  30  31
ENDBRANCH   7  30
TORSDOF 7
ENDMDL
