MODEL 1
REMARK VINA RESULT:      -9.1      0.000      0.000
REMARK  9 active torsions:
REMARK  status: ('A' for Active; 'I' for Inactive)
REMARK    1  A    between atoms: C_2  and  C_3 
REMARK    2  A    between atoms: C_3  and  C_4 
REMARK       I    between atoms: C_4  and  N_6 
REMARK    3  A    between atoms: N_6  and  C_7 
REMARK    4  A    between atoms: C_11  and  C_13 
REMARK    5  A    between atoms: C_15  and  N_16 
REMARK    6  A    between atoms: N_16  and  C_17 
REMARK    7  A    between atoms: C_29  and  O_30 
REMARK    8  A    between atoms: O_30  and  C_31 
REMARK    9  A    between atoms: C_31  and  C_32 
ROOT
HETATM    1  C   UNL     1     -43.660  57.673 -51.933  1.00  0.00     0.162 A 
HETATM    2  N   UNL     1     -43.851  57.188 -53.167  1.00  0.00    -0.210 NA
HETATM    3  C   UNL     1     -43.156  56.098 -53.532  1.00  0.00     0.143 A 
HETATM    4  C   UNL     1     -42.269  55.459 -52.652  1.00  0.00     0.041 A 
HETATM    5  C   UNL     1     -41.520  54.292 -52.951  1.00  0.00     0.054 A 
HETATM    6  C   UNL     1     -40.675  53.709 -52.007  1.00  0.00     0.069 A 
HETATM    7  C   UNL     1     -40.544  54.313 -50.765  1.00  0.00     0.039 A 
HETATM    8  C   UNL     1     -41.270  55.477 -50.475  1.00  0.00     0.035 A 
HETATM    9  C   UNL     1     -42.135  56.058 -51.394  1.00  0.00     0.073 A 
HETATM   10  N   UNL     1     -42.807  57.157 -51.035  1.00  0.00    -0.228 NA
ENDROOT
BRANCH   1  11
HETATM   11  C   UNL     1     -44.486  58.821 -51.531  1.00  0.00     0.014 A 
HETATM   12  C   UNL     1     -45.456  59.349 -52.403  1.00  0.00     0.015 A 
HETATM   13  C   UNL     1     -46.260  60.422 -52.026  1.00  0.00     0.003 A 
HETATM   14  C   UNL     1     -46.102  61.006 -50.769  1.00  0.00     0.029 A 
HETATM   15  C   UNL     1     -45.137  60.525 -49.884  1.00  0.00     0.035 A 
HETATM   16  C   UNL     1     -44.344  59.432 -50.269  1.00  0.00     0.044 A 
BRANCH  15  17
HETATM   17  N   UNL     1     -44.882  61.099 -48.621  1.00  0.00    -0.327 N 
HETATM   18  C   UNL     1     -45.462  60.755 -47.412  1.00  0.00     0.222 C 
HETATM   19  O   UNL     1     -46.229  59.821 -47.203  1.00  0.00    -0.273 OA
HETATM   20  H   UNL     1     -44.189  61.836 -48.601  1.00  0.00     0.169 HD
BRANCH  18  21
HETATM   21  C   UNL     1     -45.092  61.708 -46.292  1.00  0.00     0.103 C 
BRANCH  21  22
HETATM   22  C   UNL     1     -44.649  60.928 -45.059  1.00  0.00     0.005 C 
HETATM   23  C   UNL     1     -44.075  61.844 -43.992  1.00  0.00     0.005 C 
ENDBRANCH  21  22
ENDBRANCH  18  21
ENDBRANCH  15  17
ENDBRANCH   1  11
BRANCH   3  24
HETATM   24  N   UNL     1     -43.351  55.571 -54.836  1.00  0.00    -0.340 N 
HETATM   25  H   UNL     1     -44.247  55.098 -54.876  1.00  0.00     0.167 HD
BRANCH  24  26
HETATM   26  C   UNL     1     -43.014  56.192 -56.063  1.00  0.00     0.034 A 
HETATM   27  C   UNL     1     -42.596  57.533 -56.063  1.00  0.00     0.032 A 
HETATM   28  C   UNL     1     -42.294  58.222 -57.248  1.00  0.00     0.034 A 
HETATM   29  C   UNL     1     -42.454  57.522 -58.446  1.00  0.00     0.062 A 
HETATM   30  N   UNL     1     -42.258  57.885 -59.752  1.00  0.00    -0.278 N 
HETATM   31  C   UNL     1     -42.897  56.208 -58.495  1.00  0.00     0.013 A 
HETATM   32  H   UNL     1     -41.934  58.777 -60.104  1.00  0.00     0.189 HD
HETATM   33  N   UNL     1     -42.547  56.917 -60.642  1.00  0.00    -0.186 NA
HETATM   34  C   UNL     1     -42.935  55.896 -59.871  1.00  0.00     0.152 A 
HETATM   35  C   UNL     1     -43.192  55.536 -57.295  1.00  0.00     0.044 A 
ENDBRANCH  24  26
ENDBRANCH   3  24
BRANCH   6  36
HETATM   36  O   UNL     1     -40.046  52.572 -52.425  1.00  0.00    -0.351 OA
BRANCH  36  37
HETATM   37  C   UNL     1     -40.062  52.296 -53.825  1.00  0.00     0.180 C 
BRANCH  37  38
HETATM   38  C   UNL     1     -40.415  50.850 -54.007  1.00  0.00     0.010 A 
HETATM   39  C   UNL     1     -39.429  49.891 -54.624  1.00  0.00     0.007 A 
HETATM   40  C   UNL     1     -39.759  49.790 -53.159  1.00  0.00     0.007 A 
ENDBRANCH  37  38
ENDBRANCH  36  37
ENDBRANCH   6  36
TORSDOF 9
ENDMDL
MODEL 2
REMARK VINA RESULT:      -9.1      1.627      1.960
REMARK  9 active torsions:
REMARK  status: ('A' for Active; 'I' for Inactive)
REMARK    1  A    between atoms: C_2  and  C_3 
REMARK    2  A    between atoms: C_3  and  C_4 
REMARK       I    between atoms: C_4  and  N_6 
REMARK    3  A    between atoms: N_6  and  C_7 
REMARK    4  A    between atoms: C_11  and  C_13 
REMARK    5  A    between atoms: C_15  and  N_16 
REMARK    6  A    between atoms: N_16  and  C_17 
REMARK    7  A    between atoms: C_29  and  O_30 
REMARK    8  A    between atoms: O_30  and  C_31 
REMARK    9  A    between atoms: C_31  and  C_32 
ROOT
HETATM    1  C   UNL     1     -43.911  58.035 -52.989  1.00  0.00     0.162 A 
HETATM    2  N   UNL     1     -43.500  58.247 -54.246  1.00  0.00    -0.210 NA
HETATM    3  C   UNL     1     -42.801  57.274 -54.855  1.00  0.00     0.143 A 
HETATM    4  C   UNL     1     -42.521  56.056 -54.216  1.00  0.00     0.041 A 
HETATM    5  C   UNL     1     -41.815  54.972 -54.798  1.00  0.00     0.054 A 
HETATM    6  C   UNL     1     -41.599  53.786 -54.097  1.00  0.00     0.069 A 
HETATM    7  C   UNL     1     -42.058  53.690 -52.791  1.00  0.00     0.039 A 
HETATM    8  C   UNL     1     -42.739  54.767 -52.209  1.00  0.00     0.035 A 
HETATM    9  C   UNL     1     -42.985  55.947 -52.900  1.00  0.00     0.073 A 
HETATM   10  N   UNL     1     -43.659  56.923 -52.283  1.00  0.00    -0.228 NA
ENDROOT
BRANCH   1  11
HETATM   11  C   UNL     1     -44.736  59.084 -52.370  1.00  0.00     0.014 A 
HETATM   12  C   UNL     1     -45.462  59.989 -53.165  1.00  0.00     0.015 A 
HETATM   13  C   UNL     1     -46.265  60.972 -52.591  1.00  0.00     0.003 A 
HETATM   14  C   UNL     1     -46.349  61.084 -51.203  1.00  0.00     0.029 A 
HETATM   15  C   UNL     1     -45.629  60.218 -50.381  1.00  0.00     0.035 A 
HETATM   16  C   UNL     1     -44.836  59.221 -50.971  1.00  0.00     0.044 A 
BRANCH  15  17
HETATM   17  N   UNL     1     -45.621  60.306 -48.973  1.00  0.00    -0.327 N 
HETATM   18  C   UNL     1     -44.989  61.263 -48.197  1.00  0.00     0.222 C 
HETATM   19  O   UNL     1     -44.405  62.265 -48.595  1.00  0.00    -0.273 OA
HETATM   20  H   UNL     1     -46.146  59.594 -48.482  1.00  0.00     0.169 HD
BRANCH  18  21
HETATM   21  C   UNL     1     -45.033  60.939 -46.716  1.00  0.00     0.103 C 
BRANCH  21  22
HETATM   22  C   UNL     1     -46.469  60.672 -46.277  1.00  0.00     0.005 C 
HETATM   23  C   UNL     1     -46.640  59.259 -45.746  1.00  0.00     0.005 C 
ENDBRANCH  21  22
ENDBRANCH  18  21
ENDBRANCH  15  17
ENDBRANCH   1  11
BRANCH   3  24
HETATM   24  N   UNL     1     -42.362  57.484 -56.188  1.00  0.00    -0.340 N 
HETATM   25  H   UNL     1     -41.400  57.175 -56.277  1.00  0.00     0.167 HD
BRANCH  24  26
HETATM   26  C   UNL     1     -43.107  57.273 -57.373  1.00  0.00     0.034 A 
HETATM   27  C   UNL     1     -43.909  58.311 -57.875  1.00  0.00     0.032 A 
HETATM   28  C   UNL     1     -44.710  58.152 -59.017  1.00  0.00     0.034 A 
HETATM   29  C   UNL     1     -44.700  56.896 -59.627  1.00  0.00     0.062 A 
HETATM   30  N   UNL     1     -45.353  56.407 -60.728  1.00  0.00    -0.278 N 
HETATM   31  C   UNL     1     -43.950  55.832 -59.146  1.00  0.00     0.013 A 
HETATM   32  H   UNL     1     -45.991  56.902 -61.338  1.00  0.00     0.189 HD
HETATM   33  N   UNL     1     -45.093  55.113 -60.992  1.00  0.00    -0.186 NA
HETATM   34  C   UNL     1     -44.237  54.767 -60.027  1.00  0.00     0.152 A 
HETATM   35  C   UNL     1     -43.153  56.015 -58.002  1.00  0.00     0.044 A 
ENDBRANCH  24  26
ENDBRANCH   3  24
BRANCH   6  36
HETATM   36  O   UNL     1     -40.935  52.820 -54.796  1.00  0.00    -0.351 OA
BRANCH  36  37
HETATM   37  C   UNL     1     -39.919  52.097 -54.103  1.00  0.00     0.180 C 
BRANCH  37  38
HETATM   38  C   UNL     1     -40.284  50.644 -54.130  1.00  0.00     0.010 A 
HETATM   39  C   UNL     1     -39.264  49.602 -54.513  1.00  0.00     0.007 A 
HETATM   40  C   UNL     1     -39.742  49.699 -53.089  1.00  0.00     0.007 A 
ENDBRANCH  37  38
ENDBRANCH  36  37
ENDBRANCH   6  36
TORSDOF 9
ENDMDL
MODEL 3
REMARK VINA RESULT:      -9.0      2.355      5.557
REMARK  9 active torsions:
REMARK  status: ('A' for Active; 'I' for Inactive)
REMARK    1  A    between atoms: C_2  and  C_3 
REMARK    2  A    between atoms: C_3  and  C_4 
REMARK       I    between atoms: C_4  and  N_6 
REMARK    3  A    between atoms: N_6  and  C_7 
REMARK    4  A    between atoms: C_11  and  C_13 
REMARK    5  A    between atoms: C_15  and  N_16 
REMARK    6  A    between atoms: N_16  and  C_17 
REMARK    7  A    between atoms: C_29  and  O_30 
REMARK    8  A    between atoms: O_30  and  C_31 
REMARK    9  A    between atoms: C_31  and  C_32 
ROOT
HETATM    1  C   UNL     1     -43.551  59.282 -53.225  1.00  0.00     0.162 A 
HETATM    2  N   UNL     1     -43.742  58.014 -52.835  1.00  0.00    -0.210 NA
HETATM    3  C   UNL     1     -43.646  57.047 -53.762  1.00  0.00     0.143 A 
HETATM    4  C   UNL     1     -43.332  57.334 -55.100  1.00  0.00     0.041 A 
HETATM    5  C   UNL     1     -43.187  56.370 -56.130  1.00  0.00     0.054 A 
HETATM    6  C   UNL     1     -42.852  56.743 -57.431  1.00  0.00     0.069 A 
HETATM    7  C   UNL     1     -42.696  58.091 -57.721  1.00  0.00     0.039 A 
HETATM    8  C   UNL     1     -42.858  59.045 -56.708  1.00  0.00     0.035 A 
HETATM    9  C   UNL     1     -43.168  58.692 -55.400  1.00  0.00     0.073 A 
HETATM   10  N   UNL     1     -43.286  59.659 -54.485  1.00  0.00    -0.228 NA
ENDROOT
BRANCH   1  11
HETATM   11  C   UNL     1     -43.588  60.316 -52.180  1.00  0.00     0.014 A 
HETATM   12  C   UNL     1     -43.163  61.628 -52.454  1.00  0.00     0.015 A 
HETATM   13  C   UNL     1     -43.214  62.623 -51.480  1.00  0.00     0.003 A 
HETATM   14  C   UNL     1     -43.677  62.323 -50.198  1.00  0.00     0.029 A 
HETATM   15  C   UNL     1     -44.087  61.028 -49.882  1.00  0.00     0.035 A 
HETATM   16  C   UNL     1     -44.047  60.039 -50.877  1.00  0.00     0.044 A 
BRANCH  15  17
HETATM   17  N   UNL     1     -44.514  60.638 -48.595  1.00  0.00    -0.327 N 
HETATM   18  C   UNL     1     -45.690  60.996 -47.958  1.00  0.00     0.222 C 
HETATM   19  O   UNL     1     -46.620  61.636 -48.436  1.00  0.00    -0.273 OA
HETATM   20  H   UNL     1     -43.892  60.019 -48.091  1.00  0.00     0.169 HD
BRANCH  18  21
HETATM   21  C   UNL     1     -45.731  60.548 -46.509  1.00  0.00     0.103 C 
BRANCH  21  22
HETATM   22  C   UNL     1     -45.148  61.629 -45.606  1.00  0.00     0.005 C 
HETATM   23  C   UNL     1     -44.158  61.053 -44.608  1.00  0.00     0.005 C 
ENDBRANCH  21  22
ENDBRANCH  18  21
ENDBRANCH  15  17
ENDBRANCH   1  11
BRANCH   3  24
HETATM   24  N   UNL     1     -43.843  55.699 -53.362  1.00  0.00    -0.340 N 
HETATM   25  H   UNL     1     -44.494  55.253 -53.997  1.00  0.00     0.167 HD
BRANCH  24  26
HETATM   26  C   UNL     1     -42.859  54.802 -52.881  1.00  0.00     0.034 A 
HETATM   27  C   UNL     1     -42.517  54.822 -51.519  1.00  0.00     0.032 A 
HETATM   28  C   UNL     1     -41.517  53.994 -50.986  1.00  0.00     0.034 A 
HETATM   29  C   UNL     1     -40.846  53.157 -51.880  1.00  0.00     0.062 A 
HETATM   30  N   UNL     1     -39.838  52.247 -51.702  1.00  0.00    -0.278 N 
HETATM   31  C   UNL     1     -41.128  53.128 -53.238  1.00  0.00     0.013 A 
HETATM   32  H   UNL     1     -39.377  51.997 -50.836  1.00  0.00     0.189 HD
HETATM   33  N   UNL     1     -39.438  51.639 -52.834  1.00  0.00    -0.186 NA
HETATM   34  C   UNL     1     -40.227  52.178 -53.768  1.00  0.00     0.152 A 
HETATM   35  C   UNL     1     -42.135  53.965 -53.750  1.00  0.00     0.044 A 
ENDBRANCH  24  26
ENDBRANCH   3  24
BRANCH   6  36
HETATM   36  O   UNL     1     -42.712  55.705 -58.307  1.00  0.00    -0.351 OA
BRANCH  36  37
HETATM   37  C   UNL     1     -43.032  55.960 -59.675  1.00  0.00     0.180 C 
BRANCH  37  38
HETATM   38  C   UNL     1     -44.479  55.629 -59.880  1.00  0.00     0.010 A 
HETATM   39  C   UNL     1     -44.946  54.990 -61.163  1.00  0.00     0.007 A 
HETATM   40  C   UNL     1     -44.944  54.196 -59.886  1.00  0.00     0.007 A 
ENDBRANCH  37  38
ENDBRANCH  36  37
ENDBRANCH   6  36
TORSDOF 9
ENDMDL
MODEL 4
REMARK VINA RESULT:      -8.8      2.924      8.785
REMARK  9 active torsions:
REMARK  status: ('A' for Active; 'I' for Inactive)
REMARK    1  A    between atoms: C_2  and  C_3 
REMARK    2  A    between atoms: C_3  and  C_4 
REMARK       I    between atoms: C_4  and  N_6 
REMARK    3  A    between atoms: N_6  and  C_7 
REMARK    4  A    between atoms: C_11  and  C_13 
REMARK    5  A    between atoms: C_15  and  N_16 
REMARK    6  A    between atoms: N_16  and  C_17 
REMARK    7  A    between atoms: C_29  and  O_30 
REMARK    8  A    between atoms: O_30  and  C_31 
REMARK    9  A    between atoms: C_31  and  C_32 
ROOT
HETATM    1  C   UNL     1     -42.847  56.084 -56.412  1.00  0.00     0.162 A 
HETATM    2  N   UNL     1     -43.537  56.412 -55.312  1.00  0.00    -0.210 NA
HETATM    3  C   UNL     1     -43.224  55.792 -54.162  1.00  0.00     0.143 A 
HETATM    4  C   UNL     1     -42.191  54.844 -54.091  1.00  0.00     0.041 A 
HETATM    5  C   UNL     1     -41.783  54.168 -52.913  1.00  0.00     0.054 A 
HETATM    6  C   UNL     1     -40.730  53.254 -52.928  1.00  0.00     0.069 A 
HETATM    7  C   UNL     1     -40.100  52.981 -54.134  1.00  0.00     0.039 A 
HETATM    8  C   UNL     1     -40.515  53.635 -55.301  1.00  0.00     0.035 A 
HETATM    9  C   UNL     1     -41.546  54.567 -55.302  1.00  0.00     0.073 A 
HETATM   10  N   UNL     1     -41.871  55.163 -56.453  1.00  0.00    -0.228 NA
ENDROOT
BRANCH   1  11
HETATM   11  C   UNL     1     -43.156  56.827 -57.643  1.00  0.00     0.014 A 
HETATM   12  C   UNL     1     -42.217  57.712 -58.202  1.00  0.00     0.015 A 
HETATM   13  C   UNL     1     -42.489  58.406 -59.380  1.00  0.00     0.003 A 
HETATM   14  C   UNL     1     -43.718  58.242 -60.019  1.00  0.00     0.029 A 
HETATM   15  C   UNL     1     -44.683  57.389 -59.484  1.00  0.00     0.035 A 
HETATM   16  C   UNL     1     -44.391  56.683 -58.306  1.00  0.00     0.044 A 
BRANCH  15  17
HETATM   17  N   UNL     1     -45.967  57.216 -60.044  1.00  0.00    -0.327 N 
HETATM   18  C   UNL     1     -46.354  56.265 -60.973  1.00  0.00     0.222 C 
HETATM   19  O   UNL     1     -45.677  55.338 -61.403  1.00  0.00    -0.273 OA
HETATM   20  H   UNL     1     -46.682  57.853 -59.717  1.00  0.00     0.169 HD
BRANCH  18  21
HETATM   21  C   UNL     1     -47.761  56.493 -61.493  1.00  0.00     0.103 C 
BRANCH  21  22
HETATM   22  C   UNL     1     -48.024  57.985 -61.665  1.00  0.00     0.005 C 
HETATM   23  C   UNL     1     -48.780  58.277 -62.949  1.00  0.00     0.005 C 
ENDBRANCH  21  22
ENDBRANCH  18  21
ENDBRANCH  15  17
ENDBRANCH   1  11
BRANCH   3  24
HETATM   24  N   UNL     1     -43.946  56.132 -52.988  1.00  0.00    -0.340 N 
HETATM   25  H   UNL     1     -44.023  55.315 -52.393  1.00  0.00     0.167 HD
BRANCH  24  26
HETATM   26  C   UNL     1     -43.843  57.332 -52.243  1.00  0.00     0.034 A 
HETATM   27  C   UNL     1     -42.573  57.864 -51.968  1.00  0.00     0.032 A 
HETATM   28  C   UNL     1     -42.398  59.022 -51.195  1.00  0.00     0.034 A 
HETATM   29  C   UNL     1     -43.550  59.618 -50.679  1.00  0.00     0.062 A 
HETATM   30  N   UNL     1     -43.736  60.729 -49.899  1.00  0.00    -0.278 N 
HETATM   31  C   UNL     1     -44.822  59.109 -50.897  1.00  0.00     0.013 A 
HETATM   32  H   UNL     1     -43.029  61.359 -49.543  1.00  0.00     0.189 HD
HETATM   33  N   UNL     1     -45.022  60.974 -49.587  1.00  0.00    -0.186 NA
HETATM   34  C   UNL     1     -45.681  59.985 -50.199  1.00  0.00     0.152 A 
HETATM   35  C   UNL     1     -44.974  57.948 -51.677  1.00  0.00     0.044 A 
ENDBRANCH  24  26
ENDBRANCH   3  24
BRANCH   6  36
HETATM   36  O   UNL     1     -40.427  52.707 -51.714  1.00  0.00    -0.351 OA
BRANCH  36  37
HETATM   37  C   UNL     1     -39.832  53.567 -50.743  1.00  0.00     0.180 C 
BRANCH  37  38
HETATM   38  C   UNL     1     -40.724  53.591 -49.539  1.00  0.00     0.010 A 
HETATM   39  C   UNL     1     -40.217  54.112 -48.218  1.00  0.00     0.007 A 
HETATM   40  C   UNL     1     -41.239  54.898 -48.993  1.00  0.00     0.007 A 
ENDBRANCH  37  38
ENDBRANCH  36  37
ENDBRANCH   6  36
TORSDOF 9
ENDMDL
MODEL 5
REMARK VINA RESULT:      -8.8      2.762      8.186
REMARK  9 active torsions:
REMARK  status: ('A' for Active; 'I' for Inactive)
REMARK    1  A    between atoms: C_2  and  C_3 
REMARK    2  A    between atoms: C_3  and  C_4 
REMARK       I    between atoms: C_4  and  N_6 
REMARK    3  A    between atoms: N_6  and  C_7 
REMARK    4  A    between atoms: C_11  and  C_13 
REMARK    5  A    between atoms: C_15  and  N_16 
REMARK    6  A    between atoms: N_16  and  C_17 
REMARK    7  A    between atoms: C_29  and  O_30 
REMARK    8  A    between atoms: O_30  and  C_31 
REMARK    9  A    between atoms: C_31  and  C_32 
ROOT
HETATM    1  C   UNL     1     -42.854  55.932 -56.369  1.00  0.00     0.162 A 
HETATM    2  N   UNL     1     -43.644  56.495 -55.446  1.00  0.00    -0.210 NA
HETATM    3  C   UNL     1     -43.552  56.052 -54.181  1.00  0.00     0.143 A 
HETATM    4  C   UNL     1     -42.644  55.047 -53.814  1.00  0.00     0.041 A 
HETATM    5  C   UNL     1     -42.468  54.545 -52.499  1.00  0.00     0.054 A 
HETATM    6  C   UNL     1     -41.525  53.557 -52.220  1.00  0.00     0.069 A 
HETATM    7  C   UNL     1     -40.774  53.036 -53.264  1.00  0.00     0.039 A 
HETATM    8  C   UNL     1     -40.961  53.518 -54.566  1.00  0.00     0.035 A 
HETATM    9  C   UNL     1     -41.878  54.519 -54.860  1.00  0.00     0.073 A 
HETATM   10  N   UNL     1     -41.984  54.940 -56.125  1.00  0.00    -0.228 NA
ENDROOT
BRANCH   1  11
HETATM   11  C   UNL     1     -42.919  56.483 -57.732  1.00  0.00     0.014 A 
HETATM   12  C   UNL     1     -43.462  55.727 -58.786  1.00  0.00     0.015 A 
HETATM   13  C   UNL     1     -43.550  56.245 -60.076  1.00  0.00     0.003 A 
HETATM   14  C   UNL     1     -43.080  57.530 -60.347  1.00  0.00     0.029 A 
HETATM   15  C   UNL     1     -42.516  58.303 -59.332  1.00  0.00     0.035 A 
HETATM   16  C   UNL     1     -42.448  57.776 -58.033  1.00  0.00     0.044 A 
BRANCH  15  17
HETATM   17  N   UNL     1     -41.970  59.587 -59.542  1.00  0.00    -0.327 N 
HETATM   18  C   UNL     1     -42.626  60.802 -59.446  1.00  0.00     0.222 C 
HETATM   19  O   UNL     1     -43.776  60.990 -59.064  1.00  0.00    -0.273 OA
HETATM   20  H   UNL     1     -40.986  59.616 -59.777  1.00  0.00     0.169 HD
BRANCH  18  21
HETATM   21  C   UNL     1     -41.778  61.965 -59.924  1.00  0.00     0.103 C 
BRANCH  21  22
HETATM   22  C   UNL     1     -40.638  62.224 -58.945  1.00  0.00     0.005 C 
HETATM   23  C   UNL     1     -39.493  62.974 -59.603  1.00  0.00     0.005 C 
ENDBRANCH  21  22
ENDBRANCH  18  21
ENDBRANCH  15  17
ENDBRANCH   1  11
BRANCH   3  24
HETATM   24  N   UNL     1     -44.382  56.642 -53.192  1.00  0.00    -0.340 N 
HETATM   25  H   UNL     1     -44.798  55.912 -52.624  1.00  0.00     0.167 HD
BRANCH  24  26
HETATM   26  C   UNL     1     -44.116  57.817 -52.448  1.00  0.00     0.034 A 
HETATM   27  C   UNL     1     -42.827  58.374 -52.480  1.00  0.00     0.032 A 
HETATM   28  C   UNL     1     -42.484  59.509 -51.729  1.00  0.00     0.034 A 
HETATM   29  C   UNL     1     -43.478  60.054 -50.915  1.00  0.00     0.062 A 
HETATM   30  N   UNL     1     -43.482  61.131 -50.069  1.00  0.00    -0.278 N 
HETATM   31  C   UNL     1     -44.755  59.517 -50.827  1.00  0.00     0.013 A 
HETATM   32  H   UNL     1     -42.719  61.768 -49.876  1.00  0.00     0.189 HD
HETATM   33  N   UNL     1     -44.652  61.329 -49.433  1.00  0.00    -0.186 NA
HETATM   34  C   UNL     1     -45.425  60.344 -49.899  1.00  0.00     0.152 A 
HETATM   35  C   UNL     1     -45.078  58.381 -51.591  1.00  0.00     0.044 A 
ENDBRANCH  24  26
ENDBRANCH   3  24
BRANCH   6  36
HETATM   36  O   UNL     1     -41.443  53.197 -50.905  1.00  0.00    -0.351 OA
BRANCH  36  37
HETATM   37  C   UNL     1     -42.089  54.046 -49.957  1.00  0.00     0.180 C 
BRANCH  37  38
HETATM   38  C   UNL     1     -41.029  54.691 -49.117  1.00  0.00     0.010 A 
HETATM   39  C   UNL     1     -40.408  53.949 -47.961  1.00  0.00     0.007 A 
HETATM   40  C   UNL     1     -39.599  54.225 -49.199  1.00  0.00     0.007 A 
ENDBRANCH  37  38
ENDBRANCH  36  37
ENDBRANCH   6  36
TORSDOF 9
ENDMDL
MODEL 6
REMARK VINA RESULT:      -8.7      2.852      5.267
REMARK  9 active torsions:
REMARK  status: ('A' for Active; 'I' for Inactive)
REMARK    1  A    between atoms: C_2  and  C_3 
REMARK    2  A    between atoms: C_3  and  C_4 
REMARK       I    between atoms: C_4  and  N_6 
REMARK    3  A    between atoms: N_6  and  C_7 
REMARK    4  A    between atoms: C_11  and  C_13 
REMARK    5  A    between atoms: C_15  and  N_16 
REMARK    6  A    between atoms: N_16  and  C_17 
REMARK    7  A    between atoms: C_29  and  O_30 
REMARK    8  A    between atoms: O_30  and  C_31 
REMARK    9  A    between atoms: C_31  and  C_32 
ROOT
HETATM    1  C   UNL     1     -45.565  59.668 -52.127  1.00  0.00     0.162 A 
HETATM    2  N   UNL     1     -45.309  58.543 -51.446  1.00  0.00    -0.210 NA
HETATM    3  C   UNL     1     -44.815  57.494 -52.124  1.00  0.00     0.143 A 
HETATM    4  C   UNL     1     -44.546  57.563 -53.500  1.00  0.00     0.041 A 
HETATM    5  C   UNL     1     -44.001  56.510 -54.279  1.00  0.00     0.054 A 
HETATM    6  C   UNL     1     -43.746  56.672 -55.640  1.00  0.00     0.069 A 
HETATM    7  C   UNL     1     -44.070  57.880 -56.242  1.00  0.00     0.039 A 
HETATM    8  C   UNL     1     -44.626  58.913 -55.475  1.00  0.00     0.035 A 
HETATM    9  C   UNL     1     -44.865  58.780 -54.114  1.00  0.00     0.073 A 
HETATM   10  N   UNL     1     -45.379  59.818 -53.448  1.00  0.00    -0.228 NA
ENDROOT
BRANCH   1  11
HETATM   11  C   UNL     1     -46.035  60.827 -51.352  1.00  0.00     0.014 A 
HETATM   12  C   UNL     1     -46.895  61.776 -51.932  1.00  0.00     0.015 A 
HETATM   13  C   UNL     1     -47.365  62.866 -51.203  1.00  0.00     0.003 A 
HETATM   14  C   UNL     1     -46.972  63.042 -49.876  1.00  0.00     0.029 A 
HETATM   15  C   UNL     1     -46.104  62.132 -49.272  1.00  0.00     0.035 A 
HETATM   16  C   UNL     1     -45.650  61.029 -50.012  1.00  0.00     0.044 A 
BRANCH  15  17
HETATM   17  N   UNL     1     -45.620  62.274 -47.954  1.00  0.00    -0.327 N 
HETATM   18  C   UNL     1     -46.204  61.802 -46.791  1.00  0.00     0.222 C 
HETATM   19  O   UNL     1     -47.197  61.088 -46.704  1.00  0.00    -0.273 OA
HETATM   20  H   UNL     1     -44.741  62.767 -47.856  1.00  0.00     0.169 HD
BRANCH  18  21
HETATM   21  C   UNL     1     -45.507  62.302 -45.541  1.00  0.00     0.103 C 
BRANCH  21  22
HETATM   22  C   UNL     1     -45.573  63.824 -45.472  1.00  0.00     0.005 C 
HETATM   23  C   UNL     1     -46.990  64.314 -45.230  1.00  0.00     0.005 C 
ENDBRANCH  21  22
ENDBRANCH  18  21
ENDBRANCH  15  17
ENDBRANCH   1  11
BRANCH   3  24
HETATM   24  N   UNL     1     -44.536  56.296 -51.414  1.00  0.00    -0.340 N 
HETATM   25  H   UNL     1     -45.168  55.567 -51.725  1.00  0.00     0.167 HD
BRANCH  24  26
HETATM   26  C   UNL     1     -43.260  55.790 -51.066  1.00  0.00     0.034 A 
HETATM   27  C   UNL     1     -42.270  56.677 -50.612  1.00  0.00     0.032 A 
HETATM   28  C   UNL     1     -40.971  56.250 -50.297  1.00  0.00     0.034 A 
HETATM   29  C   UNL     1     -40.689  54.895 -50.480  1.00  0.00     0.062 A 
HETATM   30  N   UNL     1     -39.549  54.161 -50.280  1.00  0.00    -0.278 N 
HETATM   31  C   UNL     1     -41.626  53.990 -50.958  1.00  0.00     0.013 A 
HETATM   32  H   UNL     1     -38.656  54.488 -49.933  1.00  0.00     0.189 HD
HETATM   33  N   UNL     1     -39.670  52.858 -50.597  1.00  0.00    -0.186 NA
HETATM   34  C   UNL     1     -40.937  52.758 -51.009  1.00  0.00     0.152 A 
HETATM   35  C   UNL     1     -42.922  54.440 -51.265  1.00  0.00     0.044 A 
ENDBRANCH  24  26
ENDBRANCH   3  24
BRANCH   6  36
HETATM   36  O   UNL     1     -43.190  55.587 -56.253  1.00  0.00    -0.351 OA
BRANCH  36  37
HETATM   37  C   UNL     1     -42.696  54.546 -55.410  1.00  0.00     0.180 C 
BRANCH  37  38
HETATM   38  C   UNL     1     -41.199  54.588 -55.453  1.00  0.00     0.010 A 
HETATM   39  C   UNL     1     -40.406  54.966 -54.227  1.00  0.00     0.007 A 
HETATM   40  C   UNL     1     -40.383  53.548 -54.729  1.00  0.00     0.007 A 
ENDBRANCH  37  38
ENDBRANCH  36  37
ENDBRANCH   6  36
TORSDOF 9
ENDMDL
MODEL 7
REMARK VINA RESULT:      -8.6      3.481      8.004
REMARK  9 active torsions:
REMARK  status: ('A' for Active; 'I' for Inactive)
REMARK    1  A    between atoms: C_2  and  C_3 
REMARK    2  A    between atoms: C_3  and  C_4 
REMARK       I    between atoms: C_4  and  N_6 
REMARK    3  A    between atoms: N_6  and  C_7 
REMARK    4  A    between atoms: C_11  and  C_13 
REMARK    5  A    between atoms: C_15  and  N_16 
REMARK    6  A    between atoms: N_16  and  C_17 
REMARK    7  A    between atoms: C_29  and  O_30 
REMARK    8  A    between atoms: O_30  and  C_31 
REMARK    9  A    between atoms: C_31  and  C_32 
ROOT
HETATM    1  C   UNL     1     -42.647  57.390 -53.348  1.00  0.00     0.162 A 
HETATM    2  N   UNL     1     -42.172  57.352 -54.600  1.00  0.00    -0.210 NA
HETATM    3  C   UNL     1     -42.734  58.161 -55.513  1.00  0.00     0.143 A 
HETATM    4  C   UNL     1     -43.773  59.043 -55.179  1.00  0.00     0.041 A 
HETATM    5  C   UNL     1     -44.400  59.945 -56.077  1.00  0.00     0.054 A 
HETATM    6  C   UNL     1     -45.413  60.804 -55.654  1.00  0.00     0.069 A 
HETATM    7  C   UNL     1     -45.836  60.740 -54.334  1.00  0.00     0.039 A 
HETATM    8  C   UNL     1     -45.230  59.835 -53.452  1.00  0.00     0.035 A 
HETATM    9  C   UNL     1     -44.202  58.989 -53.848  1.00  0.00     0.073 A 
HETATM   10  N   UNL     1     -43.662  58.169 -52.941  1.00  0.00    -0.228 NA
ENDROOT
BRANCH   1  11
HETATM   11  C   UNL     1     -41.968  56.550 -52.349  1.00  0.00     0.014 A 
HETATM   12  C   UNL     1     -41.787  57.008 -51.032  1.00  0.00     0.015 A 
HETATM   13  C   UNL     1     -41.165  56.214 -50.070  1.00  0.00     0.003 A 
HETATM   14  C   UNL     1     -40.694  54.946 -50.409  1.00  0.00     0.029 A 
HETATM   15  C   UNL     1     -40.837  54.465 -51.710  1.00  0.00     0.035 A 
HETATM   16  C   UNL     1     -41.480  55.267 -52.666  1.00  0.00     0.044 A 
BRANCH  15  17
HETATM   17  N   UNL     1     -40.338  53.217 -52.140  1.00  0.00    -0.327 N 
HETATM   18  C   UNL     1     -40.107  52.095 -51.362  1.00  0.00     0.222 C 
HETATM   19  O   UNL     1     -40.389  51.948 -50.178  1.00  0.00    -0.273 OA
HETATM   20  H   UNL     1     -40.138  53.137 -53.129  1.00  0.00     0.169 HD
BRANCH  18  21
HETATM   21  C   UNL     1     -39.388  50.995 -52.121  1.00  0.00     0.103 C 
BRANCH  21  22
HETATM   22  C   UNL     1     -39.528  51.212 -53.624  1.00  0.00     0.005 C 
HETATM   23  C   UNL     1     -39.614  49.895 -54.375  1.00  0.00     0.005 C 
ENDBRANCH  21  22
ENDBRANCH  18  21
ENDBRANCH  15  17
ENDBRANCH   1  11
BRANCH   3  24
HETATM   24  N   UNL     1     -42.238  58.133 -56.843  1.00  0.00    -0.340 N 
HETATM   25  H   UNL     1     -41.249  57.910 -56.828  1.00  0.00     0.167 HD
BRANCH  24  26
HETATM   26  C   UNL     1     -42.891  57.607 -57.984  1.00  0.00     0.034 A 
HETATM   27  C   UNL     1     -43.319  58.482 -58.995  1.00  0.00     0.032 A 
HETATM   28  C   UNL     1     -44.015  58.033 -60.129  1.00  0.00     0.034 A 
HETATM   29  C   UNL     1     -44.293  56.667 -60.200  1.00  0.00     0.062 A 
HETATM   30  N   UNL     1     -44.942  55.911 -61.141  1.00  0.00    -0.278 N 
HETATM   31  C   UNL     1     -43.918  55.771 -59.208  1.00  0.00     0.013 A 
HETATM   32  H   UNL     1     -45.353  56.227 -62.010  1.00  0.00     0.189 HD
HETATM   33  N   UNL     1     -45.026  54.603 -60.834  1.00  0.00    -0.186 NA
HETATM   34  C   UNL     1     -44.400  54.522 -59.657  1.00  0.00     0.152 A 
HETATM   35  C   UNL     1     -43.220  56.243 -58.082  1.00  0.00     0.044 A 
ENDBRANCH  24  26
ENDBRANCH   3  24
BRANCH   6  36
HETATM   36  O   UNL     1     -45.897  61.639 -56.620  1.00  0.00    -0.351 OA
BRANCH  36  37
HETATM   37  C   UNL     1     -45.914  61.146 -57.959  1.00  0.00     0.180 C 
BRANCH  37  38
HETATM   38  C   UNL     1     -47.218  60.439 -58.175  1.00  0.00     0.010 A 
HETATM   39  C   UNL     1     -47.467  59.656 -59.439  1.00  0.00     0.007 A 
HETATM   40  C   UNL     1     -47.289  58.934 -58.131  1.00  0.00     0.007 A 
ENDBRANCH  37  38
ENDBRANCH  36  37
ENDBRANCH   6  36
TORSDOF 9
ENDMDL
MODEL 8
REMARK VINA RESULT:      -8.2      3.672      7.016
REMARK  9 active torsions:
REMARK  status: ('A' for Active; 'I' for Inactive)
REMARK    1  A    between atoms: C_2  and  C_3 
REMARK    2  A    between atoms: C_3  and  C_4 
REMARK       I    between atoms: C_4  and  N_6 
REMARK    3  A    between atoms: N_6  and  C_7 
REMARK    4  A    between atoms: C_11  and  C_13 
REMARK    5  A    between atoms: C_15  and  N_16 
REMARK    6  A    between atoms: N_16  and  C_17 
REMARK    7  A    between atoms: C_29  and  O_30 
REMARK    8  A    between atoms: O_30  and  C_31 
REMARK    9  A    between atoms: C_31  and  C_32 
ROOT
HETATM    1  C   UNL     1     -42.291  58.548 -54.938  1.00  0.00     0.162 A 
HETATM    2  N   UNL     1     -42.485  59.613 -55.728  1.00  0.00    -0.210 NA
HETATM    3  C   UNL     1     -42.772  59.395 -57.022  1.00  0.00     0.143 A 
HETATM    4  C   UNL     1     -42.892  58.097 -57.544  1.00  0.00     0.041 A 
HETATM    5  C   UNL     1     -43.217  57.784 -58.889  1.00  0.00     0.054 A 
HETATM    6  C   UNL     1     -43.337  56.463 -59.319  1.00  0.00     0.069 A 
HETATM    7  C   UNL     1     -43.094  55.441 -58.412  1.00  0.00     0.039 A 
HETATM    8  C   UNL     1     -42.754  55.750 -57.088  1.00  0.00     0.035 A 
HETATM    9  C   UNL     1     -42.654  57.060 -56.635  1.00  0.00     0.073 A 
HETATM   10  N   UNL     1     -42.345  57.272 -55.352  1.00  0.00    -0.228 NA
ENDROOT
BRANCH   1  11
HETATM   11  C   UNL     1     -42.052  58.809 -53.511  1.00  0.00     0.014 A 
HETATM   12  C   UNL     1     -42.235  60.097 -52.977  1.00  0.00     0.015 A 
HETATM   13  C   UNL     1     -42.033  60.353 -51.622  1.00  0.00     0.003 A 
HETATM   14  C   UNL     1     -41.626  59.327 -50.769  1.00  0.00     0.029 A 
HETATM   15  C   UNL     1     -41.414  58.041 -51.266  1.00  0.00     0.035 A 
HETATM   16  C   UNL     1     -41.636  57.792 -52.629  1.00  0.00     0.044 A 
BRANCH  15  17
HETATM   17  N   UNL     1     -40.949  56.967 -50.477  1.00  0.00    -0.327 N 
HETATM   18  C   UNL     1     -41.663  55.849 -50.080  1.00  0.00     0.222 C 
HETATM   19  O   UNL     1     -42.798  55.539 -50.425  1.00  0.00    -0.273 OA
HETATM   20  H   UNL     1     -39.983  57.022 -50.181  1.00  0.00     0.169 HD
BRANCH  18  21
HETATM   21  C   UNL     1     -40.905  54.995 -49.081  1.00  0.00     0.103 C 
BRANCH  21  22
HETATM   22  C   UNL     1     -40.782  53.565 -49.596  1.00  0.00     0.005 C 
HETATM   23  C   UNL     1     -39.840  53.475 -50.784  1.00  0.00     0.005 C 
ENDBRANCH  21  22
ENDBRANCH  18  21
ENDBRANCH  15  17
ENDBRANCH   1  11
BRANCH   3  24
HETATM   24  N   UNL     1     -42.983  60.514 -57.870  1.00  0.00    -0.340 N 
HETATM   25  H   UNL     1     -43.592  61.177 -57.405  1.00  0.00     0.167 HD
BRANCH  24  26
HETATM   26  C   UNL     1     -42.023  61.150 -58.694  1.00  0.00     0.034 A 
HETATM   27  C   UNL     1     -40.922  61.788 -58.099  1.00  0.00     0.032 A 
HETATM   28  C   UNL     1     -39.960  62.478 -58.853  1.00  0.00     0.034 A 
HETATM   29  C   UNL     1     -40.158  62.532 -60.234  1.00  0.00     0.062 A 
HETATM   30  N   UNL     1     -39.434  63.114 -61.241  1.00  0.00    -0.278 N 
HETATM   31  C   UNL     1     -41.249  61.946 -60.860  1.00  0.00     0.013 A 
HETATM   32  H   UNL     1     -38.569  63.632 -61.160  1.00  0.00     0.189 HD
HETATM   33  N   UNL     1     -39.973  62.960 -62.465  1.00  0.00    -0.186 NA
HETATM   34  C   UNL     1     -41.078  62.247 -62.229  1.00  0.00     0.152 A 
HETATM   35  C   UNL     1     -42.199  61.257 -60.085  1.00  0.00     0.044 A 
ENDBRANCH  24  26
ENDBRANCH   3  24
BRANCH   6  36
HETATM   36  O   UNL     1     -43.688  56.316 -60.630  1.00  0.00    -0.351 OA
BRANCH  36  37
HETATM   37  C   UNL     1     -44.944  55.695 -60.901  1.00  0.00     0.180 C 
BRANCH  37  38
HETATM   38  C   UNL     1     -46.013  56.737 -60.769  1.00  0.00     0.010 A 
HETATM   39  C   UNL     1     -47.464  56.376 -60.961  1.00  0.00     0.007 A 
HETATM   40  C   UNL     1     -46.951  56.726 -59.590  1.00  0.00     0.007 A 
ENDBRANCH  37  38
ENDBRANCH  36  37
ENDBRANCH   6  36
TORSDOF 9
ENDMDL
MODEL 9
REMARK VINA RESULT:      -8.2      1.608      2.045
REMARK  9 active torsions:
REMARK  status: ('A' for Active; 'I' for Inactive)
REMARK    1  A    between atoms: C_2  and  C_3 
REMARK    2  A    between atoms: C_3  and  C_4 
REMARK       I    between atoms: C_4  and  N_6 
REMARK    3  A    between atoms: N_6  and  C_7 
REMARK    4  A    between atoms: C_11  and  C_13 
REMARK    5  A    between atoms: C_15  and  N_16 
REMARK    6  A    between atoms: N_16  and  C_17 
REMARK    7  A    between atoms: C_29  and  O_30 
REMARK    8  A    between atoms: O_30  and  C_31 
REMARK    9  A    between atoms: C_31  and  C_32 
ROOT
HETATM    1  C   UNL     1     -42.217  58.104 -51.619  1.00  0.00     0.162 A 
HETATM    2  N   UNL     1     -41.912  57.661 -52.846  1.00  0.00    -0.210 NA
HETATM    3  C   UNL     1     -41.405  56.423 -52.963  1.00  0.00     0.143 A 
HETATM    4  C   UNL     1     -41.215  55.594 -51.846  1.00  0.00     0.041 A 
HETATM    5  C   UNL     1     -40.710  54.268 -51.889  1.00  0.00     0.054 A 
HETATM    6  C   UNL     1     -40.573  53.506 -50.730  1.00  0.00     0.069 A 
HETATM    7  C   UNL     1     -40.905  54.080 -49.510  1.00  0.00     0.039 A 
HETATM    8  C   UNL     1     -41.385  55.395 -49.466  1.00  0.00     0.035 A 
HETATM    9  C   UNL     1     -41.552  56.162 -50.612  1.00  0.00     0.073 A 
HETATM   10  N   UNL     1     -42.034  57.403 -50.489  1.00  0.00    -0.228 NA
ENDROOT
BRANCH   1  11
HETATM   11  C   UNL     1     -42.839  59.433 -51.523  1.00  0.00     0.014 A 
HETATM   12  C   UNL     1     -43.083  60.196 -52.679  1.00  0.00     0.015 A 
HETATM   13  C   UNL     1     -43.692  61.447 -52.603  1.00  0.00     0.003 A 
HETATM   14  C   UNL     1     -44.058  61.973 -51.364  1.00  0.00     0.029 A 
HETATM   15  C   UNL     1     -43.813  61.255 -50.194  1.00  0.00     0.035 A 
HETATM   16  C   UNL     1     -43.214  59.989 -50.284  1.00  0.00     0.044 A 
BRANCH  15  17
HETATM   17  N   UNL     1     -44.104  61.746 -48.903  1.00  0.00    -0.327 N 
HETATM   18  C   UNL     1     -45.195  61.428 -48.112  1.00  0.00     0.222 C 
HETATM   19  O   UNL     1     -46.055  60.586 -48.348  1.00  0.00    -0.273 OA
HETATM   20  H   UNL     1     -43.431  62.393 -48.514  1.00  0.00     0.169 HD
BRANCH  18  21
HETATM   21  C   UNL     1     -45.285  62.286 -46.865  1.00  0.00     0.103 C 
BRANCH  21  22
HETATM   22  C   UNL     1     -46.090  63.549 -47.151  1.00  0.00     0.005 C 
HETATM   23  C   UNL     1     -47.262  63.695 -46.196  1.00  0.00     0.005 C 
ENDBRANCH  21  22
ENDBRANCH  18  21
ENDBRANCH  15  17
ENDBRANCH   1  11
BRANCH   3  24
HETATM   24  N   UNL     1     -41.080  55.940 -54.258  1.00  0.00    -0.340 N 
HETATM   25  H   UNL     1     -40.510  55.106 -54.172  1.00  0.00     0.167 HD
BRANCH  24  26
HETATM   26  C   UNL     1     -41.933  55.895 -55.388  1.00  0.00     0.034 A 
HETATM   27  C   UNL     1     -42.529  54.676 -55.750  1.00  0.00     0.032 A 
HETATM   28  C   UNL     1     -43.345  54.551 -56.885  1.00  0.00     0.034 A 
HETATM   29  C   UNL     1     -43.520  55.694 -57.668  1.00  0.00     0.062 A 
HETATM   30  N   UNL     1     -44.232  55.918 -58.817  1.00  0.00    -0.278 N 
HETATM   31  C   UNL     1     -42.923  56.910 -57.366  1.00  0.00     0.013 A 
HETATM   32  H   UNL     1     -44.798  55.255 -59.332  1.00  0.00     0.189 HD
HETATM   33  N   UNL     1     -44.135  57.175 -59.289  1.00  0.00    -0.186 NA
HETATM   34  C   UNL     1     -43.338  57.777 -58.401  1.00  0.00     0.152 A 
HETATM   35  C   UNL     1     -42.112  57.013 -56.222  1.00  0.00     0.044 A 
ENDBRANCH  24  26
ENDBRANCH   3  24
BRANCH   6  36
HETATM   36  O   UNL     1     -40.109  52.238 -50.929  1.00  0.00    -0.351 OA
BRANCH  36  37
HETATM   37  C   UNL     1     -39.346  52.002 -52.112  1.00  0.00     0.180 C 
BRANCH  37  38
HETATM   38  C   UNL     1     -40.087  51.002 -52.946  1.00  0.00     0.010 A 
HETATM   39  C   UNL     1     -40.331  51.255 -54.412  1.00  0.00     0.007 A 
HETATM   40  C   UNL     1     -39.362  50.185 -53.985  1.00  0.00     0.007 A 
ENDBRANCH  37  38
ENDBRANCH  36  37
ENDBRANCH   6  36
TORSDOF 9
ENDMDL
MODEL 10
REMARK VINA RESULT:      -8.2      2.977      9.039
REMARK  9 active torsions:
REMARK  status: ('A' for Active; 'I' for Inactive)
REMARK    1  A    between atoms: C_2  and  C_3 
REMARK    2  A    between atoms: C_3  and  C_4 
REMARK       I    between atoms: C_4  and  N_6 
REMARK    3  A    between atoms: N_6  and  C_7 
REMARK    4  A    between atoms: C_11  and  C_13 
REMARK    5  A    between atoms: C_15  and  N_16 
REMARK    6  A    between atoms: N_16  and  C_17 
REMARK    7  A    between atoms: C_29  and  O_30 
REMARK    8  A    between atoms: O_30  and  C_31 
REMARK    9  A    between atoms: C_31  and  C_32 
ROOT
HETATM    1  C   UNL     1     -41.899  56.213 -53.298  1.00  0.00     0.162 A 
HETATM    2  N   UNL     1     -42.427  57.409 -53.002  1.00  0.00    -0.210 NA
HETATM    3  C   UNL     1     -43.079  58.068 -53.974  1.00  0.00     0.143 A 
HETATM    4  C   UNL     1     -43.234  57.526 -55.260  1.00  0.00     0.041 A 
HETATM    5  C   UNL     1     -43.929  58.146 -56.330  1.00  0.00     0.054 A 
HETATM    6  C   UNL     1     -44.053  57.525 -57.572  1.00  0.00     0.069 A 
HETATM    7  C   UNL     1     -43.447  56.292 -57.765  1.00  0.00     0.039 A 
HETATM    8  C   UNL     1     -42.744  55.688 -56.714  1.00  0.00     0.035 A 
HETATM    9  C   UNL     1     -42.631  56.279 -55.463  1.00  0.00     0.073 A 
HETATM   10  N   UNL     1     -41.960  55.631 -54.505  1.00  0.00    -0.228 NA
ENDROOT
BRANCH   1  11
HETATM   11  C   UNL     1     -41.255  55.477 -52.199  1.00  0.00     0.014 A 
HETATM   12  C   UNL     1     -41.097  56.070 -50.934  1.00  0.00     0.015 A 
HETATM   13  C   UNL     1     -40.508  55.376 -49.879  1.00  0.00     0.003 A 
HETATM   14  C   UNL     1     -40.046  54.074 -50.070  1.00  0.00     0.029 A 
HETATM   15  C   UNL     1     -40.166  53.459 -51.316  1.00  0.00     0.035 A 
HETATM   16  C   UNL     1     -40.776  54.163 -52.367  1.00  0.00     0.044 A 
BRANCH  15  17
HETATM   17  N   UNL     1     -39.674  52.168 -51.599  1.00  0.00    -0.327 N 
HETATM   18  C   UNL     1     -39.864  51.016 -50.853  1.00  0.00     0.222 C 
HETATM   19  O   UNL     1     -40.578  50.889 -49.865  1.00  0.00    -0.273 OA
HETATM   20  H   UNL     1     -39.131  52.077 -52.449  1.00  0.00     0.169 HD
BRANCH  18  21
HETATM   21  C   UNL     1     -39.032  49.851 -51.353  1.00  0.00     0.103 C 
BRANCH  21  22
HETATM   22  C   UNL     1     -39.703  49.203 -52.560  1.00  0.00     0.005 C 
HETATM   23  C   UNL     1     -39.392  49.952 -53.844  1.00  0.00     0.005 C 
ENDBRANCH  21  22
ENDBRANCH  18  21
ENDBRANCH  15  17
ENDBRANCH   1  11
BRANCH   3  24
HETATM   24  N   UNL     1     -43.646  59.335 -53.674  1.00  0.00    -0.340 N 
HETATM   25  H   UNL     1     -44.214  59.642 -54.456  1.00  0.00     0.167 HD
BRANCH  24  26
HETATM   26  C   UNL     1     -44.169  59.760 -52.429  1.00  0.00     0.034 A 
HETATM   27  C   UNL     1     -45.268  59.082 -51.877  1.00  0.00     0.032 A 
HETATM   28  C   UNL     1     -45.865  59.481 -50.672  1.00  0.00     0.034 A 
HETATM   29  C   UNL     1     -45.335  60.611 -50.047  1.00  0.00     0.062 A 
HETATM   30  N   UNL     1     -45.672  61.261 -48.889  1.00  0.00    -0.278 N 
HETATM   31  C   UNL     1     -44.272  61.332 -50.573  1.00  0.00     0.013 A 
HETATM   32  H   UNL     1     -46.406  61.018 -48.236  1.00  0.00     0.189 HD
HETATM   33  N   UNL     1     -44.922  62.348 -48.629  1.00  0.00    -0.186 NA
HETATM   34  C   UNL     1     -44.069  62.387 -49.657  1.00  0.00     0.152 A 
HETATM   35  C   UNL     1     -43.687  60.912 -51.781  1.00  0.00     0.044 A 
ENDBRANCH  24  26
ENDBRANCH   3  24
BRANCH   6  36
HETATM   36  O   UNL     1     -44.778  58.225 -58.493  1.00  0.00    -0.351 OA
BRANCH  36  37
HETATM   37  C   UNL     1     -46.089  57.746 -58.789  1.00  0.00     0.180 C 
BRANCH  37  38
HETATM   38  C   UNL     1     -46.086  57.232 -60.197  1.00  0.00     0.010 A 
HETATM   39  C   UNL     1     -45.944  55.757 -60.476  1.00  0.00     0.007 A 
HETATM   40  C   UNL     1     -47.258  56.447 -60.728  1.00  0.00     0.007 A 
ENDBRANCH  37  38
ENDBRANCH  36  37
ENDBRANCH   6  36
TORSDOF 9
ENDMDL
