MODEL 1
REMARK VINA RESULT:      -8.9      0.000      0.000
REMARK  9 active torsions:
REMARK  status: ('A' for Active; 'I' for Inactive)
REMARK    1  A    between atoms: C_2  and  O_3 
REMARK    2  A    between atoms: O_3  and  C_4 
REMARK    3  A    between atoms: C_7  and  N_8 
REMARK    4  A    between atoms: C_9  and  S_10 
REMARK    5  A    between atoms: S_10  and  C_11 
REMARK    6  A    between atoms: C_11  and  C_12 
REMARK       I    between atoms: C_12  and  N_13 
REMARK    7  A    between atoms: N_13  and  C_14 
REMARK    8  A    between atoms: C_17  and  S_18 
REMARK    9  A    between atoms: S_18  and  N_19 
ROOT
HETATM    1  N   UNL     1     -43.174  56.963 -52.679  1.00  0.00    -0.256 N 
HETATM    2  C   UNL     1     -43.316  56.797 -54.063  1.00  0.00     0.177 A 
HETATM    3  N   UNL     1     -42.904  55.780 -54.754  1.00  0.00    -0.216 NA
HETATM    4  C   UNL     1     -42.225  54.849 -54.053  1.00  0.00     0.117 A 
HETATM    5  C   UNL     1     -41.939  54.888 -52.711  1.00  0.00     0.076 A 
HETATM    6  C   UNL     1     -42.442  56.011 -51.935  1.00  0.00     0.268 A 
HETATM    7  O   UNL     1     -42.241  56.060 -50.724  1.00  0.00    -0.267 OA
HETATM    8  S   UNL     1     -41.560  53.478 -54.817  1.00  0.00    -0.073 SA
HETATM    9  C   UNL     1     -40.863  52.938 -53.364  1.00  0.00    -0.008 A 
HETATM   10  C   UNL     1     -41.156  53.761 -52.292  1.00  0.00    -0.026 A 
HETATM   11  C   UNL     1     -40.642  53.477 -50.910  1.00  0.00     0.041 C 
HETATM   12  C   UNL     1     -40.097  52.045 -50.781  1.00  0.00     0.005 C 
HETATM   13  C   UNL     1     -39.238  51.647 -51.990  1.00  0.00     0.005 C 
HETATM   14  C   UNL     1     -40.049  51.683 -53.294  1.00  0.00     0.047 C 
ENDROOT
BRANCH   2  15
HETATM   15  S   UNL     1     -43.994  58.081 -55.062  1.00  0.00    -0.082 SA
BRANCH  15  16
HETATM   16  C   UNL     1     -43.201  57.648 -56.639  1.00  0.00     0.185 C 
BRANCH  16  17
HETATM   17  C   UNL     1     -43.981  57.986 -57.910  1.00  0.00     0.231 C 
HETATM   18  N   UNL     1     -45.213  57.388 -58.047  1.00  0.00    -0.327 N 
HETATM   19  H   UNL     1     -45.478  56.750 -57.300  1.00  0.00     0.169 HD
HETATM   20  O   UNL     1     -43.456  58.725 -58.744  1.00  0.00    -0.272 OA
BRANCH  18  21
HETATM   21  C   UNL     1     -46.097  57.429 -59.142  1.00  0.00     0.034 A 
HETATM   22  C   UNL     1     -46.823  58.558 -59.525  1.00  0.00     0.031 A 
HETATM   23  C   UNL     1     -47.647  58.521 -60.657  1.00  0.00     0.027 A 
HETATM   24  C   UNL     1     -47.743  57.348 -61.407  1.00  0.00     0.074 A 
HETATM   25  C   UNL     1     -47.046  56.203 -61.019  1.00  0.00     0.027 A 
HETATM   26  C   UNL     1     -46.222  56.251 -59.892  1.00  0.00     0.031 A 
BRANCH  24  27
HETATM   27  S   UNL     1     -48.786  57.288 -62.832  1.00  0.00     0.239 S 
HETATM   28  O   UNL     1     -48.526  56.067 -63.559  1.00  0.00    -0.206 OA
HETATM   29  O   UNL     1     -50.120  57.706 -62.471  1.00  0.00    -0.206 OA
BRANCH  27  30
HETATM   30  N   UNL     1     -48.157  58.529 -63.773  1.00  0.00    -0.225 NA
HETATM   31  H   UNL     1     -48.299  59.425 -63.306  1.00  0.00     0.136 HD
HETATM   32  H   UNL     1     -47.183  58.329 -64.001  1.00  0.00     0.136 HD
ENDBRANCH  27  30
ENDBRANCH  24  27
ENDBRANCH  18  21
ENDBRANCH  16  17
ENDBRANCH  15  16
ENDBRANCH   2  15
BRANCH   1  33
HETATM   33  C   UNL     1     -43.806  58.023 -51.943  1.00  0.00     0.045 A 
HETATM   34  C   UNL     1     -43.118  59.210 -51.662  1.00  0.00     0.033 A 
HETATM   35  C   UNL     1     -43.709  60.217 -50.892  1.00  0.00     0.039 A 
HETATM   36  C   UNL     1     -44.994  60.058 -50.375  1.00  0.00     0.068 A 
HETATM   37  C   UNL     1     -45.693  58.884 -50.651  1.00  0.00     0.039 A 
HETATM   38  C   UNL     1     -45.099  57.873 -51.420  1.00  0.00     0.033 A 
BRANCH  36  39
HETATM   39  O   UNL     1     -45.441  61.104 -49.619  1.00  0.00    -0.352 OA
BRANCH  39  40
HETATM   40  C   UNL     1     -44.673  61.451 -48.468  1.00  0.00     0.171 C 
HETATM   41  C   UNL     1     -45.361  60.857 -47.251  1.00  0.00     0.034 C 
ENDBRANCH  39  40
ENDBRANCH  36  39
ENDBRANCH   1  33
TORSDOF 9
ENDMDL
MODEL 2
REMARK VINA RESULT:      -8.5      4.034      8.900
REMARK  9 active torsions:
REMARK  status: ('A' for Active; 'I' for Inactive)
REMARK    1  A    between atoms: C_2  and  O_3 
REMARK    2  A    between atoms: O_3  and  C_4 
REMARK    3  A    between atoms: C_7  and  N_8 
REMARK    4  A    between atoms: C_9  and  S_10 
REMARK    5  A    between atoms: S_10  and  C_11 
REMARK    6  A    between atoms: C_11  and  C_12 
REMARK       I    between atoms: C_12  and  N_13 
REMARK    7  A    between atoms: N_13  and  C_14 
REMARK    8  A    between atoms: C_17  and  S_18 
REMARK    9  A    between atoms: S_18  and  N_19 
ROOT
HETATM    1  N   UNL     1     -42.033  56.071 -53.614  1.00  0.00    -0.256 N 
HETATM    2  C   UNL     1     -41.806  56.435 -52.281  1.00  0.00     0.177 A 
HETATM    3  N   UNL     1     -41.190  55.721 -51.391  1.00  0.00    -0.216 NA
HETATM    4  C   UNL     1     -40.804  54.497 -51.806  1.00  0.00     0.117 A 
HETATM    5  C   UNL     1     -41.006  53.958 -53.053  1.00  0.00     0.076 A 
HETATM    6  C   UNL     1     -41.660  54.782 -54.058  1.00  0.00     0.268 A 
HETATM    7  O   UNL     1     -41.822  54.349 -55.196  1.00  0.00    -0.267 OA
HETATM    8  S   UNL     1     -40.036  53.405 -50.746  1.00  0.00    -0.073 SA
HETATM    9  C   UNL     1     -39.989  52.195 -51.938  1.00  0.00    -0.008 A 
HETATM   10  C   UNL     1     -40.514  52.614 -53.147  1.00  0.00    -0.026 A 
HETATM   11  C   UNL     1     -40.577  51.706 -54.342  1.00  0.00     0.041 C 
HETATM   12  C   UNL     1     -39.696  50.458 -54.164  1.00  0.00     0.005 C 
HETATM   13  C   UNL     1     -39.839  49.851 -52.762  1.00  0.00     0.005 C 
HETATM   14  C   UNL     1     -39.406  50.841 -51.671  1.00  0.00     0.047 C 
ENDROOT
BRANCH   2  15
HETATM   15  S   UNL     1     -42.483  57.924 -51.623  1.00  0.00    -0.082 SA
BRANCH  15  16
HETATM   16  C   UNL     1     -44.196  57.364 -51.388  1.00  0.00     0.185 C 
BRANCH  16  17
HETATM   17  C   UNL     1     -45.171  58.382 -50.795  1.00  0.00     0.231 C 
HETATM   18  N   UNL     1     -44.629  59.580 -50.388  1.00  0.00    -0.327 N 
HETATM   19  H   UNL     1     -43.620  59.664 -50.493  1.00  0.00     0.169 HD
HETATM   20  O   UNL     1     -46.355  58.064 -50.677  1.00  0.00    -0.272 OA
BRANCH  18  21
HETATM   21  C   UNL     1     -45.255  60.650 -49.720  1.00  0.00     0.034 A 
HETATM   22  C   UNL     1     -45.780  61.775 -50.358  1.00  0.00     0.031 A 
HETATM   23  C   UNL     1     -46.426  62.773 -49.617  1.00  0.00     0.027 A 
HETATM   24  C   UNL     1     -46.545  62.641 -48.233  1.00  0.00     0.074 A 
HETATM   25  C   UNL     1     -45.999  61.537 -47.579  1.00  0.00     0.027 A 
HETATM   26  C   UNL     1     -45.362  60.544 -48.326  1.00  0.00     0.031 A 
BRANCH  24  27
HETATM   27  S   UNL     1     -47.352  63.898 -47.288  1.00  0.00     0.239 S 
HETATM   28  O   UNL     1     -46.355  64.782 -46.728  1.00  0.00    -0.206 OA
HETATM   29  O   UNL     1     -48.500  64.386 -48.015  1.00  0.00    -0.206 OA
BRANCH  27  30
HETATM   30  N   UNL     1     -47.967  63.019 -45.996  1.00  0.00    -0.225 NA
HETATM   31  H   UNL     1     -47.251  62.908 -45.279  1.00  0.00     0.136 HD
HETATM   32  H   UNL     1     -48.827  63.455 -45.661  1.00  0.00     0.136 HD
ENDBRANCH  27  30
ENDBRANCH  24  27
ENDBRANCH  18  21
ENDBRANCH  16  17
ENDBRANCH  15  16
ENDBRANCH   2  15
BRANCH   1  33
HETATM   33  C   UNL     1     -42.562  56.974 -54.599  1.00  0.00     0.045 A 
HETATM   34  C   UNL     1     -43.863  56.813 -55.093  1.00  0.00     0.033 A 
HETATM   35  C   UNL     1     -44.357  57.653 -56.097  1.00  0.00     0.039 A 
HETATM   36  C   UNL     1     -43.562  58.661 -56.640  1.00  0.00     0.068 A 
HETATM   37  C   UNL     1     -42.267  58.834 -56.155  1.00  0.00     0.039 A 
HETATM   38  C   UNL     1     -41.770  57.992 -55.150  1.00  0.00     0.033 A 
BRANCH  36  39
HETATM   39  O   UNL     1     -44.157  59.389 -57.630  1.00  0.00    -0.352 OA
BRANCH  39  40
HETATM   40  C   UNL     1     -45.242  58.778 -58.326  1.00  0.00     0.171 C 
HETATM   41  C   UNL     1     -44.745  58.370 -59.702  1.00  0.00     0.034 C 
ENDBRANCH  39  40
ENDBRANCH  36  39
ENDBRANCH   1  33
TORSDOF 9
ENDMDL
MODEL 3
REMARK VINA RESULT:      -8.3      3.641     10.210
REMARK  9 active torsions:
REMARK  status: ('A' for Active; 'I' for Inactive)
REMARK    1  A    between atoms: C_2  and  O_3 
REMARK    2  A    between atoms: O_3  and  C_4 
REMARK    3  A    between atoms: C_7  and  N_8 
REMARK    4  A    between atoms: C_9  and  S_10 
REMARK    5  A    between atoms: S_10  and  C_11 
REMARK    6  A    between atoms: C_11  and  C_12 
REMARK       I    between atoms: C_12  and  N_13 
REMARK    7  A    between atoms: N_13  and  C_14 
REMARK    8  A    between atoms: C_17  and  S_18 
REMARK    9  A    between atoms: S_18  and  N_19 
ROOT
HETATM    1  N   UNL     1     -42.311  56.372 -55.195  1.00  0.00    -0.256 N 
HETATM    2  C   UNL     1     -42.275  57.602 -54.526  1.00  0.00     0.177 A 
HETATM    3  N   UNL     1     -42.909  58.678 -54.875  1.00  0.00    -0.216 NA
HETATM    4  C   UNL     1     -43.604  58.583 -56.027  1.00  0.00     0.117 A 
HETATM    5  C   UNL     1     -43.691  57.479 -56.839  1.00  0.00     0.076 A 
HETATM    6  C   UNL     1     -43.012  56.264 -56.417  1.00  0.00     0.268 A 
HETATM    7  O   UNL     1     -43.100  55.243 -57.096  1.00  0.00    -0.267 OA
HETATM    8  S   UNL     1     -44.446  59.922 -56.665  1.00  0.00    -0.073 SA
HETATM    9  C   UNL     1     -44.913  59.043 -58.042  1.00  0.00    -0.008 A 
HETATM   10  C   UNL     1     -44.473  57.732 -58.014  1.00  0.00    -0.026 A 
HETATM   11  C   UNL     1     -44.768  56.772 -59.131  1.00  0.00     0.041 C 
HETATM   12  C   UNL     1     -45.869  57.299 -60.067  1.00  0.00     0.005 C 
HETATM   13  C   UNL     1     -45.678  58.786 -60.396  1.00  0.00     0.005 C 
HETATM   14  C   UNL     1     -45.737  59.656 -59.131  1.00  0.00     0.047 C 
ENDROOT
BRANCH   2  15
HETATM   15  S   UNL     1     -41.208  57.848 -53.144  1.00  0.00    -0.082 SA
BRANCH  15  16
HETATM   16  C   UNL     1     -41.442  59.638 -52.935  1.00  0.00     0.185 C 
BRANCH  16  17
HETATM   17  C   UNL     1     -41.954  60.105 -51.571  1.00  0.00     0.231 C 
HETATM   18  N   UNL     1     -43.215  60.656 -51.550  1.00  0.00    -0.327 N 
HETATM   19  H   UNL     1     -43.678  60.730 -52.453  1.00  0.00     0.169 HD
HETATM   20  O   UNL     1     -41.209  60.003 -50.595  1.00  0.00    -0.272 OA
BRANCH  18  21
HETATM   21  C   UNL     1     -43.897  61.258 -50.475  1.00  0.00     0.034 A 
HETATM   22  C   UNL     1     -43.603  62.524 -49.967  1.00  0.00     0.031 A 
HETATM   23  C   UNL     1     -44.364  63.064 -48.922  1.00  0.00     0.027 A 
HETATM   24  C   UNL     1     -45.424  62.331 -48.387  1.00  0.00     0.074 A 
HETATM   25  C   UNL     1     -45.712  61.052 -48.865  1.00  0.00     0.027 A 
HETATM   26  C   UNL     1     -44.951  60.524 -49.911  1.00  0.00     0.031 A 
BRANCH  24  27
HETATM   27  S   UNL     1     -46.386  62.999 -47.064  1.00  0.00     0.239 S 
HETATM   28  O   UNL     1     -45.577  63.046 -45.867  1.00  0.00    -0.206 OA
HETATM   29  O   UNL     1     -47.134  64.139 -47.538  1.00  0.00    -0.206 OA
BRANCH  27  30
HETATM   30  N   UNL     1     -47.517  61.783 -46.809  1.00  0.00    -0.225 NA
HETATM   31  H   UNL     1     -47.095  60.873 -46.992  1.00  0.00     0.136 HD
HETATM   32  H   UNL     1     -47.918  61.876 -45.875  1.00  0.00     0.136 HD
ENDBRANCH  27  30
ENDBRANCH  24  27
ENDBRANCH  18  21
ENDBRANCH  16  17
ENDBRANCH  15  16
ENDBRANCH   2  15
BRANCH   1  33
HETATM   33  C   UNL     1     -41.732  55.168 -54.664  1.00  0.00     0.045 A 
HETATM   34  C   UNL     1     -42.352  54.478 -53.614  1.00  0.00     0.033 A 
HETATM   35  C   UNL     1     -41.758  53.342 -53.055  1.00  0.00     0.039 A 
HETATM   36  C   UNL     1     -40.529  52.876 -53.519  1.00  0.00     0.068 A 
HETATM   37  C   UNL     1     -39.903  53.551 -54.566  1.00  0.00     0.039 A 
HETATM   38  C   UNL     1     -40.496  54.692 -55.126  1.00  0.00     0.033 A 
BRANCH  36  39
HETATM   39  O   UNL     1     -40.050  51.776 -52.868  1.00  0.00    -0.352 OA
BRANCH  39  40
HETATM   40  C   UNL     1     -39.320  50.826 -53.642  1.00  0.00     0.171 C 
HETATM   41  C   UNL     1     -40.323  49.962 -54.387  1.00  0.00     0.034 C 
ENDBRANCH  39  40
ENDBRANCH  36  39
ENDBRANCH   1  33
TORSDOF 9
ENDMDL
MODEL 4
REMARK VINA RESULT:      -8.3      3.674      6.040
REMARK  9 active torsions:
REMARK  status: ('A' for Active; 'I' for Inactive)
REMARK    1  A    between atoms: C_2  and  O_3 
REMARK    2  A    between atoms: O_3  and  C_4 
REMARK    3  A    between atoms: C_7  and  N_8 
REMARK    4  A    between atoms: C_9  and  S_10 
REMARK    5  A    between atoms: S_10  and  C_11 
REMARK    6  A    between atoms: C_11  and  C_12 
REMARK       I    between atoms: C_12  and  N_13 
REMARK    7  A    between atoms: N_13  and  C_14 
REMARK    8  A    between atoms: C_17  and  S_18 
REMARK    9  A    between atoms: S_18  and  N_19 
ROOT
HETATM    1  N   UNL     1     -42.555  55.554 -53.541  1.00  0.00    -0.256 N 
HETATM    2  C   UNL     1     -42.229  55.980 -52.247  1.00  0.00     0.177 A 
HETATM    3  N   UNL     1     -41.453  55.360 -51.413  1.00  0.00    -0.216 NA
HETATM    4  C   UNL     1     -40.989  54.169 -51.843  1.00  0.00     0.117 A 
HETATM    5  C   UNL     1     -41.263  53.573 -53.049  1.00  0.00     0.076 A 
HETATM    6  C   UNL     1     -42.099  54.296 -53.995  1.00  0.00     0.268 A 
HETATM    7  O   UNL     1     -42.334  53.815 -55.101  1.00  0.00    -0.267 OA
HETATM    8  S   UNL     1     -40.006  53.192 -50.848  1.00  0.00    -0.073 SA
HETATM    9  C   UNL     1     -39.960  51.957 -52.014  1.00  0.00    -0.008 A 
HETATM   10  C   UNL     1     -40.648  52.283 -53.168  1.00  0.00    -0.026 A 
HETATM   11  C   UNL     1     -40.741  51.337 -54.331  1.00  0.00     0.041 C 
HETATM   12  C   UNL     1     -39.723  50.190 -54.223  1.00  0.00     0.005 C 
HETATM   13  C   UNL     1     -39.656  49.615 -52.802  1.00  0.00     0.005 C 
HETATM   14  C   UNL     1     -39.216  50.677 -51.783  1.00  0.00     0.047 C 
ENDROOT
BRANCH   2  15
HETATM   15  S   UNL     1     -42.983  57.414 -51.551  1.00  0.00    -0.082 SA
BRANCH  15  16
HETATM   16  C   UNL     1     -41.561  58.542 -51.641  1.00  0.00     0.185 C 
BRANCH  16  17
HETATM   17  C   UNL     1     -41.397  59.332 -52.940  1.00  0.00     0.231 C 
HETATM   18  N   UNL     1     -42.557  59.775 -53.534  1.00  0.00    -0.327 N 
HETATM   19  H   UNL     1     -43.421  59.508 -53.067  1.00  0.00     0.169 HD
HETATM   20  O   UNL     1     -40.264  59.488 -53.396  1.00  0.00    -0.272 OA
BRANCH  18  21
HETATM   21  C   UNL     1     -42.722  60.428 -54.771  1.00  0.00     0.034 A 
HETATM   22  C   UNL     1     -41.913  60.213 -55.887  1.00  0.00     0.031 A 
HETATM   23  C   UNL     1     -42.178  60.875 -57.093  1.00  0.00     0.027 A 
HETATM   24  C   UNL     1     -43.257  61.755 -57.178  1.00  0.00     0.074 A 
HETATM   25  C   UNL     1     -44.057  62.002 -56.062  1.00  0.00     0.027 A 
HETATM   26  C   UNL     1     -43.789  61.333 -54.866  1.00  0.00     0.031 A 
BRANCH  24  27
HETATM   27  S   UNL     1     -43.595  62.601 -58.692  1.00  0.00     0.239 S 
HETATM   28  O   UNL     1     -43.598  64.025 -58.449  1.00  0.00    -0.206 OA
HETATM   29  O   UNL     1     -42.834  61.999 -59.762  1.00  0.00    -0.206 OA
BRANCH  27  30
HETATM   30  N   UNL     1     -45.196  62.178 -58.975  1.00  0.00    -0.225 NA
HETATM   31  H   UNL     1     -45.450  62.404 -59.937  1.00  0.00     0.136 HD
HETATM   32  H   UNL     1     -45.343  61.200 -58.726  1.00  0.00     0.136 HD
ENDBRANCH  27  30
ENDBRANCH  24  27
ENDBRANCH  18  21
ENDBRANCH  16  17
ENDBRANCH  15  16
ENDBRANCH   2  15
BRANCH   1  33
HETATM   33  C   UNL     1     -43.274  56.369 -54.482  1.00  0.00     0.045 A 
HETATM   34  C   UNL     1     -44.550  56.859 -54.177  1.00  0.00     0.033 A 
HETATM   35  C   UNL     1     -45.277  57.598 -55.116  1.00  0.00     0.039 A 
HETATM   36  C   UNL     1     -44.753  57.856 -56.382  1.00  0.00     0.068 A 
HETATM   37  C   UNL     1     -43.482  57.378 -56.697  1.00  0.00     0.039 A 
HETATM   38  C   UNL     1     -42.754  56.634 -55.758  1.00  0.00     0.033 A 
BRANCH  36  39
HETATM   39  O   UNL     1     -45.577  58.565 -57.209  1.00  0.00    -0.352 OA
BRANCH  39  40
HETATM   40  C   UNL     1     -45.433  58.350 -58.612  1.00  0.00     0.171 C 
HETATM   41  C   UNL     1     -46.566  57.446 -59.065  1.00  0.00     0.034 C 
ENDBRANCH  39  40
ENDBRANCH  36  39
ENDBRANCH   1  33
TORSDOF 9
ENDMDL
MODEL 5
REMARK VINA RESULT:      -8.2      3.803      9.505
REMARK  9 active torsions:
REMARK  status: ('A' for Active; 'I' for Inactive)
REMARK    1  A    between atoms: C_2  and  O_3 
REMARK    2  A    between atoms: O_3  and  C_4 
REMARK    3  A    between atoms: C_7  and  N_8 
REMARK    4  A    between atoms: C_9  and  S_10 
REMARK    5  A    between atoms: S_10  and  C_11 
REMARK    6  A    between atoms: C_11  and  C_12 
REMARK       I    between atoms: C_12  and  N_13 
REMARK    7  A    between atoms: N_13  and  C_14 
REMARK    8  A    between atoms: C_17  and  S_18 
REMARK    9  A    between atoms: S_18  and  N_19 
ROOT
HETATM    1  N   UNL     1     -42.264  55.974 -54.676  1.00  0.00    -0.256 N 
HETATM    2  C   UNL     1     -42.235  57.372 -54.597  1.00  0.00     0.177 A 
HETATM    3  N   UNL     1     -42.704  58.195 -55.483  1.00  0.00    -0.216 NA
HETATM    4  C   UNL     1     -43.198  57.617 -56.596  1.00  0.00     0.117 A 
HETATM    5  C   UNL     1     -43.241  56.270 -56.865  1.00  0.00     0.076 A 
HETATM    6  C   UNL     1     -42.752  55.353 -55.848  1.00  0.00     0.268 A 
HETATM    7  O   UNL     1     -42.812  54.140 -56.034  1.00  0.00    -0.267 OA
HETATM    8  S   UNL     1     -43.797  58.554 -57.888  1.00  0.00    -0.073 SA
HETATM    9  C   UNL     1     -44.097  57.168 -58.826  1.00  0.00    -0.008 A 
HETATM   10  C   UNL     1     -43.784  55.995 -58.163  1.00  0.00    -0.026 A 
HETATM   11  C   UNL     1     -43.968  54.649 -58.804  1.00  0.00     0.041 C 
HETATM   12  C   UNL     1     -44.842  54.726 -60.067  1.00  0.00     0.005 C 
HETATM   13  C   UNL     1     -44.468  55.925 -60.950  1.00  0.00     0.005 C 
HETATM   14  C   UNL     1     -44.666  57.256 -60.209  1.00  0.00     0.047 C 
ENDROOT
BRANCH   2  15
HETATM   15  S   UNL     1     -41.403  58.185 -53.272  1.00  0.00    -0.082 SA
BRANCH  15  16
HETATM   16  C   UNL     1     -41.647  59.904 -53.810  1.00  0.00     0.185 C 
BRANCH  16  17
HETATM   17  C   UNL     1     -42.674  60.724 -53.030  1.00  0.00     0.231 C 
HETATM   18  N   UNL     1     -42.679  60.555 -51.664  1.00  0.00    -0.327 N 
HETATM   19  H   UNL     1     -42.015  59.873 -51.303  1.00  0.00     0.169 HD
HETATM   20  O   UNL     1     -43.453  61.443 -53.657  1.00  0.00    -0.272 OA
BRANCH  18  21
HETATM   21  C   UNL     1     -43.567  61.090 -50.711  1.00  0.00     0.034 A 
HETATM   22  C   UNL     1     -44.693  60.424 -50.224  1.00  0.00     0.031 A 
HETATM   23  C   UNL     1     -45.498  61.016 -49.242  1.00  0.00     0.027 A 
HETATM   24  C   UNL     1     -45.172  62.280 -48.748  1.00  0.00     0.074 A 
HETATM   25  C   UNL     1     -44.066  62.970 -49.246  1.00  0.00     0.027 A 
HETATM   26  C   UNL     1     -43.266  62.369 -50.221  1.00  0.00     0.031 A 
BRANCH  24  27
HETATM   27  S   UNL     1     -46.184  63.038 -47.514  1.00  0.00     0.239 S 
HETATM   28  O   UNL     1     -45.466  63.061 -46.260  1.00  0.00    -0.206 OA
HETATM   29  O   UNL     1     -46.819  64.212 -48.066  1.00  0.00    -0.206 OA
BRANCH  27  30
HETATM   30  N   UNL     1     -47.408  61.903 -47.325  1.00  0.00    -0.225 NA
HETATM   31  H   UNL     1     -48.155  62.082 -47.996  1.00  0.00     0.136 HD
HETATM   32  H   UNL     1     -47.017  60.962 -47.381  1.00  0.00     0.136 HD
ENDBRANCH  27  30
ENDBRANCH  24  27
ENDBRANCH  18  21
ENDBRANCH  16  17
ENDBRANCH  15  16
ENDBRANCH   2  15
BRANCH   1  33
HETATM   33  C   UNL     1     -41.892  55.114 -53.586  1.00  0.00     0.045 A 
HETATM   34  C   UNL     1     -40.651  54.463 -53.578  1.00  0.00     0.033 A 
HETATM   35  C   UNL     1     -40.314  53.578 -52.549  1.00  0.00     0.039 A 
HETATM   36  C   UNL     1     -41.209  53.311 -51.514  1.00  0.00     0.068 A 
HETATM   37  C   UNL     1     -42.444  53.955 -51.507  1.00  0.00     0.039 A 
HETATM   38  C   UNL     1     -42.785  54.841 -52.539  1.00  0.00     0.033 A 
BRANCH  36  39
HETATM   39  O   UNL     1     -40.764  52.408 -50.591  1.00  0.00    -0.352 OA
BRANCH  39  40
HETATM   40  C   UNL     1     -39.738  51.508 -51.003  1.00  0.00     0.171 C 
HETATM   41  C   UNL     1     -40.047  50.144 -50.411  1.00  0.00     0.034 C 
ENDBRANCH  39  40
ENDBRANCH  36  39
ENDBRANCH   1  33
TORSDOF 9
ENDMDL
MODEL 6
REMARK VINA RESULT:      -8.0      3.414      4.080
REMARK  9 active torsions:
REMARK  status: ('A' for Active; 'I' for Inactive)
REMARK    1  A    between atoms: C_2  and  O_3 
REMARK    2  A    between atoms: O_3  and  C_4 
REMARK    3  A    between atoms: C_7  and  N_8 
REMARK    4  A    between atoms: C_9  and  S_10 
REMARK    5  A    between atoms: S_10  and  C_11 
REMARK    6  A    between atoms: C_11  and  C_12 
REMARK       I    between atoms: C_12  and  N_13 
REMARK    7  A    between atoms: N_13  and  C_14 
REMARK    8  A    between atoms: C_17  and  S_18 
REMARK    9  A    between atoms: S_18  and  N_19 
ROOT
HETATM    1  N   UNL     1     -41.617  55.820 -52.662  1.00  0.00    -0.256 N 
HETATM    2  C   UNL     1     -41.329  55.626 -54.019  1.00  0.00     0.177 A 
HETATM    3  N   UNL     1     -40.909  54.525 -54.559  1.00  0.00    -0.216 NA
HETATM    4  C   UNL     1     -40.679  53.515 -53.695  1.00  0.00     0.117 A 
HETATM    5  C   UNL     1     -40.843  53.556 -52.332  1.00  0.00     0.076 A 
HETATM    6  C   UNL     1     -41.356  54.782 -51.740  1.00  0.00     0.268 A 
HETATM    7  O   UNL     1     -41.555  54.843 -50.529  1.00  0.00    -0.267 OA
HETATM    8  S   UNL     1     -40.065  52.017 -54.228  1.00  0.00    -0.073 SA
HETATM    9  C   UNL     1     -39.992  51.419 -52.639  1.00  0.00    -0.008 A 
HETATM   10  C   UNL     1     -40.461  52.324 -51.704  1.00  0.00    -0.026 A 
HETATM   11  C   UNL     1     -40.487  52.007 -50.237  1.00  0.00     0.041 C 
HETATM   12  C   UNL     1     -40.288  50.507 -49.967  1.00  0.00     0.005 C 
HETATM   13  C   UNL     1     -39.171  49.912 -50.836  1.00  0.00     0.005 C 
HETATM   14  C   UNL     1     -39.491  50.041 -52.333  1.00  0.00     0.047 C 
ENDROOT
BRANCH   2  15
HETATM   15  S   UNL     1     -41.396  56.971 -55.157  1.00  0.00    -0.082 SA
BRANCH  15  16
HETATM   16  C   UNL     1     -42.678  56.322 -56.271  1.00  0.00     0.185 C 
BRANCH  16  17
HETATM   17  C   UNL     1     -42.856  57.050 -57.604  1.00  0.00     0.231 C 
HETATM   18  N   UNL     1     -41.927  58.023 -57.897  1.00  0.00    -0.327 N 
HETATM   19  H   UNL     1     -41.223  58.188 -57.180  1.00  0.00     0.169 HD
HETATM   20  O   UNL     1     -43.824  56.762 -58.309  1.00  0.00    -0.272 OA
BRANCH  18  21
HETATM   21  C   UNL     1     -41.895  58.915 -58.985  1.00  0.00     0.034 A 
HETATM   22  C   UNL     1     -41.959  58.525 -60.324  1.00  0.00     0.031 A 
HETATM   23  C   UNL     1     -41.967  59.486 -61.343  1.00  0.00     0.027 A 
HETATM   24  C   UNL     1     -41.910  60.842 -61.018  1.00  0.00     0.074 A 
HETATM   25  C   UNL     1     -41.816  61.245 -59.686  1.00  0.00     0.027 A 
HETATM   26  C   UNL     1     -41.815  60.281 -58.676  1.00  0.00     0.031 A 
BRANCH  24  27
HETATM   27  S   UNL     1     -41.911  62.061 -62.296  1.00  0.00     0.239 S 
HETATM   28  O   UNL     1     -43.172  62.767 -62.277  1.00  0.00    -0.206 OA
HETATM   29  O   UNL     1     -40.640  62.745 -62.312  1.00  0.00    -0.206 OA
BRANCH  27  30
HETATM   30  N   UNL     1     -41.936  61.111 -63.681  1.00  0.00    -0.225 NA
HETATM   31  H   UNL     1     -42.900  60.919 -63.954  1.00  0.00     0.136 HD
HETATM   32  H   UNL     1     -41.377  61.552 -64.412  1.00  0.00     0.136 HD
ENDBRANCH  27  30
ENDBRANCH  24  27
ENDBRANCH  18  21
ENDBRANCH  16  17
ENDBRANCH  15  16
ENDBRANCH   2  15
BRANCH   1  33
HETATM   33  C   UNL     1     -42.249  57.005 -52.151  1.00  0.00     0.045 A 
HETATM   34  C   UNL     1     -41.484  58.057 -51.631  1.00  0.00     0.033 A 
HETATM   35  C   UNL     1     -42.098  59.184 -51.076  1.00  0.00     0.039 A 
HETATM   36  C   UNL     1     -43.487  59.283 -51.016  1.00  0.00     0.068 A 
HETATM   37  C   UNL     1     -44.261  58.246 -51.533  1.00  0.00     0.039 A 
HETATM   38  C   UNL     1     -43.646  57.114 -52.088  1.00  0.00     0.033 A 
BRANCH  36  39
HETATM   39  O   UNL     1     -43.956  60.422 -50.425  1.00  0.00    -0.352 OA
BRANCH  39  40
HETATM   40  C   UNL     1     -45.253  60.364 -49.836  1.00  0.00     0.171 C 
HETATM   41  C   UNL     1     -45.367  61.507 -48.842  1.00  0.00     0.034 C 
ENDBRANCH  39  40
ENDBRANCH  36  39
ENDBRANCH   1  33
TORSDOF 9
ENDMDL
MODEL 7
REMARK VINA RESULT:      -8.0      2.997      5.114
REMARK  9 active torsions:
REMARK  status: ('A' for Active; 'I' for Inactive)
REMARK    1  A    between atoms: C_2  and  O_3 
REMARK    2  A    between atoms: O_3  and  C_4 
REMARK    3  A    between atoms: C_7  and  N_8 
REMARK    4  A    between atoms: C_9  and  S_10 
REMARK    5  A    between atoms: S_10  and  C_11 
REMARK    6  A    between atoms: C_11  and  C_12 
REMARK       I    between atoms: C_12  and  N_13 
REMARK    7  A    between atoms: N_13  and  C_14 
REMARK    8  A    between atoms: C_17  and  S_18 
REMARK    9  A    between atoms: S_18  and  N_19 
ROOT
HETATM    1  N   UNL     1     -42.280  56.394 -54.825  1.00  0.00    -0.256 N 
HETATM    2  C   UNL     1     -42.684  57.183 -53.740  1.00  0.00     0.177 A 
HETATM    3  N   UNL     1     -42.444  56.938 -52.489  1.00  0.00    -0.216 NA
HETATM    4  C   UNL     1     -41.800  55.778 -52.247  1.00  0.00     0.117 A 
HETATM    5  C   UNL     1     -41.394  54.860 -53.184  1.00  0.00     0.076 A 
HETATM    6  C   UNL     1     -41.630  55.163 -54.587  1.00  0.00     0.268 A 
HETATM    7  O   UNL     1     -41.244  54.385 -55.457  1.00  0.00    -0.267 OA
HETATM    8  S   UNL     1     -41.460  55.272 -50.655  1.00  0.00    -0.073 SA
HETATM    9  C   UNL     1     -40.788  53.811 -51.204  1.00  0.00    -0.008 A 
HETATM   10  C   UNL     1     -40.781  53.710 -52.584  1.00  0.00    -0.026 A 
HETATM   11  C   UNL     1     -40.236  52.501 -53.288  1.00  0.00     0.041 C 
HETATM   12  C   UNL     1     -39.400  51.616 -52.349  1.00  0.00     0.005 C 
HETATM   13  C   UNL     1     -40.072  51.438 -50.980  1.00  0.00     0.005 C 
HETATM   14  C   UNL     1     -40.247  52.783 -50.259  1.00  0.00     0.047 C 
ENDROOT
BRANCH   2  15
HETATM   15  S   UNL     1     -43.720  58.589 -53.982  1.00  0.00    -0.082 SA
BRANCH  15  16
HETATM   16  C   UNL     1     -45.082  57.776 -54.868  1.00  0.00     0.185 C 
BRANCH  16  17
HETATM   17  C   UNL     1     -45.529  58.427 -56.178  1.00  0.00     0.231 C 
HETATM   18  N   UNL     1     -46.247  57.630 -57.041  1.00  0.00    -0.327 N 
HETATM   19  H   UNL     1     -46.387  56.668 -56.738  1.00  0.00     0.169 HD
HETATM   20  O   UNL     1     -45.192  59.590 -56.403  1.00  0.00    -0.272 OA
BRANCH  18  21
HETATM   21  C   UNL     1     -46.694  57.919 -58.344  1.00  0.00     0.034 A 
HETATM   22  C   UNL     1     -46.522  57.074 -59.441  1.00  0.00     0.031 A 
HETATM   23  C   UNL     1     -47.041  57.423 -60.695  1.00  0.00     0.027 A 
HETATM   24  C   UNL     1     -47.733  58.625 -60.848  1.00  0.00     0.074 A 
HETATM   25  C   UNL     1     -47.887  59.494 -59.767  1.00  0.00     0.027 A 
HETATM   26  C   UNL     1     -47.372  59.135 -58.520  1.00  0.00     0.031 A 
BRANCH  24  27
HETATM   27  S   UNL     1     -48.383  59.079 -62.427  1.00  0.00     0.239 S 
HETATM   28  O   UNL     1     -49.799  59.341 -62.298  1.00  0.00    -0.206 OA
HETATM   29  O   UNL     1     -47.481  60.001 -63.074  1.00  0.00    -0.206 OA
BRANCH  27  30
HETATM   30  N   UNL     1     -48.256  57.638 -63.281  1.00  0.00    -0.225 NA
HETATM   31  H   UNL     1     -49.186  57.269 -63.480  1.00  0.00     0.136 HD
HETATM   32  H   UNL     1     -47.679  57.779 -64.110  1.00  0.00     0.136 HD
ENDBRANCH  27  30
ENDBRANCH  24  27
ENDBRANCH  18  21
ENDBRANCH  16  17
ENDBRANCH  15  16
ENDBRANCH   2  15
BRANCH   1  33
HETATM   33  C   UNL     1     -42.420  56.806 -56.195  1.00  0.00     0.045 A 
HETATM   34  C   UNL     1     -42.989  55.949 -57.146  1.00  0.00     0.033 A 
HETATM   35  C   UNL     1     -43.068  56.324 -58.491  1.00  0.00     0.039 A 
HETATM   36  C   UNL     1     -42.572  57.554 -58.920  1.00  0.00     0.068 A 
HETATM   37  C   UNL     1     -42.007  58.418 -57.984  1.00  0.00     0.039 A 
HETATM   38  C   UNL     1     -41.925  58.042 -56.635  1.00  0.00     0.033 A 
BRANCH  36  39
HETATM   39  O   UNL     1     -42.688  57.782 -60.262  1.00  0.00    -0.352 OA
BRANCH  39  40
HETATM   40  C   UNL     1     -42.615  59.137 -60.701  1.00  0.00     0.171 C 
HETATM   41  C   UNL     1     -44.034  59.653 -60.864  1.00  0.00     0.034 C 
ENDBRANCH  39  40
ENDBRANCH  36  39
ENDBRANCH   1  33
TORSDOF 9
ENDMDL
MODEL 8
REMARK VINA RESULT:      -7.9     18.219     21.343
REMARK  9 active torsions:
REMARK  status: ('A' for Active; 'I' for Inactive)
REMARK    1  A    between atoms: C_2  and  O_3 
REMARK    2  A    between atoms: O_3  and  C_4 
REMARK    3  A    between atoms: C_7  and  N_8 
REMARK    4  A    between atoms: C_9  and  S_10 
REMARK    5  A    between atoms: S_10  and  C_11 
REMARK    6  A    between atoms: C_11  and  C_12 
REMARK       I    between atoms: C_12  and  N_13 
REMARK    7  A    between atoms: N_13  and  C_14 
REMARK    8  A    between atoms: C_17  and  S_18 
REMARK    9  A    between atoms: S_18  and  N_19 
ROOT
HETATM    1  N   UNL     1     -32.800  38.708 -49.240  1.00  0.00    -0.256 N 
HETATM    2  C   UNL     1     -33.927  38.006 -48.792  1.00  0.00     0.177 A 
HETATM    3  N   UNL     1     -34.200  37.710 -47.559  1.00  0.00    -0.216 NA
HETATM    4  C   UNL     1     -33.259  38.071 -46.663  1.00  0.00     0.117 A 
HETATM    5  C   UNL     1     -32.071  38.702 -46.937  1.00  0.00     0.076 A 
HETATM    6  C   UNL     1     -31.792  39.068 -48.317  1.00  0.00     0.268 A 
HETATM    7  O   UNL     1     -30.758  39.671 -48.596  1.00  0.00    -0.267 OA
HETATM    8  S   UNL     1     -33.429  37.704 -45.007  1.00  0.00    -0.073 SA
HETATM    9  C   UNL     1     -31.905  38.364 -44.647  1.00  0.00    -0.008 A 
HETATM   10  C   UNL     1     -31.277  38.896 -45.758  1.00  0.00    -0.026 A 
HETATM   11  C   UNL     1     -29.918  39.531 -45.674  1.00  0.00     0.041 C 
HETATM   12  C   UNL     1     -29.510  39.827 -44.221  1.00  0.00     0.005 C 
HETATM   13  C   UNL     1     -29.845  38.659 -43.282  1.00  0.00     0.005 C 
HETATM   14  C   UNL     1     -31.354  38.372 -43.255  1.00  0.00     0.047 C 
ENDROOT
BRANCH   2  15
HETATM   15  S   UNL     1     -35.075  37.316 -49.938  1.00  0.00    -0.082 SA
BRANCH  15  16
HETATM   16  C   UNL     1     -36.163  38.759 -50.137  1.00  0.00     0.185 C 
BRANCH  16  17
HETATM   17  C   UNL     1     -36.778  38.964 -51.522  1.00  0.00     0.231 C 
HETATM   18  N   UNL     1     -35.912  39.341 -52.524  1.00  0.00    -0.327 N 
HETATM   19  H   UNL     1     -34.944  39.478 -52.240  1.00  0.00     0.169 HD
HETATM   20  O   UNL     1     -37.994  38.825 -51.653  1.00  0.00    -0.272 OA
BRANCH  18  21
HETATM   21  C   UNL     1     -36.203  39.697 -53.854  1.00  0.00     0.034 A 
HETATM   22  C   UNL     1     -36.570  40.980 -54.263  1.00  0.00     0.031 A 
HETATM   23  C   UNL     1     -36.799  41.255 -55.617  1.00  0.00     0.027 A 
HETATM   24  C   UNL     1     -36.659  40.239 -56.564  1.00  0.00     0.074 A 
HETATM   25  C   UNL     1     -36.321  38.945 -56.167  1.00  0.00     0.027 A 
HETATM   26  C   UNL     1     -36.090  38.682 -54.815  1.00  0.00     0.031 A 
BRANCH  24  27
HETATM   27  S   UNL     1     -36.953  40.574 -58.274  1.00  0.00     0.239 S 
HETATM   28  O   UNL     1     -36.068  39.759 -59.075  1.00  0.00    -0.206 OA
HETATM   29  O   UNL     1     -38.375  40.642 -58.515  1.00  0.00    -0.206 OA
BRANCH  27  30
HETATM   30  N   UNL     1     -36.388  42.150 -58.420  1.00  0.00    -0.225 NA
HETATM   31  H   UNL     1     -36.989  42.784 -57.895  1.00  0.00     0.136 HD
HETATM   32  H   UNL     1     -35.405  42.189 -58.151  1.00  0.00     0.136 HD
ENDBRANCH  27  30
ENDBRANCH  24  27
ENDBRANCH  18  21
ENDBRANCH  16  17
ENDBRANCH  15  16
ENDBRANCH   2  15
BRANCH   1  33
HETATM   33  C   UNL     1     -32.640  39.161 -50.594  1.00  0.00     0.045 A 
HETATM   34  C   UNL     1     -32.087  38.322 -51.570  1.00  0.00     0.033 A 
HETATM   35  C   UNL     1     -31.873  38.782 -52.873  1.00  0.00     0.039 A 
HETATM   36  C   UNL     1     -32.191  40.092 -53.229  1.00  0.00     0.068 A 
HETATM   37  C   UNL     1     -32.746  40.937 -52.269  1.00  0.00     0.039 A 
HETATM   38  C   UNL     1     -32.959  40.477 -50.962  1.00  0.00     0.033 A 
BRANCH  36  39
HETATM   39  O   UNL     1     -31.906  40.419 -54.524  1.00  0.00    -0.352 OA
BRANCH  39  40
HETATM   40  C   UNL     1     -33.004  40.766 -55.365  1.00  0.00     0.171 C 
HETATM   41  C   UNL     1     -32.760  40.150 -56.731  1.00  0.00     0.034 C 
ENDBRANCH  39  40
ENDBRANCH  36  39
ENDBRANCH   1  33
TORSDOF 9
ENDMDL
MODEL 9
REMARK VINA RESULT:      -7.9      4.530      9.990
REMARK  9 active torsions:
REMARK  status: ('A' for Active; 'I' for Inactive)
REMARK    1  A    between atoms: C_2  and  O_3 
REMARK    2  A    between atoms: O_3  and  C_4 
REMARK    3  A    between atoms: C_7  and  N_8 
REMARK    4  A    between atoms: C_9  and  S_10 
REMARK    5  A    between atoms: S_10  and  C_11 
REMARK    6  A    between atoms: C_11  and  C_12 
REMARK       I    between atoms: C_12  and  N_13 
REMARK    7  A    between atoms: N_13  and  C_14 
REMARK    8  A    between atoms: C_17  and  S_18 
REMARK    9  A    between atoms: S_18  and  N_19 
ROOT
HETATM    1  N   UNL     1     -43.731  59.156 -52.970  1.00  0.00    -0.256 N 
HETATM    2  C   UNL     1     -42.990  59.280 -51.788  1.00  0.00     0.177 A 
HETATM    3  N   UNL     1     -43.321  59.987 -50.753  1.00  0.00    -0.216 NA
HETATM    4  C   UNL     1     -44.456  60.703 -50.887  1.00  0.00     0.117 A 
HETATM    5  C   UNL     1     -45.264  60.749 -51.997  1.00  0.00     0.076 A 
HETATM    6  C   UNL     1     -44.908  59.920 -53.139  1.00  0.00     0.268 A 
HETATM    7  O   UNL     1     -45.628  59.903 -54.134  1.00  0.00    -0.267 OA
HETATM    8  S   UNL     1     -45.005  61.734 -49.645  1.00  0.00    -0.073 SA
HETATM    9  C   UNL     1     -46.313  62.267 -50.591  1.00  0.00    -0.008 A 
HETATM   10  C   UNL     1     -46.367  61.649 -51.826  1.00  0.00    -0.026 A 
HETATM   11  C   UNL     1     -47.440  61.970 -52.827  1.00  0.00     0.041 C 
HETATM   12  C   UNL     1     -48.606  62.746 -52.193  1.00  0.00     0.005 C 
HETATM   13  C   UNL     1     -48.113  63.854 -51.252  1.00  0.00     0.005 C 
HETATM   14  C   UNL     1     -47.293  63.280 -50.086  1.00  0.00     0.047 C 
ENDROOT
BRANCH   2  15
HETATM   15  S   UNL     1     -41.393  58.548 -51.642  1.00  0.00    -0.082 SA
BRANCH  15  16
HETATM   16  C   UNL     1     -41.753  57.375 -50.301  1.00  0.00     0.185 C 
BRANCH  16  17
HETATM   17  C   UNL     1     -41.745  55.891 -50.671  1.00  0.00     0.231 C 
HETATM   18  N   UNL     1     -40.633  55.436 -51.342  1.00  0.00    -0.327 N 
HETATM   19  H   UNL     1     -39.929  56.140 -51.555  1.00  0.00     0.169 HD
HETATM   20  O   UNL     1     -42.733  55.210 -50.394  1.00  0.00    -0.272 OA
BRANCH  18  21
HETATM   21  C   UNL     1     -40.395  54.163 -51.893  1.00  0.00     0.034 A 
HETATM   22  C   UNL     1     -39.891  53.076 -51.176  1.00  0.00     0.031 A 
HETATM   23  C   UNL     1     -39.728  51.831 -51.796  1.00  0.00     0.027 A 
HETATM   24  C   UNL     1     -40.070  51.676 -53.141  1.00  0.00     0.074 A 
HETATM   25  C   UNL     1     -40.546  52.760 -53.878  1.00  0.00     0.027 A 
HETATM   26  C   UNL     1     -40.712  53.997 -53.249  1.00  0.00     0.031 A 
BRANCH  24  27
HETATM   27  S   UNL     1     -39.859  50.112 -53.935  1.00  0.00     0.239 S 
HETATM   28  O   UNL     1     -41.112  49.714 -54.537  1.00  0.00    -0.206 OA
HETATM   29  O   UNL     1     -38.613  50.103 -54.662  1.00  0.00    -0.206 OA
BRANCH  27  30
HETATM   30  N   UNL     1     -39.631  49.086 -52.624  1.00  0.00    -0.225 NA
HETATM   31  H   UNL     1     -39.064  49.550 -51.914  1.00  0.00     0.136 HD
HETATM   32  H   UNL     1     -40.535  48.756 -52.283  1.00  0.00     0.136 HD
ENDBRANCH  27  30
ENDBRANCH  24  27
ENDBRANCH  18  21
ENDBRANCH  16  17
ENDBRANCH  15  16
ENDBRANCH   2  15
BRANCH   1  33
HETATM   33  C   UNL     1     -43.404  58.220 -54.011  1.00  0.00     0.045 A 
HETATM   34  C   UNL     1     -42.717  58.637 -55.159  1.00  0.00     0.033 A 
HETATM   35  C   UNL     1     -42.454  57.742 -56.201  1.00  0.00     0.039 A 
HETATM   36  C   UNL     1     -42.879  56.416 -56.128  1.00  0.00     0.068 A 
HETATM   37  C   UNL     1     -43.559  55.987 -54.990  1.00  0.00     0.039 A 
HETATM   38  C   UNL     1     -43.827  56.884 -53.946  1.00  0.00     0.033 A 
BRANCH  36  39
HETATM   39  O   UNL     1     -42.580  55.658 -57.224  1.00  0.00    -0.352 OA
BRANCH  39  40
HETATM   40  C   UNL     1     -43.484  55.721 -58.325  1.00  0.00     0.171 C 
HETATM   41  C   UNL     1     -42.668  55.938 -59.588  1.00  0.00     0.034 C 
ENDBRANCH  39  40
ENDBRANCH  36  39
ENDBRANCH   1  33
TORSDOF 9
ENDMDL
MODEL 10
REMARK VINA RESULT:      -7.9      1.537      2.068
REMARK  9 active torsions:
REMARK  status: ('A' for Active; 'I' for Inactive)
REMARK    1  A    between atoms: C_2  and  O_3 
REMARK    2  A    between atoms: O_3  and  C_4 
REMARK    3  A    between atoms: C_7  and  N_8 
REMARK    4  A    between atoms: C_9  and  S_10 
REMARK    5  A    between atoms: S_10  and  C_11 
REMARK    6  A    between atoms: C_11  and  C_12 
REMARK       I    between atoms: C_12  and  N_13 
REMARK    7  A    between atoms: N_13  and  C_14 
REMARK    8  A    between atoms: C_17  and  S_18 
REMARK    9  A    between atoms: S_18  and  N_19 
ROOT
HETATM    1  N   UNL     1     -41.762  55.809 -52.852  1.00  0.00    -0.256 N 
HETATM    2  C   UNL     1     -41.621  55.554 -54.222  1.00  0.00     0.177 A 
HETATM    3  N   UNL     1     -41.261  54.427 -54.754  1.00  0.00    -0.216 NA
HETATM    4  C   UNL     1     -40.940  53.456 -53.874  1.00  0.00     0.117 A 
HETATM    5  C   UNL     1     -40.957  53.559 -52.505  1.00  0.00     0.076 A 
HETATM    6  C   UNL     1     -41.403  54.812 -51.917  1.00  0.00     0.268 A 
HETATM    7  O   UNL     1     -41.471  54.929 -50.696  1.00  0.00    -0.267 OA
HETATM    8  S   UNL     1     -40.387  51.932 -54.402  1.00  0.00    -0.073 SA
HETATM    9  C   UNL     1     -40.144  51.406 -52.804  1.00  0.00    -0.008 A 
HETATM   10  C   UNL     1     -40.510  52.354 -51.867  1.00  0.00    -0.026 A 
HETATM   11  C   UNL     1     -40.378  52.104 -50.392  1.00  0.00     0.041 C 
HETATM   12  C   UNL     1     -40.151  50.616 -50.078  1.00  0.00     0.005 C 
HETATM   13  C   UNL     1     -39.134  49.977 -51.034  1.00  0.00     0.005 C 
HETATM   14  C   UNL     1     -39.613  50.041 -52.492  1.00  0.00     0.047 C 
ENDROOT
BRANCH   2  15
HETATM   15  S   UNL     1     -41.810  56.846 -55.406  1.00  0.00    -0.082 SA
BRANCH  15  16
HETATM   16  C   UNL     1     -42.939  56.002 -56.553  1.00  0.00     0.185 C 
BRANCH  16  17
HETATM   17  C   UNL     1     -43.495  56.842 -57.704  1.00  0.00     0.231 C 
HETATM   18  N   UNL     1     -44.865  56.962 -57.765  1.00  0.00    -0.327 N 
HETATM   19  H   UNL     1     -45.383  56.452 -57.052  1.00  0.00     0.169 HD
HETATM   20  O   UNL     1     -42.706  57.318 -58.521  1.00  0.00    -0.272 OA
BRANCH  18  21
HETATM   21  C   UNL     1     -45.654  57.576 -58.756  1.00  0.00     0.034 A 
HETATM   22  C   UNL     1     -46.320  56.887 -59.771  1.00  0.00     0.031 A 
HETATM   23  C   UNL     1     -47.121  57.577 -60.690  1.00  0.00     0.027 A 
HETATM   24  C   UNL     1     -47.254  58.963 -60.590  1.00  0.00     0.074 A 
HETATM   25  C   UNL     1     -46.571  59.669 -59.598  1.00  0.00     0.027 A 
HETATM   26  C   UNL     1     -45.780  58.971 -58.683  1.00  0.00     0.031 A 
BRANCH  24  27
HETATM   27  S   UNL     1     -48.256  59.844 -61.748  1.00  0.00     0.239 S 
HETATM   28  O   UNL     1     -49.566  59.235 -61.801  1.00  0.00    -0.206 OA
HETATM   29  O   UNL     1     -48.068  61.263 -61.568  1.00  0.00    -0.206 OA
BRANCH  27  30
HETATM   30  N   UNL     1     -47.513  59.465 -63.207  1.00  0.00    -0.225 NA
HETATM   31  H   UNL     1     -47.924  58.616 -63.596  1.00  0.00     0.136 HD
HETATM   32  H   UNL     1     -47.551  60.270 -63.832  1.00  0.00     0.136 HD
ENDBRANCH  27  30
ENDBRANCH  24  27
ENDBRANCH  18  21
ENDBRANCH  16  17
ENDBRANCH  15  16
ENDBRANCH   2  15
BRANCH   1  33
HETATM   33  C   UNL     1     -42.334  57.020 -52.330  1.00  0.00     0.045 A 
HETATM   34  C   UNL     1     -41.516  58.078 -51.914  1.00  0.00     0.033 A 
HETATM   35  C   UNL     1     -42.069  59.231 -51.348  1.00  0.00     0.039 A 
HETATM   36  C   UNL     1     -43.447  59.350 -51.172  1.00  0.00     0.068 A 
HETATM   37  C   UNL     1     -44.273  58.307 -51.586  1.00  0.00     0.039 A 
HETATM   38  C   UNL     1     -43.720  57.149 -52.151  1.00  0.00     0.033 A 
BRANCH  36  39
HETATM   39  O   UNL     1     -43.850  60.515 -50.584  1.00  0.00    -0.352 OA
BRANCH  39  40
HETATM   40  C   UNL     1     -45.229  60.625 -50.236  1.00  0.00     0.171 C 
HETATM   41  C   UNL     1     -45.314  60.939 -48.753  1.00  0.00     0.034 C 
ENDBRANCH  39  40
ENDBRANCH  36  39
ENDBRANCH   1  33
TORSDOF 9
ENDMDL
