MODEL 1
REMARK VINA RESULT:      -8.8      0.000      0.000
REMARK  4 active torsions:
REMARK  status: ('A' for Active; 'I' for Inactive)
REMARK    1  A    between atoms: C_6  and  C_7 
REMARK       I    between atoms: C_7  and  N_8 
REMARK    2  A    between atoms: N_8  and  C_9 
REMARK    3  A    between atoms: C_16  and  C_17 
REMARK       I    between atoms: C_17  and  N_18 
REMARK    4  A    between atoms: C_25  and  O_26 
ROOT
HETATM    1  C   UNL     1     -42.490  55.956 -55.285  1.00  0.00     0.259 C 
HETATM    2  N   UNL     1     -41.229  55.457 -55.019  1.00  0.00    -0.323 N 
HETATM    3  O   UNL     1     -43.532  55.565 -54.775  1.00  0.00    -0.267 OA
HETATM    4  H   UNL     1     -40.457  55.931 -55.463  1.00  0.00     0.169 HD
ENDROOT
BRANCH   2   5
HETATM    5  C   UNL     1     -40.880  54.415 -54.130  1.00  0.00     0.036 A 
HETATM    6  C   UNL     1     -41.053  54.481 -52.741  1.00  0.00     0.046 A 
HETATM    7  C   UNL     1     -40.645  53.396 -51.934  1.00  0.00     0.030 A 
HETATM    8  C   UNL     1     -40.100  52.274 -52.543  1.00  0.00     0.063 A 
HETATM    9  C   UNL     1     -40.621  53.106 -50.535  1.00  0.00     0.156 A 
HETATM   10  N   UNL     1     -39.817  51.408 -51.524  1.00  0.00    -0.277 N 
HETATM   11  C   UNL     1     -39.924  52.168 -53.923  1.00  0.00     0.034 A 
HETATM   12  H   UNL     1     -39.413  50.482 -51.599  1.00  0.00     0.189 HD
HETATM   13  N   UNL     1     -40.110  51.876 -50.300  1.00  0.00    -0.168 NA
HETATM   14  C   UNL     1     -40.316  53.265 -54.701  1.00  0.00     0.032 A 
BRANCH   9  15
HETATM   15  C   UNL     1     -41.057  53.973 -49.431  1.00  0.00     0.270 C 
HETATM   16  N   UNL     1     -40.122  54.135 -48.444  1.00  0.00    -0.365 N 
HETATM   17  H   UNL     1     -39.224  53.675 -48.546  1.00  0.00     0.159 HD
HETATM   18  H   UNL     1     -40.324  54.733 -47.660  1.00  0.00     0.159 HD
HETATM   19  O   UNL     1     -42.148  54.528 -49.368  1.00  0.00    -0.266 OA
ENDBRANCH   9  15
ENDBRANCH   2   5
BRANCH   1  20
HETATM   20  C   UNL     1     -42.499  57.067 -56.234  1.00  0.00     0.074 A 
HETATM   21  C   UNL     1     -42.188  58.373 -55.874  1.00  0.00     0.066 A 
HETATM   22  C   UNL     1     -41.805  59.006 -54.592  1.00  0.00     0.078 C 
HETATM   23  O   UNL     1     -42.241  59.198 -56.953  1.00  0.00    -0.314 OA
HETATM   24  C   UNL     1     -42.619  58.445 -58.015  1.00  0.00     0.087 A 
HETATM   25  C   UNL     1     -42.814  57.122 -57.636  1.00  0.00     0.019 A 
HETATM   26  C   UNL     1     -42.799  58.931 -59.307  1.00  0.00     0.041 A 
HETATM   27  C   UNL     1     -43.261  56.214 -58.627  1.00  0.00     0.052 A 
HETATM   28  C   UNL     1     -43.439  56.665 -59.945  1.00  0.00     0.069 A 
HETATM   29  C   UNL     1     -43.210  58.006 -60.269  1.00  0.00     0.039 A 
BRANCH  28  30
HETATM   30  O   UNL     1     -43.846  55.896 -61.002  1.00  0.00    -0.356 OA
HETATM   31  C   UNL     1     -44.956  55.034 -60.791  1.00  0.00     0.210 C 
ENDBRANCH  28  30
ENDBRANCH   1  20
TORSDOF 4
ENDMDL
MODEL 2
REMARK VINA RESULT:      -8.6      2.680      8.320
REMARK  4 active torsions:
REMARK  status: ('A' for Active; 'I' for Inactive)
REMARK    1  A    between atoms: C_6  and  C_7 
REMARK       I    between atoms: C_7  and  N_8 
REMARK    2  A    between atoms: N_8  and  C_9 
REMARK    3  A    between atoms: C_16  and  C_17 
REMARK       I    between atoms: C_17  and  N_18 
REMARK    4  A    between atoms: C_25  and  O_26 
ROOT
HETATM    1  C   UNL     1     -42.991  55.160 -54.159  1.00  0.00     0.259 C 
HETATM    2  N   UNL     1     -42.190  55.922 -54.988  1.00  0.00    -0.323 N 
HETATM    3  O   UNL     1     -44.173  54.903 -54.350  1.00  0.00    -0.267 OA
HETATM    4  H   UNL     1     -41.215  55.985 -54.735  1.00  0.00     0.169 HD
ENDROOT
BRANCH   2   5
HETATM    5  C   UNL     1     -42.552  56.555 -56.199  1.00  0.00     0.036 A 
HETATM    6  C   UNL     1     -43.167  55.897 -57.273  1.00  0.00     0.046 A 
HETATM    7  C   UNL     1     -43.464  56.613 -58.454  1.00  0.00     0.030 A 
HETATM    8  C   UNL     1     -43.158  57.966 -58.513  1.00  0.00     0.063 A 
HETATM    9  C   UNL     1     -44.031  56.306 -59.729  1.00  0.00     0.156 A 
HETATM   10  N   UNL     1     -43.563  58.377 -59.752  1.00  0.00    -0.277 N 
HETATM   11  C   UNL     1     -42.557  58.657 -57.460  1.00  0.00     0.034 A 
HETATM   12  H   UNL     1     -43.499  59.310 -60.141  1.00  0.00     0.189 HD
HETATM   13  N   UNL     1     -44.087  57.405 -60.516  1.00  0.00    -0.168 NA
HETATM   14  C   UNL     1     -42.253  57.921 -56.307  1.00  0.00     0.032 A 
BRANCH   9  15
HETATM   15  C   UNL     1     -44.502  55.000 -60.210  1.00  0.00     0.270 C 
HETATM   16  N   UNL     1     -44.745  54.092 -59.215  1.00  0.00    -0.365 N 
HETATM   17  H   UNL     1     -44.603  54.377 -58.252  1.00  0.00     0.159 HD
HETATM   18  H   UNL     1     -45.095  53.177 -59.449  1.00  0.00     0.159 HD
HETATM   19  O   UNL     1     -44.683  54.713 -61.388  1.00  0.00    -0.266 OA
ENDBRANCH   9  15
ENDBRANCH   2   5
BRANCH   1  20
HETATM   20  C   UNL     1     -42.292  54.616 -52.997  1.00  0.00     0.074 A 
HETATM   21  C   UNL     1     -42.454  55.116 -51.711  1.00  0.00     0.066 A 
HETATM   22  C   UNL     1     -43.266  56.220 -51.149  1.00  0.00     0.078 C 
HETATM   23  O   UNL     1     -41.716  54.407 -50.818  1.00  0.00    -0.314 OA
HETATM   24  C   UNL     1     -41.040  53.462 -51.517  1.00  0.00     0.087 A 
HETATM   25  C   UNL     1     -41.336  53.548 -52.873  1.00  0.00     0.019 A 
HETATM   26  C   UNL     1     -40.162  52.539 -50.958  1.00  0.00     0.041 A 
HETATM   27  C   UNL     1     -40.669  52.657 -53.749  1.00  0.00     0.052 A 
HETATM   28  C   UNL     1     -39.786  51.702 -53.219  1.00  0.00     0.069 A 
HETATM   29  C   UNL     1     -39.543  51.653 -51.842  1.00  0.00     0.039 A 
BRANCH  28  30
HETATM   30  O   UNL     1     -39.092  50.770 -53.943  1.00  0.00    -0.356 OA
HETATM   31  C   UNL     1     -39.851  49.791 -54.641  1.00  0.00     0.210 C 
ENDBRANCH  28  30
ENDBRANCH   1  20
TORSDOF 4
ENDMDL
MODEL 3
REMARK VINA RESULT:      -8.5      1.791      2.734
REMARK  4 active torsions:
REMARK  status: ('A' for Active; 'I' for Inactive)
REMARK    1  A    between atoms: C_6  and  C_7 
REMARK       I    between atoms: C_7  and  N_8 
REMARK    2  A    between atoms: N_8  and  C_9 
REMARK    3  A    between atoms: C_16  and  C_17 
REMARK       I    between atoms: C_17  and  N_18 
REMARK    4  A    between atoms: C_25  and  O_26 
ROOT
HETATM    1  C   UNL     1     -42.505  55.844 -55.221  1.00  0.00     0.259 C 
HETATM    2  N   UNL     1     -41.240  55.542 -54.755  1.00  0.00    -0.323 N 
HETATM    3  O   UNL     1     -43.545  55.312 -54.851  1.00  0.00    -0.267 OA
HETATM    4  H   UNL     1     -40.486  56.118 -55.101  1.00  0.00     0.169 HD
ENDROOT
BRANCH   2   5
HETATM    5  C   UNL     1     -40.880  54.581 -53.783  1.00  0.00     0.036 A 
HETATM    6  C   UNL     1     -40.545  53.254 -54.083  1.00  0.00     0.046 A 
HETATM    7  C   UNL     1     -40.227  52.360 -53.035  1.00  0.00     0.030 A 
HETATM    8  C   UNL     1     -40.233  52.828 -51.728  1.00  0.00     0.063 A 
HETATM    9  C   UNL     1     -39.882  50.977 -52.931  1.00  0.00     0.156 A 
HETATM   10  N   UNL     1     -39.884  51.756 -50.956  1.00  0.00    -0.277 N 
HETATM   11  C   UNL     1     -40.550  54.146 -51.394  1.00  0.00     0.034 A 
HETATM   12  H   UNL     1     -39.782  51.732 -49.948  1.00  0.00     0.189 HD
HETATM   13  N   UNL     1     -39.672  50.622 -51.643  1.00  0.00    -0.168 NA
HETATM   14  C   UNL     1     -40.882  55.008 -52.447  1.00  0.00     0.032 A 
BRANCH   9  15
HETATM   15  C   UNL     1     -39.765  49.998 -54.020  1.00  0.00     0.270 C 
HETATM   16  N   UNL     1     -40.921  49.807 -54.728  1.00  0.00    -0.365 N 
HETATM   17  H   UNL     1     -41.741  50.344 -54.472  1.00  0.00     0.159 HD
HETATM   18  H   UNL     1     -40.928  49.172 -55.509  1.00  0.00     0.159 HD
HETATM   19  O   UNL     1     -38.738  49.392 -54.307  1.00  0.00    -0.266 OA
ENDBRANCH   9  15
ENDBRANCH   2   5
BRANCH   1  20
HETATM   20  C   UNL     1     -42.533  56.923 -56.205  1.00  0.00     0.074 A 
HETATM   21  C   UNL     1     -42.244  58.245 -55.887  1.00  0.00     0.066 A 
HETATM   22  C   UNL     1     -41.871  58.926 -54.627  1.00  0.00     0.078 C 
HETATM   23  O   UNL     1     -42.310  59.034 -56.992  1.00  0.00    -0.314 OA
HETATM   24  C   UNL     1     -42.675  58.241 -58.029  1.00  0.00     0.087 A 
HETATM   25  C   UNL     1     -42.848  56.928 -57.608  1.00  0.00     0.019 A 
HETATM   26  C   UNL     1     -42.863  58.682 -59.336  1.00  0.00     0.041 A 
HETATM   27  C   UNL     1     -43.280  55.981 -58.569  1.00  0.00     0.052 A 
HETATM   28  C   UNL     1     -43.466  56.387 -59.900  1.00  0.00     0.069 A 
HETATM   29  C   UNL     1     -43.259  57.720 -60.268  1.00  0.00     0.039 A 
BRANCH  28  30
HETATM   30  O   UNL     1     -43.860  55.577 -60.932  1.00  0.00    -0.356 OA
HETATM   31  C   UNL     1     -45.242  55.253 -61.014  1.00  0.00     0.210 C 
ENDBRANCH  28  30
ENDBRANCH   1  20
TORSDOF 4
ENDMDL
MODEL 4
REMARK VINA RESULT:      -8.1      2.789      8.391
REMARK  4 active torsions:
REMARK  status: ('A' for Active; 'I' for Inactive)
REMARK    1  A    between atoms: C_6  and  C_7 
REMARK       I    between atoms: C_7  and  N_8 
REMARK    2  A    between atoms: N_8  and  C_9 
REMARK    3  A    between atoms: C_16  and  C_17 
REMARK       I    between atoms: C_17  and  N_18 
REMARK    4  A    between atoms: C_25  and  O_26 
ROOT
HETATM    1  C   UNL     1     -42.517  56.112 -53.812  1.00  0.00     0.259 C 
HETATM    2  N   UNL     1     -41.717  56.927 -54.590  1.00  0.00    -0.323 N 
HETATM    3  O   UNL     1     -43.730  55.989 -53.924  1.00  0.00    -0.267 OA
HETATM    4  H   UNL     1     -40.723  56.866 -54.427  1.00  0.00     0.169 HD
ENDROOT
BRANCH   2   5
HETATM    5  C   UNL     1     -42.114  57.773 -55.650  1.00  0.00     0.036 A 
HETATM    6  C   UNL     1     -42.484  57.314 -56.922  1.00  0.00     0.046 A 
HETATM    7  C   UNL     1     -42.838  58.244 -57.924  1.00  0.00     0.030 A 
HETATM    8  C   UNL     1     -42.833  59.598 -57.616  1.00  0.00     0.063 A 
HETATM    9  C   UNL     1     -43.224  58.179 -59.299  1.00  0.00     0.156 A 
HETATM   10  N   UNL     1     -43.221  60.233 -58.763  1.00  0.00    -0.277 N 
HETATM   11  C   UNL     1     -42.482  60.091 -56.359  1.00  0.00     0.034 A 
HETATM   12  H   UNL     1     -43.334  61.230 -58.905  1.00  0.00     0.189 HD
HETATM   13  N   UNL     1     -43.458  59.414 -59.799  1.00  0.00    -0.168 NA
HETATM   14  C   UNL     1     -42.114  59.151 -55.387  1.00  0.00     0.032 A 
BRANCH   9  15
HETATM   15  C   UNL     1     -43.358  56.980 -60.137  1.00  0.00     0.270 C 
HETATM   16  N   UNL     1     -44.592  56.832 -60.709  1.00  0.00    -0.365 N 
HETATM   17  H   UNL     1     -45.296  57.540 -60.534  1.00  0.00     0.159 HD
HETATM   18  H   UNL     1     -44.768  56.051 -61.321  1.00  0.00     0.159 HD
HETATM   19  O   UNL     1     -42.464  56.165 -60.338  1.00  0.00    -0.266 OA
ENDBRANCH   9  15
ENDBRANCH   2   5
BRANCH   1  20
HETATM   20  C   UNL     1     -41.781  55.332 -52.820  1.00  0.00     0.074 A 
HETATM   21  C   UNL     1     -41.579  55.763 -51.514  1.00  0.00     0.066 A 
HETATM   22  C   UNL     1     -41.973  56.987 -50.780  1.00  0.00     0.078 C 
HETATM   23  O   UNL     1     -40.895  54.833 -50.797  1.00  0.00    -0.314 OA
HETATM   24  C   UNL     1     -40.615  53.806 -51.637  1.00  0.00     0.087 A 
HETATM   25  C   UNL     1     -41.118  54.059 -52.908  1.00  0.00     0.019 A 
HETATM   26  C   UNL     1     -39.911  52.660 -51.279  1.00  0.00     0.041 A 
HETATM   27  C   UNL     1     -40.864  53.098 -53.918  1.00  0.00     0.052 A 
HETATM   28  C   UNL     1     -40.169  51.922 -53.591  1.00  0.00     0.069 A 
HETATM   29  C   UNL     1     -39.704  51.716 -52.288  1.00  0.00     0.039 A 
BRANCH  28  30
HETATM   30  O   UNL     1     -39.873  50.905 -54.458  1.00  0.00    -0.356 OA
HETATM   31  C   UNL     1     -39.444  49.673 -53.894  1.00  0.00     0.210 C 
ENDBRANCH  28  30
ENDBRANCH   1  20
TORSDOF 4
ENDMDL
MODEL 5
REMARK VINA RESULT:      -8.1      2.851      8.238
REMARK  4 active torsions:
REMARK  status: ('A' for Active; 'I' for Inactive)
REMARK    1  A    between atoms: C_6  and  C_7 
REMARK       I    between atoms: C_7  and  N_8 
REMARK    2  A    between atoms: N_8  and  C_9 
REMARK    3  A    between atoms: C_16  and  C_17 
REMARK       I    between atoms: C_17  and  N_18 
REMARK    4  A    between atoms: C_25  and  O_26 
ROOT
HETATM    1  C   UNL     1     -42.956  55.165 -54.195  1.00  0.00     0.259 C 
HETATM    2  N   UNL     1     -42.094  55.809 -55.063  1.00  0.00    -0.323 N 
HETATM    3  O   UNL     1     -44.149  54.971 -54.390  1.00  0.00    -0.267 OA
HETATM    4  H   UNL     1     -41.121  55.827 -54.796  1.00  0.00     0.169 HD
ENDROOT
BRANCH   2   5
HETATM    5  C   UNL     1     -42.395  56.370 -56.325  1.00  0.00     0.036 A 
HETATM    6  C   UNL     1     -42.170  57.713 -56.657  1.00  0.00     0.046 A 
HETATM    7  C   UNL     1     -42.532  58.185 -57.938  1.00  0.00     0.030 A 
HETATM    8  C   UNL     1     -43.084  57.296 -58.851  1.00  0.00     0.063 A 
HETATM    9  C   UNL     1     -42.500  59.441 -58.620  1.00  0.00     0.156 A 
HETATM   10  N   UNL     1     -43.317  58.030 -59.980  1.00  0.00    -0.277 N 
HETATM   11  C   UNL     1     -43.311  55.950 -58.559  1.00  0.00     0.034 A 
HETATM   12  H   UNL     1     -43.711  57.704 -60.854  1.00  0.00     0.189 HD
HETATM   13  N   UNL     1     -42.985  59.327 -59.877  1.00  0.00    -0.168 NA
HETATM   14  C   UNL     1     -42.963  55.510 -57.275  1.00  0.00     0.032 A 
BRANCH   9  15
HETATM   15  C   UNL     1     -42.035  60.733 -58.097  1.00  0.00     0.270 C 
HETATM   16  N   UNL     1     -42.986  61.717 -58.112  1.00  0.00    -0.365 N 
HETATM   17  H   UNL     1     -43.912  61.492 -58.455  1.00  0.00     0.159 HD
HETATM   18  H   UNL     1     -42.764  62.630 -57.749  1.00  0.00     0.159 HD
HETATM   19  O   UNL     1     -40.907  60.948 -57.667  1.00  0.00    -0.266 OA
ENDBRANCH   9  15
ENDBRANCH   2   5
BRANCH   1  20
HETATM   20  C   UNL     1     -42.311  54.666 -52.982  1.00  0.00     0.074 A 
HETATM   21  C   UNL     1     -42.519  55.226 -51.728  1.00  0.00     0.066 A 
HETATM   22  C   UNL     1     -43.338  56.364 -51.250  1.00  0.00     0.078 C 
HETATM   23  O   UNL     1     -41.827  54.550 -50.774  1.00  0.00    -0.314 OA
HETATM   24  C   UNL     1     -41.136  53.567 -51.402  1.00  0.00     0.087 A 
HETATM   25  C   UNL     1     -41.375  53.594 -52.771  1.00  0.00     0.019 A 
HETATM   26  C   UNL     1     -40.293  52.660 -50.766  1.00  0.00     0.041 A 
HETATM   27  C   UNL     1     -40.685  52.657 -53.578  1.00  0.00     0.052 A 
HETATM   28  C   UNL     1     -39.837  51.717 -52.969  1.00  0.00     0.069 A 
HETATM   29  C   UNL     1     -39.650  51.728 -51.583  1.00  0.00     0.039 A 
BRANCH  28  30
HETATM   30  O   UNL     1     -39.126  50.745 -53.622  1.00  0.00    -0.356 OA
HETATM   31  C   UNL     1     -39.832  49.939 -54.556  1.00  0.00     0.210 C 
ENDBRANCH  28  30
ENDBRANCH   1  20
TORSDOF 4
ENDMDL
MODEL 6
REMARK VINA RESULT:      -8.0      2.041      3.931
REMARK  4 active torsions:
REMARK  status: ('A' for Active; 'I' for Inactive)
REMARK    1  A    between atoms: C_6  and  C_7 
REMARK       I    between atoms: C_7  and  N_8 
REMARK    2  A    between atoms: N_8  and  C_9 
REMARK    3  A    between atoms: C_16  and  C_17 
REMARK       I    between atoms: C_17  and  N_18 
REMARK    4  A    between atoms: C_25  and  O_26 
ROOT
HETATM    1  C   UNL     1     -42.767  56.247 -56.428  1.00  0.00     0.259 C 
HETATM    2  N   UNL     1     -41.574  55.629 -56.104  1.00  0.00    -0.323 N 
HETATM    3  O   UNL     1     -43.728  56.375 -55.680  1.00  0.00    -0.267 OA
HETATM    4  H   UNL     1     -40.847  55.666 -56.802  1.00  0.00     0.169 HD
ENDROOT
BRANCH   2   5
HETATM    5  C   UNL     1     -41.217  55.025 -54.877  1.00  0.00     0.036 A 
HETATM    6  C   UNL     1     -40.792  53.695 -54.754  1.00  0.00     0.046 A 
HETATM    7  C   UNL     1     -40.485  53.175 -53.477  1.00  0.00     0.030 A 
HETATM    8  C   UNL     1     -40.589  54.007 -52.371  1.00  0.00     0.063 A 
HETATM    9  C   UNL     1     -40.070  51.912 -52.952  1.00  0.00     0.156 A 
HETATM   10  N   UNL     1     -40.224  53.237 -51.301  1.00  0.00    -0.277 N 
HETATM   11  C   UNL     1     -40.996  55.339 -52.456  1.00  0.00     0.034 A 
HETATM   12  H   UNL     1     -40.178  53.519 -50.329  1.00  0.00     0.189 HD
HETATM   13  N   UNL     1     -39.912  51.969 -51.610  1.00  0.00    -0.168 NA
HETATM   14  C   UNL     1     -41.317  55.826 -53.730  1.00  0.00     0.032 A 
BRANCH   9  15
HETATM   15  C   UNL     1     -39.838  50.665 -53.694  1.00  0.00     0.270 C 
HETATM   16  N   UNL     1     -39.612  49.575 -52.898  1.00  0.00    -0.365 N 
HETATM   17  H   UNL     1     -39.632  49.695 -51.892  1.00  0.00     0.159 HD
HETATM   18  H   UNL     1     -39.467  48.671 -53.320  1.00  0.00     0.159 HD
HETATM   19  O   UNL     1     -39.849  50.567 -54.916  1.00  0.00    -0.266 OA
ENDBRANCH   9  15
ENDBRANCH   2   5
BRANCH   1  20
HETATM   20  C   UNL     1     -42.797  56.805 -57.778  1.00  0.00     0.074 A 
HETATM   21  C   UNL     1     -43.254  56.095 -58.882  1.00  0.00     0.066 A 
HETATM   22  C   UNL     1     -43.783  54.723 -59.055  1.00  0.00     0.078 C 
HETATM   23  O   UNL     1     -43.205  56.860 -60.004  1.00  0.00    -0.314 OA
HETATM   24  C   UNL     1     -42.685  58.060 -59.648  1.00  0.00     0.087 A 
HETATM   25  C   UNL     1     -42.393  58.087 -58.289  1.00  0.00     0.019 A 
HETATM   26  C   UNL     1     -42.463  59.119 -60.525  1.00  0.00     0.041 A 
HETATM   27  C   UNL     1     -41.795  59.261 -57.769  1.00  0.00     0.052 A 
HETATM   28  C   UNL     1     -41.569  60.355 -58.621  1.00  0.00     0.069 A 
HETATM   29  C   UNL     1     -41.901  60.274 -59.977  1.00  0.00     0.039 A 
BRANCH  28  30
HETATM   30  O   UNL     1     -41.020  61.553 -58.250  1.00  0.00    -0.356 OA
HETATM   31  C   UNL     1     -40.465  62.361 -59.279  1.00  0.00     0.210 C 
ENDBRANCH  28  30
ENDBRANCH   1  20
TORSDOF 4
ENDMDL
MODEL 7
REMARK VINA RESULT:      -7.8      3.309      8.276
REMARK  4 active torsions:
REMARK  status: ('A' for Active; 'I' for Inactive)
REMARK    1  A    between atoms: C_6  and  C_7 
REMARK       I    between atoms: C_7  and  N_8 
REMARK    2  A    between atoms: N_8  and  C_9 
REMARK    3  A    between atoms: C_16  and  C_17 
REMARK       I    between atoms: C_17  and  N_18 
REMARK    4  A    between atoms: C_25  and  O_26 
ROOT
HETATM    1  C   UNL     1     -43.209  55.845 -54.614  1.00  0.00     0.259 C 
HETATM    2  N   UNL     1     -42.627  56.014 -55.856  1.00  0.00    -0.323 N 
HETATM    3  O   UNL     1     -44.387  56.046 -54.347  1.00  0.00    -0.267 OA
HETATM    4  H   UNL     1     -41.660  55.737 -55.939  1.00  0.00     0.169 HD
ENDROOT
BRANCH   2   5
HETATM    5  C   UNL     1     -43.245  56.448 -57.051  1.00  0.00     0.036 A 
HETATM    6  C   UNL     1     -44.142  57.522 -57.122  1.00  0.00     0.046 A 
HETATM    7  C   UNL     1     -44.730  57.860 -58.362  1.00  0.00     0.030 A 
HETATM    8  C   UNL     1     -44.384  57.130 -59.490  1.00  0.00     0.063 A 
HETATM    9  C   UNL     1     -45.679  58.824 -58.822  1.00  0.00     0.156 A 
HETATM   10  N   UNL     1     -45.094  57.688 -60.517  1.00  0.00    -0.277 N 
HETATM   11  C   UNL     1     -43.485  56.062 -59.460  1.00  0.00     0.034 A 
HETATM   12  H   UNL     1     -45.085  57.411 -61.491  1.00  0.00     0.189 HD
HETATM   13  N   UNL     1     -45.890  58.705 -60.153  1.00  0.00    -0.168 NA
HETATM   14  C   UNL     1     -42.932  55.732 -58.215  1.00  0.00     0.032 A 
BRANCH   9  15
HETATM   15  C   UNL     1     -46.390  59.833 -58.025  1.00  0.00     0.270 C 
HETATM   16  N   UNL     1     -47.637  59.445 -57.613  1.00  0.00    -0.365 N 
HETATM   17  H   UNL     1     -47.964  58.519 -57.864  1.00  0.00     0.159 HD
HETATM   18  H   UNL     1     -48.188  60.063 -57.040  1.00  0.00     0.159 HD
HETATM   19  O   UNL     1     -45.938  60.933 -57.726  1.00  0.00    -0.266 OA
ENDBRANCH   9  15
ENDBRANCH   2   5
BRANCH   1  20
HETATM   20  C   UNL     1     -42.292  55.343 -53.593  1.00  0.00     0.074 A 
HETATM   21  C   UNL     1     -41.969  56.060 -52.447  1.00  0.00     0.066 A 
HETATM   22  C   UNL     1     -42.373  57.389 -51.937  1.00  0.00     0.078 C 
HETATM   23  O   UNL     1     -41.124  55.349 -51.654  1.00  0.00    -0.314 OA
HETATM   24  C   UNL     1     -40.863  54.182 -52.291  1.00  0.00     0.087 A 
HETATM   25  C   UNL     1     -41.538  54.121 -53.505  1.00  0.00     0.019 A 
HETATM   26  C   UNL     1     -40.025  53.183 -51.804  1.00  0.00     0.041 A 
HETATM   27  C   UNL     1     -41.329  52.980 -54.317  1.00  0.00     0.052 A 
HETATM   28  C   UNL     1     -40.502  51.945 -53.852  1.00  0.00     0.069 A 
HETATM   29  C   UNL     1     -39.863  52.056 -52.612  1.00  0.00     0.039 A 
BRANCH  28  30
HETATM   30  O   UNL     1     -40.228  50.782 -54.520  1.00  0.00    -0.356 OA
HETATM   31  C   UNL     1     -39.546  49.763 -53.801  1.00  0.00     0.210 C 
ENDBRANCH  28  30
ENDBRANCH   1  20
TORSDOF 4
ENDMDL
MODEL 8
REMARK VINA RESULT:      -7.7      4.047      8.354
REMARK  4 active torsions:
REMARK  status: ('A' for Active; 'I' for Inactive)
REMARK    1  A    between atoms: C_6  and  C_7 
REMARK       I    between atoms: C_7  and  N_8 
REMARK    2  A    between atoms: N_8  and  C_9 
REMARK    3  A    between atoms: C_16  and  C_17 
REMARK       I    between atoms: C_17  and  N_18 
REMARK    4  A    between atoms: C_25  and  O_26 
ROOT
HETATM    1  C   UNL     1     -41.545  56.160 -53.212  1.00  0.00     0.259 C 
HETATM    2  N   UNL     1     -42.924  56.227 -53.144  1.00  0.00    -0.323 N 
HETATM    3  O   UNL     1     -40.790  57.117 -53.322  1.00  0.00    -0.267 OA
HETATM    4  H   UNL     1     -43.407  55.356 -52.980  1.00  0.00     0.169 HD
ENDROOT
BRANCH   2   5
HETATM    5  C   UNL     1     -43.738  57.381 -53.191  1.00  0.00     0.036 A 
HETATM    6  C   UNL     1     -44.012  58.190 -52.079  1.00  0.00     0.046 A 
HETATM    7  C   UNL     1     -44.863  59.309 -52.223  1.00  0.00     0.030 A 
HETATM    8  C   UNL     1     -45.391  59.595 -53.474  1.00  0.00     0.063 A 
HETATM    9  C   UNL     1     -45.393  60.317 -51.359  1.00  0.00     0.156 A 
HETATM   10  N   UNL     1     -46.151  60.718 -53.301  1.00  0.00    -0.277 N 
HETATM   11  C   UNL     1     -45.130  58.819 -54.605  1.00  0.00     0.034 A 
HETATM   12  H   UNL     1     -46.683  61.214 -54.006  1.00  0.00     0.189 HD
HETATM   13  N   UNL     1     -46.183  61.178 -52.040  1.00  0.00    -0.168 NA
HETATM   14  C   UNL     1     -44.301  57.703 -54.434  1.00  0.00     0.032 A 
BRANCH   9  15
HETATM   15  C   UNL     1     -45.175  60.464 -49.914  1.00  0.00     0.270 C 
HETATM   16  N   UNL     1     -43.873  60.708 -49.566  1.00  0.00    -0.365 N 
HETATM   17  H   UNL     1     -43.180  60.782 -50.301  1.00  0.00     0.159 HD
HETATM   18  H   UNL     1     -43.634  60.848 -48.598  1.00  0.00     0.159 HD
HETATM   19  O   UNL     1     -46.055  60.391 -49.063  1.00  0.00    -0.266 OA
ENDBRANCH   9  15
ENDBRANCH   2   5
BRANCH   1  20
HETATM   20  C   UNL     1     -41.012  54.804 -53.096  1.00  0.00     0.074 A 
HETATM   21  C   UNL     1     -40.603  54.054 -54.192  1.00  0.00     0.066 A 
HETATM   22  C   UNL     1     -40.575  54.321 -55.648  1.00  0.00     0.078 C 
HETATM   23  O   UNL     1     -40.119  52.847 -53.800  1.00  0.00    -0.314 OA
HETATM   24  C   UNL     1     -40.240  52.786 -52.451  1.00  0.00     0.087 A 
HETATM   25  C   UNL     1     -40.803  53.956 -51.954  1.00  0.00     0.019 A 
HETATM   26  C   UNL     1     -39.864  51.696 -51.670  1.00  0.00     0.041 A 
HETATM   27  C   UNL     1     -41.043  54.029 -50.560  1.00  0.00     0.052 A 
HETATM   28  C   UNL     1     -40.663  52.955 -49.738  1.00  0.00     0.069 A 
HETATM   29  C   UNL     1     -40.084  51.810 -50.295  1.00  0.00     0.039 A 
BRANCH  28  30
HETATM   30  O   UNL     1     -40.816  52.899 -48.378  1.00  0.00    -0.356 OA
HETATM   31  C   UNL     1     -40.274  53.972 -47.618  1.00  0.00     0.210 C 
ENDBRANCH  28  30
ENDBRANCH   1  20
TORSDOF 4
ENDMDL
MODEL 9
REMARK VINA RESULT:      -7.5      2.849      8.488
REMARK  4 active torsions:
REMARK  status: ('A' for Active; 'I' for Inactive)
REMARK    1  A    between atoms: C_6  and  C_7 
REMARK       I    between atoms: C_7  and  N_8 
REMARK    2  A    between atoms: N_8  and  C_9 
REMARK    3  A    between atoms: C_16  and  C_17 
REMARK       I    between atoms: C_17  and  N_18 
REMARK    4  A    between atoms: C_25  and  O_26 
ROOT
HETATM    1  C   UNL     1     -40.816  54.338 -54.846  1.00  0.00     0.259 C 
HETATM    2  N   UNL     1     -41.926  55.142 -55.026  1.00  0.00    -0.323 N 
HETATM    3  O   UNL     1     -39.978  54.080 -55.700  1.00  0.00    -0.267 OA
HETATM    4  H   UNL     1     -42.487  55.322 -54.207  1.00  0.00     0.169 HD
ENDROOT
BRANCH   2   5
HETATM    5  C   UNL     1     -42.325  55.816 -56.203  1.00  0.00     0.036 A 
HETATM    6  C   UNL     1     -42.042  57.164 -56.466  1.00  0.00     0.046 A 
HETATM    7  C   UNL     1     -42.511  57.755 -57.661  1.00  0.00     0.030 A 
HETATM    8  C   UNL     1     -43.224  56.975 -58.561  1.00  0.00     0.063 A 
HETATM    9  C   UNL     1     -42.464  59.054 -58.253  1.00  0.00     0.156 A 
HETATM   10  N   UNL     1     -43.528  57.807 -59.602  1.00  0.00    -0.277 N 
HETATM   11  C   UNL     1     -43.513  55.628 -58.338  1.00  0.00     0.034 A 
HETATM   12  H   UNL     1     -44.040  57.574 -60.445  1.00  0.00     0.189 HD
HETATM   13  N   UNL     1     -43.094  59.068 -59.450  1.00  0.00    -0.168 NA
HETATM   14  C   UNL     1     -43.057  55.069 -57.137  1.00  0.00     0.032 A 
BRANCH   9  15
HETATM   15  C   UNL     1     -41.852  60.270 -57.701  1.00  0.00     0.270 C 
HETATM   16  N   UNL     1     -41.681  61.275 -58.614  1.00  0.00    -0.365 N 
HETATM   17  H   UNL     1     -41.990  61.123 -59.567  1.00  0.00     0.159 HD
HETATM   18  H   UNL     1     -41.291  62.156 -58.319  1.00  0.00     0.159 HD
HETATM   19  O   UNL     1     -41.519  60.415 -56.529  1.00  0.00    -0.266 OA
ENDBRANCH   9  15
ENDBRANCH   2   5
BRANCH   1  20
HETATM   20  C   UNL     1     -40.674  53.821 -53.487  1.00  0.00     0.074 A 
HETATM   21  C   UNL     1     -40.383  52.491 -53.209  1.00  0.00     0.066 A 
HETATM   22  C   UNL     1     -40.157  51.303 -54.063  1.00  0.00     0.078 C 
HETATM   23  O   UNL     1     -40.273  52.289 -51.869  1.00  0.00    -0.314 OA
HETATM   24  C   UNL     1     -40.526  53.475 -51.263  1.00  0.00     0.087 A 
HETATM   25  C   UNL     1     -40.800  54.461 -52.205  1.00  0.00     0.019 A 
HETATM   26  C   UNL     1     -40.522  53.678 -49.886  1.00  0.00     0.041 A 
HETATM   27  C   UNL     1     -41.134  55.751 -51.727  1.00  0.00     0.052 A 
HETATM   28  C   UNL     1     -41.126  55.997 -50.344  1.00  0.00     0.069 A 
HETATM   29  C   UNL     1     -40.824  54.968 -49.446  1.00  0.00     0.039 A 
BRANCH  28  30
HETATM   30  O   UNL     1     -41.408  57.197 -49.747  1.00  0.00    -0.356 OA
HETATM   31  C   UNL     1     -41.004  58.375 -50.431  1.00  0.00     0.210 C 
ENDBRANCH  28  30
ENDBRANCH   1  20
TORSDOF 4
ENDMDL
MODEL 10
REMARK VINA RESULT:      -7.5      3.477      8.435
REMARK  4 active torsions:
REMARK  status: ('A' for Active; 'I' for Inactive)
REMARK    1  A    between atoms: C_6  and  C_7 
REMARK       I    between atoms: C_7  and  N_8 
REMARK    2  A    between atoms: N_8  and  C_9 
REMARK    3  A    between atoms: C_16  and  C_17 
REMARK       I    between atoms: C_17  and  N_18 
REMARK    4  A    between atoms: C_25  and  O_26 
ROOT
HETATM    1  C   UNL     1     -41.987  56.530 -53.680  1.00  0.00     0.259 C 
HETATM    2  N   UNL     1     -43.291  56.896 -53.404  1.00  0.00    -0.323 N 
HETATM    3  O   UNL     1     -41.317  56.939 -54.620  1.00  0.00    -0.267 OA
HETATM    4  H   UNL     1     -43.687  56.531 -52.551  1.00  0.00     0.169 HD
ENDROOT
BRANCH   2   5
HETATM    5  C   UNL     1     -44.111  57.790 -54.129  1.00  0.00     0.036 A 
HETATM    6  C   UNL     1     -44.567  57.552 -55.432  1.00  0.00     0.046 A 
HETATM    7  C   UNL     1     -45.361  58.522 -56.083  1.00  0.00     0.030 A 
HETATM    8  C   UNL     1     -45.692  59.686 -55.401  1.00  0.00     0.063 A 
HETATM    9  C   UNL     1     -45.965  58.664 -57.370  1.00  0.00     0.156 A 
HETATM   10  N   UNL     1     -46.459  60.411 -56.270  1.00  0.00    -0.277 N 
HETATM   11  C   UNL     1     -45.266  59.951 -54.098  1.00  0.00     0.034 A 
HETATM   12  H   UNL     1     -46.882  61.317 -56.106  1.00  0.00     0.189 HD
HETATM   13  N   UNL     1     -46.640  59.832 -57.467  1.00  0.00    -0.168 NA
HETATM   14  C   UNL     1     -44.463  58.983 -53.482  1.00  0.00     0.032 A 
BRANCH   9  15
HETATM   15  C   UNL     1     -45.901  57.726 -58.499  1.00  0.00     0.270 C 
HETATM   16  N   UNL     1     -47.088  57.103 -58.778  1.00  0.00    -0.365 N 
HETATM   17  H   UNL     1     -47.900  57.334 -58.217  1.00  0.00     0.159 HD
HETATM   18  H   UNL     1     -47.144  56.461 -59.551  1.00  0.00     0.159 HD
HETATM   19  O   UNL     1     -44.895  57.500 -59.164  1.00  0.00    -0.266 OA
ENDBRANCH   9  15
ENDBRANCH   2   5
BRANCH   1  20
HETATM   20  C   UNL     1     -41.411  55.608 -52.703  1.00  0.00     0.074 A 
HETATM   21  C   UNL     1     -41.209  55.945 -51.370  1.00  0.00     0.066 A 
HETATM   22  C   UNL     1     -41.461  57.176 -50.588  1.00  0.00     0.078 C 
HETATM   23  O   UNL     1     -40.694  54.895 -50.678  1.00  0.00    -0.314 OA
HETATM   24  C   UNL     1     -40.523  53.879 -51.559  1.00  0.00     0.087 A 
HETATM   25  C   UNL     1     -40.928  54.260 -52.834  1.00  0.00     0.019 A 
HETATM   26  C   UNL     1     -40.002  52.629 -51.237  1.00  0.00     0.041 A 
HETATM   27  C   UNL     1     -40.766  53.321 -53.882  1.00  0.00     0.052 A 
HETATM   28  C   UNL     1     -40.257  52.045 -53.592  1.00  0.00     0.069 A 
HETATM   29  C   UNL     1     -39.883  51.714 -52.285  1.00  0.00     0.039 A 
BRANCH  28  30
HETATM   30  O   UNL     1     -40.068  51.037 -54.500  1.00  0.00    -0.356 OA
HETATM   31  C   UNL     1     -39.574  49.800 -54.005  1.00  0.00     0.210 C 
ENDBRANCH  28  30
ENDBRANCH   1  20
TORSDOF 4
ENDMDL
