MODEL 1
REMARK VINA RESULT:      -6.1      0.000      0.000
REMARK  2 active torsions:
REMARK  status: ('A' for Active; 'I' for Inactive)
REMARK    1  A    between atoms: C_3  and  S_4 
REMARK    2  A    between atoms: C_9  and  N_10 
ROOT
HETATM    1  C   UNL     1     -39.507  50.899 -51.251  1.00  0.00     0.050 C 
HETATM    2  C   UNL     1     -40.124  52.269 -51.290  1.00  0.00    -0.039 A 
HETATM    3  C   UNL     1     -40.461  52.965 -52.462  1.00  0.00     0.067 A 
HETATM    4  C   UNL     1     -41.058  54.241 -52.392  1.00  0.00     0.055 A 
HETATM    5  C   UNL     1     -41.307  54.880 -51.169  1.00  0.00     0.053 A 
HETATM    6  C   UNL     1     -40.915  54.193 -50.000  1.00  0.00     0.061 A 
HETATM    7 CL   UNL     1     -41.078  54.918 -48.433  1.00  0.00    -0.082 Cl
HETATM    8  C   UNL     1     -40.340  52.917 -50.062  1.00  0.00     0.034 A 
ENDROOT
BRANCH   5   9
HETATM    9  N   UNL     1     -41.924  56.146 -51.105  1.00  0.00    -0.376 N 
HETATM   10  C   UNL     1     -41.125  57.324 -51.495  1.00  0.00     0.150 C 
HETATM   11  C   UNL     1     -41.838  58.609 -51.021  1.00  0.00     0.252 C 
HETATM   12  N   UNL     1     -43.257  58.647 -51.544  1.00  0.00    -0.072 N 
HETATM   13  H   UNL     1     -43.243  58.751 -52.566  1.00  0.00     0.277 HD
HETATM   14  H   UNL     1     -43.735  59.476 -51.168  1.00  0.00     0.277 HD
HETATM   15  C   UNL     1     -44.045  57.408 -51.177  1.00  0.00     0.252 C 
HETATM   16  C   UNL     1     -43.303  56.142 -51.649  1.00  0.00     0.150 C 
ENDBRANCH   5   9
BRANCH   3  17
HETATM   17  S   UNL     1     -40.211  52.287 -54.103  1.00  0.00     0.172 S 
HETATM   18  C   UNL     1     -40.199  53.682 -55.197  1.00  0.00     0.167 C 
HETATM   19  O   UNL     1     -38.911  51.651 -54.108  1.00  0.00    -0.223 OA
HETATM   20  O   UNL     1     -41.405  51.519 -54.419  1.00  0.00    -0.223 OA
ENDBRANCH   3  17
TORSDOF 2
ENDMDL
MODEL 2
REMARK VINA RESULT:      -6.0      3.153      3.981
REMARK  2 active torsions:
REMARK  status: ('A' for Active; 'I' for Inactive)
REMARK    1  A    between atoms: C_3  and  S_4 
REMARK    2  A    between atoms: C_9  and  N_10 
ROOT
HETATM    1  C   UNL     1     -39.586  51.788 -52.364  1.00  0.00     0.050 C 
HETATM    2  C   UNL     1     -40.323  53.076 -52.606  1.00  0.00    -0.039 A 
HETATM    3  C   UNL     1     -40.654  54.011 -51.613  1.00  0.00     0.067 A 
HETATM    4  C   UNL     1     -41.329  55.204 -51.946  1.00  0.00     0.055 A 
HETATM    5  C   UNL     1     -41.727  55.491 -53.259  1.00  0.00     0.053 A 
HETATM    6  C   UNL     1     -41.436  54.520 -54.241  1.00  0.00     0.061 A 
HETATM    7 CL   UNL     1     -41.963  54.712 -55.882  1.00  0.00    -0.082 Cl
HETATM    8  C   UNL     1     -40.748  53.342 -53.919  1.00  0.00     0.034 A 
ENDROOT
BRANCH   5   9
HETATM    9  N   UNL     1     -42.382  56.695 -53.590  1.00  0.00    -0.376 N 
HETATM   10  C   UNL     1     -43.582  57.064 -52.814  1.00  0.00     0.150 C 
HETATM   11  C   UNL     1     -44.341  58.191 -53.545  1.00  0.00     0.252 C 
HETATM   12  N   UNL     1     -43.419  59.360 -53.813  1.00  0.00    -0.072 N 
HETATM   13  H   UNL     1     -43.152  59.797 -52.922  1.00  0.00     0.277 HD
HETATM   14  H   UNL     1     -43.923  60.074 -54.355  1.00  0.00     0.277 HD
HETATM   15  C   UNL     1     -42.169  58.953 -54.565  1.00  0.00     0.252 C 
HETATM   16  C   UNL     1     -41.441  57.817 -53.820  1.00  0.00     0.150 C 
ENDBRANCH   5   9
BRANCH   3  17
HETATM   17  S   UNL     1     -40.215  53.796 -49.888  1.00  0.00     0.172 S 
HETATM   18  C   UNL     1     -41.232  54.938 -48.991  1.00  0.00     0.167 C 
HETATM   19  O   UNL     1     -40.566  52.439 -49.524  1.00  0.00    -0.223 OA
HETATM   20  O   UNL     1     -38.844  54.260 -49.749  1.00  0.00    -0.223 OA
ENDBRANCH   3  17
TORSDOF 2
ENDMDL
MODEL 3
REMARK VINA RESULT:      -5.7      2.615      3.626
REMARK  2 active torsions:
REMARK  status: ('A' for Active; 'I' for Inactive)
REMARK    1  A    between atoms: C_3  and  S_4 
REMARK    2  A    between atoms: C_9  and  N_10 
ROOT
HETATM    1  C   UNL     1     -40.501  52.201 -53.657  1.00  0.00     0.050 C 
HETATM    2  C   UNL     1     -41.191  53.426 -53.127  1.00  0.00    -0.039 A 
HETATM    3  C   UNL     1     -41.132  53.869 -51.796  1.00  0.00     0.067 A 
HETATM    4  C   UNL     1     -41.799  55.047 -51.400  1.00  0.00     0.055 A 
HETATM    5  C   UNL     1     -42.570  55.801 -52.297  1.00  0.00     0.053 A 
HETATM    6  C   UNL     1     -42.665  55.318 -53.619  1.00  0.00     0.061 A 
HETATM    7 CL   UNL     1     -43.667  56.106 -54.795  1.00  0.00    -0.082 Cl
HETATM    8  C   UNL     1     -41.989  54.159 -54.022  1.00  0.00     0.034 A 
ENDROOT
BRANCH   5   9
HETATM    9  N   UNL     1     -43.216  56.990 -51.901  1.00  0.00    -0.376 N 
HETATM   10  C   UNL     1     -44.426  56.873 -51.064  1.00  0.00     0.150 C 
HETATM   11  C   UNL     1     -45.171  58.225 -51.044  1.00  0.00     0.252 C 
HETATM   12  N   UNL     1     -44.241  59.332 -50.601  1.00  0.00    -0.072 N 
HETATM   13  H   UNL     1     -43.985  59.191 -49.615  1.00  0.00     0.277 HD
HETATM   14  H   UNL     1     -44.735  60.232 -50.654  1.00  0.00     0.277 HD
HETATM   15  C   UNL     1     -42.982  59.404 -51.439  1.00  0.00     0.252 C 
HETATM   16  C   UNL     1     -42.268  58.038 -51.452  1.00  0.00     0.150 C 
ENDBRANCH   5   9
BRANCH   3  17
HETATM   17  S   UNL     1     -40.189  53.021 -50.529  1.00  0.00     0.172 S 
HETATM   18  C   UNL     1     -40.516  53.898 -49.024  1.00  0.00     0.167 C 
HETATM   19  O   UNL     1     -40.714  51.675 -50.434  1.00  0.00    -0.223 OA
HETATM   20  O   UNL     1     -38.785  53.239 -50.843  1.00  0.00    -0.223 OA
ENDBRANCH   3  17
TORSDOF 2
ENDMDL
MODEL 4
REMARK VINA RESULT:      -5.7      4.349      6.412
REMARK  2 active torsions:
REMARK  status: ('A' for Active; 'I' for Inactive)
REMARK    1  A    between atoms: C_3  and  S_4 
REMARK    2  A    between atoms: C_9  and  N_10 
ROOT
HETATM    1  C   UNL     1     -44.098  58.805 -54.194  1.00  0.00     0.050 C 
HETATM    2  C   UNL     1     -43.294  57.569 -53.902  1.00  0.00    -0.039 A 
HETATM    3  C   UNL     1     -42.241  57.495 -52.975  1.00  0.00     0.067 A 
HETATM    4  C   UNL     1     -41.561  56.279 -52.757  1.00  0.00     0.055 A 
HETATM    5  C   UNL     1     -41.875  55.113 -53.469  1.00  0.00     0.053 A 
HETATM    6  C   UNL     1     -42.899  55.212 -54.435  1.00  0.00     0.061 A 
HETATM    7 CL   UNL     1     -43.313  53.867 -55.449  1.00  0.00    -0.082 Cl
HETATM    8  C   UNL     1     -43.592  56.412 -54.642  1.00  0.00     0.034 A 
ENDROOT
BRANCH   5   9
HETATM    9  N   UNL     1     -41.207  53.895 -53.230  1.00  0.00    -0.376 N 
HETATM   10  C   UNL     1     -40.370  53.343 -54.314  1.00  0.00     0.150 C 
HETATM   11  C   UNL     1     -40.029  51.870 -54.001  1.00  0.00     0.252 C 
HETATM   12  N   UNL     1     -39.390  51.756 -52.634  1.00  0.00    -0.072 N 
HETATM   13  H   UNL     1     -38.470  52.213 -52.647  1.00  0.00     0.277 HD
HETATM   14  H   UNL     1     -39.228  50.765 -52.417  1.00  0.00     0.277 HD
HETATM   15  C   UNL     1     -40.239  52.374 -51.543  1.00  0.00     0.252 C 
HETATM   16  C   UNL     1     -40.576  53.837 -51.890  1.00  0.00     0.150 C 
ENDBRANCH   5   9
BRANCH   3  17
HETATM   17  S   UNL     1     -41.718  58.894 -51.983  1.00  0.00     0.172 S 
HETATM   18  C   UNL     1     -40.498  58.256 -50.867  1.00  0.00     0.167 C 
HETATM   19  O   UNL     1     -41.106  59.850 -52.882  1.00  0.00    -0.223 OA
HETATM   20  O   UNL     1     -42.864  59.279 -51.174  1.00  0.00    -0.223 OA
ENDBRANCH   3  17
TORSDOF 2
ENDMDL
MODEL 5
REMARK VINA RESULT:      -5.6     15.171     17.305
REMARK  2 active torsions:
REMARK  status: ('A' for Active; 'I' for Inactive)
REMARK    1  A    between atoms: C_3  and  S_4 
REMARK    2  A    between atoms: C_9  and  N_10 
ROOT
HETATM    1  C   UNL     1     -35.560  42.276 -55.294  1.00  0.00     0.050 C 
HETATM    2  C   UNL     1     -36.075  41.501 -56.475  1.00  0.00    -0.039 A 
HETATM    3  C   UNL     1     -36.177  40.102 -56.534  1.00  0.00     0.067 A 
HETATM    4  C   UNL     1     -36.696  39.468 -57.683  1.00  0.00     0.055 A 
HETATM    5  C   UNL     1     -37.095  40.192 -58.816  1.00  0.00     0.053 A 
HETATM    6  C   UNL     1     -36.938  41.594 -58.764  1.00  0.00     0.061 A 
HETATM    7 CL   UNL     1     -37.303  42.592 -60.135  1.00  0.00    -0.082 Cl
HETATM    8  C   UNL     1     -36.442  42.230 -57.619  1.00  0.00     0.034 A 
ENDROOT
BRANCH   5   9
HETATM    9  N   UNL     1     -37.634  39.555 -59.952  1.00  0.00    -0.376 N 
HETATM   10  C   UNL     1     -36.700  39.140 -61.018  1.00  0.00     0.150 C 
HETATM   11  C   UNL     1     -37.497  38.804 -62.296  1.00  0.00     0.252 C 
HETATM   12  N   UNL     1     -38.562  37.772 -61.997  1.00  0.00    -0.072 N 
HETATM   13  H   UNL     1     -38.115  36.878 -61.758  1.00  0.00     0.277 HD
HETATM   14  H   UNL     1     -39.122  37.607 -62.843  1.00  0.00     0.277 HD
HETATM   15  C   UNL     1     -39.478  38.193 -60.867  1.00  0.00     0.252 C 
HETATM   16  C   UNL     1     -38.655  38.536 -59.610  1.00  0.00     0.150 C 
ENDBRANCH   5   9
BRANCH   3  17
HETATM   17  S   UNL     1     -35.712  39.033 -55.172  1.00  0.00     0.172 S 
HETATM   18  C   UNL     1     -35.974  37.379 -55.754  1.00  0.00     0.167 C 
HETATM   19  O   UNL     1     -34.302  39.246 -54.924  1.00  0.00    -0.223 OA
HETATM   20  O   UNL     1     -36.685  39.263 -54.116  1.00  0.00    -0.223 OA
ENDBRANCH   3  17
TORSDOF 2
ENDMDL
MODEL 6
REMARK VINA RESULT:      -5.4      4.804      6.029
REMARK  2 active torsions:
REMARK  status: ('A' for Active; 'I' for Inactive)
REMARK    1  A    between atoms: C_3  and  S_4 
REMARK    2  A    between atoms: C_9  and  N_10 
ROOT
HETATM    1  C   UNL     1     -43.146  55.820 -58.919  1.00  0.00     0.050 C 
HETATM    2  C   UNL     1     -42.910  56.103 -57.462  1.00  0.00    -0.039 A 
HETATM    3  C   UNL     1     -42.772  57.385 -56.905  1.00  0.00     0.067 A 
HETATM    4  C   UNL     1     -42.574  57.547 -55.518  1.00  0.00     0.055 A 
HETATM    5  C   UNL     1     -42.472  56.452 -54.648  1.00  0.00     0.053 A 
HETATM    6  C   UNL     1     -42.560  55.168 -55.227  1.00  0.00     0.061 A 
HETATM    7 CL   UNL     1     -42.350  53.734 -54.274  1.00  0.00    -0.082 Cl
HETATM    8  C   UNL     1     -42.776  55.001 -56.601  1.00  0.00     0.034 A 
ENDROOT
BRANCH   5   9
HETATM    9  N   UNL     1     -42.297  56.620 -53.260  1.00  0.00    -0.376 N 
HETATM   10  C   UNL     1     -41.340  57.648 -52.805  1.00  0.00     0.150 C 
HETATM   11  C   UNL     1     -41.028  57.433 -51.308  1.00  0.00     0.252 C 
HETATM   12  N   UNL     1     -42.308  57.408 -50.502  1.00  0.00    -0.072 N 
HETATM   13  H   UNL     1     -42.743  58.339 -50.519  1.00  0.00     0.277 HD
HETATM   14  H   UNL     1     -42.086  57.201 -49.519  1.00  0.00     0.277 HD
HETATM   15  C   UNL     1     -43.298  56.384 -51.015  1.00  0.00     0.252 C 
HETATM   16  C   UNL     1     -43.578  56.613 -52.513  1.00  0.00     0.150 C 
ENDBRANCH   5   9
BRANCH   3  17
HETATM   17  S   UNL     1     -42.880  58.887 -57.878  1.00  0.00     0.172 S 
HETATM   18  C   UNL     1     -42.514  60.209 -56.756  1.00  0.00     0.167 C 
HETATM   19  O   UNL     1     -41.853  58.810 -58.896  1.00  0.00    -0.223 OA
HETATM   20  O   UNL     1     -44.277  59.034 -58.256  1.00  0.00    -0.223 OA
ENDBRANCH   3  17
TORSDOF 2
ENDMDL
MODEL 7
REMARK VINA RESULT:      -5.3     14.964     16.406
REMARK  2 active torsions:
REMARK  status: ('A' for Active; 'I' for Inactive)
REMARK    1  A    between atoms: C_3  and  S_4 
REMARK    2  A    between atoms: C_9  and  N_10 
ROOT
HETATM    1  C   UNL     1     -31.976  40.369 -51.835  1.00  0.00     0.050 C 
HETATM    2  C   UNL     1     -32.852  40.407 -53.056  1.00  0.00    -0.039 A 
HETATM    3  C   UNL     1     -34.241  40.609 -53.042  1.00  0.00     0.067 A 
HETATM    4  C   UNL     1     -34.974  40.650 -54.247  1.00  0.00     0.055 A 
HETATM    5  C   UNL     1     -34.363  40.459 -55.495  1.00  0.00     0.053 A 
HETATM    6  C   UNL     1     -32.975  40.204 -55.493  1.00  0.00     0.061 A 
HETATM    7 CL   UNL     1     -32.122  39.854 -56.962  1.00  0.00    -0.082 Cl
HETATM    8  C   UNL     1     -32.239  40.182 -54.301  1.00  0.00     0.034 A 
ENDROOT
BRANCH   5   9
HETATM    9  N   UNL     1     -35.095  40.524 -56.698  1.00  0.00    -0.376 N 
HETATM   10  C   UNL     1     -35.642  39.265 -57.241  1.00  0.00     0.150 C 
HETATM   11  C   UNL     1     -36.082  39.485 -58.704  1.00  0.00     0.252 C 
HETATM   12  N   UNL     1     -37.048  40.646 -58.795  1.00  0.00    -0.072 N 
HETATM   13  H   UNL     1     -37.926  40.399 -58.320  1.00  0.00     0.277 HD
HETATM   14  H   UNL     1     -37.282  40.817 -59.781  1.00  0.00     0.277 HD
HETATM   15  C   UNL     1     -36.490  41.915 -58.186  1.00  0.00     0.252 C 
HETATM   16  C   UNL     1     -36.045  41.661 -56.732  1.00  0.00     0.150 C 
ENDBRANCH   5   9
BRANCH   3  17
HETATM   17  S   UNL     1     -35.172  40.872 -51.532  1.00  0.00     0.172 S 
HETATM   18  C   UNL     1     -36.844  41.159 -52.047  1.00  0.00     0.167 C 
HETATM   19  O   UNL     1     -35.099  39.646 -50.767  1.00  0.00    -0.223 OA
HETATM   20  O   UNL     1     -34.691  42.121 -50.962  1.00  0.00    -0.223 OA
ENDBRANCH   3  17
TORSDOF 2
ENDMDL
MODEL 8
REMARK VINA RESULT:      -5.3     15.751     17.411
REMARK  2 active torsions:
REMARK  status: ('A' for Active; 'I' for Inactive)
REMARK    1  A    between atoms: C_3  and  S_4 
REMARK    2  A    between atoms: C_9  and  N_10 
ROOT
HETATM    1  C   UNL     1     -37.444  41.740 -59.903  1.00  0.00     0.050 C 
HETATM    2  C   UNL     1     -36.598  41.146 -58.812  1.00  0.00    -0.039 A 
HETATM    3  C   UNL     1     -36.184  39.805 -58.755  1.00  0.00     0.067 A 
HETATM    4  C   UNL     1     -35.371  39.348 -57.697  1.00  0.00     0.055 A 
HETATM    5  C   UNL     1     -34.972  40.190 -56.649  1.00  0.00     0.053 A 
HETATM    6  C   UNL     1     -35.437  41.522 -56.689  1.00  0.00     0.061 A 
HETATM    7 CL   UNL     1     -35.096  42.633 -55.402  1.00  0.00    -0.082 Cl
HETATM    8  C   UNL     1     -36.229  41.986 -57.747  1.00  0.00     0.034 A 
ENDROOT
BRANCH   5   9
HETATM    9  N   UNL     1     -34.141  39.734 -55.606  1.00  0.00    -0.376 N 
HETATM   10  C   UNL     1     -34.416  38.399 -55.038  1.00  0.00     0.150 C 
HETATM   11  C   UNL     1     -33.653  38.241 -53.705  1.00  0.00     0.252 C 
HETATM   12  N   UNL     1     -32.178  38.514 -53.907  1.00  0.00    -0.072 N 
HETATM   13  H   UNL     1     -31.771  37.779 -54.499  1.00  0.00     0.277 HD
HETATM   14  H   UNL     1     -31.697  38.466 -53.000  1.00  0.00     0.277 HD
HETATM   15  C   UNL     1     -31.919  39.865 -54.538  1.00  0.00     0.252 C 
HETATM   16  C   UNL     1     -32.704  40.001 -55.857  1.00  0.00     0.150 C 
ENDBRANCH   5   9
BRANCH   3  17
HETATM   17  S   UNL     1     -36.606  38.603 -60.017  1.00  0.00     0.172 S 
HETATM   18  C   UNL     1     -35.853  37.084 -59.498  1.00  0.00     0.167 C 
HETATM   19  O   UNL     1     -38.047  38.462 -60.008  1.00  0.00    -0.223 OA
HETATM   20  O   UNL     1     -35.918  39.017 -61.229  1.00  0.00    -0.223 OA
ENDBRANCH   3  17
TORSDOF 2
ENDMDL
MODEL 9
REMARK VINA RESULT:      -5.2      4.098      5.794
REMARK  2 active torsions:
REMARK  status: ('A' for Active; 'I' for Inactive)
REMARK    1  A    between atoms: C_3  and  S_4 
REMARK    2  A    between atoms: C_9  and  N_10 
ROOT
HETATM    1  C   UNL     1     -42.968  57.154 -56.641  1.00  0.00     0.050 C 
HETATM    2  C   UNL     1     -42.533  56.510 -55.355  1.00  0.00    -0.039 A 
HETATM    3  C   UNL     1     -42.244  57.201 -54.167  1.00  0.00     0.067 A 
HETATM    4  C   UNL     1     -41.864  56.502 -53.003  1.00  0.00     0.055 A 
HETATM    5  C   UNL     1     -41.725  55.106 -52.986  1.00  0.00     0.053 A 
HETATM    6  C   UNL     1     -41.967  54.427 -54.199  1.00  0.00     0.061 A 
HETATM    7 CL   UNL     1     -41.733  52.714 -54.334  1.00  0.00    -0.082 Cl
HETATM    8  C   UNL     1     -42.364  55.115 -55.353  1.00  0.00     0.034 A 
ENDROOT
BRANCH   5   9
HETATM    9  N   UNL     1     -41.366  54.410 -51.814  1.00  0.00    -0.376 N 
HETATM   10  C   UNL     1     -40.240  53.460 -51.893  1.00  0.00     0.150 C 
HETATM   11  C   UNL     1     -40.240  52.557 -50.640  1.00  0.00     0.252 C 
HETATM   12  N   UNL     1     -40.226  53.400 -49.384  1.00  0.00    -0.072 N 
HETATM   13  H   UNL     1     -39.329  53.897 -49.315  1.00  0.00     0.277 HD
HETATM   14  H   UNL     1     -40.290  52.785 -48.562  1.00  0.00     0.277 HD
HETATM   15  C   UNL     1     -41.359  54.404 -49.345  1.00  0.00     0.252 C 
HETATM   16  C   UNL     1     -41.342  55.279 -50.613  1.00  0.00     0.150 C 
ENDBRANCH   5   9
BRANCH   3  17
HETATM   17  S   UNL     1     -42.375  58.984 -54.022  1.00  0.00     0.172 S 
HETATM   18  C   UNL     1     -42.009  59.352 -52.327  1.00  0.00     0.167 C 
HETATM   19  O   UNL     1     -41.358  59.558 -54.877  1.00  0.00    -0.223 OA
HETATM   20  O   UNL     1     -43.777  59.313 -54.227  1.00  0.00    -0.223 OA
ENDBRANCH   3  17
TORSDOF 2
ENDMDL
MODEL 10
REMARK VINA RESULT:      -5.2      5.528      6.941
REMARK  2 active torsions:
REMARK  status: ('A' for Active; 'I' for Inactive)
REMARK    1  A    between atoms: C_3  and  S_4 
REMARK    2  A    between atoms: C_9  and  N_10 
ROOT
HETATM    1  C   UNL     1     -43.493  55.719 -50.888  1.00  0.00     0.050 C 
HETATM    2  C   UNL     1     -43.619  56.165 -52.318  1.00  0.00    -0.039 A 
HETATM    3  C   UNL     1     -44.143  57.401 -52.730  1.00  0.00     0.067 A 
HETATM    4  C   UNL     1     -44.199  57.736 -54.100  1.00  0.00     0.055 A 
HETATM    5  C   UNL     1     -43.774  56.850 -55.100  1.00  0.00     0.053 A 
HETATM    6  C   UNL     1     -43.299  55.591 -54.676  1.00  0.00     0.061 A 
HETATM    7 CL   UNL     1     -42.837  54.371 -55.820  1.00  0.00    -0.082 Cl
HETATM    8  C   UNL     1     -43.223  55.260 -53.317  1.00  0.00     0.034 A 
ENDROOT
BRANCH   5   9
HETATM    9  N   UNL     1     -43.811  57.199 -56.465  1.00  0.00    -0.376 N 
HETATM   10  C   UNL     1     -44.974  57.969 -56.949  1.00  0.00     0.150 C 
HETATM   11  C   UNL     1     -45.006  57.936 -58.492  1.00  0.00     0.252 C 
HETATM   12  N   UNL     1     -43.689  58.422 -59.057  1.00  0.00    -0.072 N 
HETATM   13  H   UNL     1     -43.574  59.421 -58.846  1.00  0.00     0.277 HD
HETATM   14  H   UNL     1     -43.706  58.334 -60.081  1.00  0.00     0.277 HD
HETATM   15  C   UNL     1     -42.504  57.655 -58.510  1.00  0.00     0.252 C 
HETATM   16  C   UNL     1     -42.507  57.692 -56.969  1.00  0.00     0.150 C 
ENDBRANCH   5   9
BRANCH   3  17
HETATM   17  S   UNL     1     -44.726  58.645 -51.578  1.00  0.00     0.172 S 
HETATM   18  C   UNL     1     -45.493  59.895 -52.574  1.00  0.00     0.167 C 
HETATM   19  O   UNL     1     -45.719  58.014 -50.735  1.00  0.00    -0.223 OA
HETATM   20  O   UNL     1     -43.541  59.249 -50.989  1.00  0.00    -0.223 OA
ENDBRANCH   3  17
TORSDOF 2
ENDMDL
