MODEL 1
REMARK VINA RESULT:      -9.3      0.000      0.000
REMARK  6 active torsions:
REMARK  status: ('A' for Active; 'I' for Inactive)
REMARK    1  A    between atoms: C_4  and  C_5 
REMARK    2  A    between atoms: C_9  and  C_10 
REMARK       I    between atoms: C_10  and  N_11 
REMARK    3  A    between atoms: N_11  and  N_12 
REMARK       I    between atoms: N_12  and  C_13 
REMARK    4  A    between atoms: C_13  and  C_14 
REMARK    5  A    between atoms: C_14  and  O_15 
REMARK    6  A    between atoms: O_15  and  C_16 
ROOT
HETATM    1  C   UNL     1     -44.405  57.839 -51.681  1.00  0.00     0.288 C 
HETATM    2  N   UNL     1     -43.402  58.412 -50.920  1.00  0.00    -0.262 N 
HETATM    3  O   UNL     1     -45.488  57.625 -51.136  1.00  0.00    -0.264 OA
HETATM    4  H   UNL     1     -43.671  58.685 -49.978  1.00  0.00     0.190 HD
ENDROOT
BRANCH   2   5
HETATM    5  N   UNL     1     -42.159  58.827 -51.382  1.00  0.00    -0.265 N 
HETATM    6  C   UNL     1     -40.984  58.171 -51.073  1.00  0.00     0.260 C 
HETATM    7  O   UNL     1     -39.924  58.783 -51.205  1.00  0.00    -0.269 OA
HETATM    8  H   UNL     1     -42.054  59.813 -51.612  1.00  0.00     0.190 HD
BRANCH   6   9
HETATM    9  C   UNL     1     -41.075  56.702 -50.639  1.00  0.00     0.280 C 
BRANCH   9  10
HETATM   10  O   UNL     1     -41.634  55.825 -51.614  1.00  0.00    -0.342 OA
BRANCH  10  11
HETATM   11  C   UNL     1     -41.041  54.592 -51.657  1.00  0.00     0.070 A 
HETATM   12  C   UNL     1     -41.051  53.930 -52.885  1.00  0.00     0.049 A 
HETATM   13  C   UNL     1     -40.528  52.631 -53.005  1.00  0.00    -0.023 A 
HETATM   14  C   UNL     1     -40.006  51.987 -51.860  1.00  0.00    -0.026 A 
HETATM   15  C   UNL     1     -40.524  51.951 -54.235  1.00  0.00     0.012 A 
HETATM   16  C   UNL     1     -40.013  52.664 -50.630  1.00  0.00     0.015 A 
HETATM   17  C   UNL     1     -39.507  50.679 -51.973  1.00  0.00     0.012 A 
HETATM   18  C   UNL     1     -40.534  53.956 -50.528  1.00  0.00     0.037 A 
HETATM   19  C   UNL     1     -39.516  50.016 -53.202  1.00  0.00     0.001 A 
HETATM   20  C   UNL     1     -40.020  50.652 -54.332  1.00  0.00     0.001 A 
ENDBRANCH  10  11
ENDBRANCH   9  10
ENDBRANCH   6   9
ENDBRANCH   2   5
BRANCH   1  21
HETATM   21  C   UNL     1     -44.155  57.430 -53.037  1.00  0.00     0.121 A 
HETATM   22  N   UNL     1     -44.084  56.100 -53.360  1.00  0.00    -0.272 N 
HETATM   23  N   UNL     1     -43.677  55.858 -54.612  1.00  0.00    -0.174 NA
HETATM   24  H   UNL     1     -44.242  55.314 -52.736  1.00  0.00     0.189 HD
HETATM   25  C   UNL     1     -43.571  57.072 -55.170  1.00  0.00     0.089 A 
HETATM   26  C   UNL     1     -43.924  58.081 -54.233  1.00  0.00     0.071 A 
BRANCH  25  27
HETATM   27  C   UNL     1     -43.093  57.259 -56.536  1.00  0.00    -0.006 A 
HETATM   28  C   UNL     1     -43.281  56.269 -57.509  1.00  0.00     0.014 A 
HETATM   29  C   UNL     1     -42.861  56.483 -58.824  1.00  0.00     0.001 A 
HETATM   30  C   UNL     1     -42.257  57.689 -59.179  1.00  0.00     0.000 A 
HETATM   31  C   UNL     1     -42.063  58.679 -58.218  1.00  0.00     0.001 A 
HETATM   32  C   UNL     1     -42.473  58.463 -56.901  1.00  0.00     0.014 A 
ENDBRANCH  25  27
ENDBRANCH   1  21
TORSDOF 6
ENDMDL
MODEL 2
REMARK VINA RESULT:      -9.1      1.551      2.565
REMARK  6 active torsions:
REMARK  status: ('A' for Active; 'I' for Inactive)
REMARK    1  A    between atoms: C_4  and  C_5 
REMARK    2  A    between atoms: C_9  and  C_10 
REMARK       I    between atoms: C_10  and  N_11 
REMARK    3  A    between atoms: N_11  and  N_12 
REMARK       I    between atoms: N_12  and  C_13 
REMARK    4  A    between atoms: C_13  and  C_14 
REMARK    5  A    between atoms: C_14  and  O_15 
REMARK    6  A    between atoms: O_15  and  C_16 
ROOT
HETATM    1  C   UNL     1     -41.142  58.424 -51.511  1.00  0.00     0.288 C 
HETATM    2  N   UNL     1     -41.845  57.839 -50.474  1.00  0.00    -0.262 N 
HETATM    3  O   UNL     1     -40.124  59.058 -51.229  1.00  0.00    -0.264 OA
HETATM    4  H   UNL     1     -41.415  57.915 -49.556  1.00  0.00     0.190 HD
ENDROOT
BRANCH   2   5
HETATM    5  N   UNL     1     -42.946  57.000 -50.602  1.00  0.00    -0.265 N 
HETATM    6  C   UNL     1     -42.866  55.628 -50.473  1.00  0.00     0.260 C 
HETATM    7  O   UNL     1     -43.774  54.945 -50.947  1.00  0.00    -0.269 OA
HETATM    8  H   UNL     1     -43.720  57.334 -51.172  1.00  0.00     0.190 HD
BRANCH   6   9
HETATM    9  C   UNL     1     -41.677  55.049 -49.693  1.00  0.00     0.280 C 
BRANCH   9  10
HETATM   10  O   UNL     1     -40.454  54.995 -50.422  1.00  0.00    -0.342 OA
BRANCH  10  11
HETATM   11  C   UNL     1     -40.445  54.063 -51.425  1.00  0.00     0.070 A 
HETATM   12  C   UNL     1     -40.061  52.768 -51.080  1.00  0.00     0.049 A 
HETATM   13  C   UNL     1     -39.955  51.765 -52.059  1.00  0.00    -0.023 A 
HETATM   14  C   UNL     1     -40.223  52.085 -53.409  1.00  0.00    -0.026 A 
HETATM   15  C   UNL     1     -39.575  50.453 -51.728  1.00  0.00     0.012 A 
HETATM   16  C   UNL     1     -40.600  53.396 -53.741  1.00  0.00     0.015 A 
HETATM   17  C   UNL     1     -40.092  51.090 -54.392  1.00  0.00     0.012 A 
HETATM   18  C   UNL     1     -40.703  54.382 -52.756  1.00  0.00     0.037 A 
HETATM   19  C   UNL     1     -39.708  49.793 -54.047  1.00  0.00     0.001 A 
HETATM   20  C   UNL     1     -39.453  49.474 -52.717  1.00  0.00     0.001 A 
ENDBRANCH  10  11
ENDBRANCH   9  10
ENDBRANCH   6   9
ENDBRANCH   2   5
BRANCH   1  21
HETATM   21  C   UNL     1     -41.637  58.366 -52.860  1.00  0.00     0.121 A 
HETATM   22  N   UNL     1     -42.710  59.129 -53.240  1.00  0.00    -0.272 N 
HETATM   23  N   UNL     1     -43.176  58.853 -54.465  1.00  0.00    -0.174 NA
HETATM   24  H   UNL     1     -43.205  59.809 -52.670  1.00  0.00     0.189 HD
HETATM   25  C   UNL     1     -42.318  57.946 -54.952  1.00  0.00     0.089 A 
HETATM   26  C   UNL     1     -41.302  57.661 -53.999  1.00  0.00     0.071 A 
BRANCH  25  27
HETATM   27  C   UNL     1     -42.501  57.331 -56.263  1.00  0.00    -0.006 A 
HETATM   28  C   UNL     1     -42.900  55.994 -56.384  1.00  0.00     0.014 A 
HETATM   29  C   UNL     1     -43.120  55.434 -57.646  1.00  0.00     0.001 A 
HETATM   30  C   UNL     1     -42.949  56.207 -58.794  1.00  0.00     0.000 A 
HETATM   31  C   UNL     1     -42.549  57.538 -58.684  1.00  0.00     0.001 A 
HETATM   32  C   UNL     1     -42.320  58.096 -57.425  1.00  0.00     0.014 A 
ENDBRANCH  25  27
ENDBRANCH   1  21
TORSDOF 6
ENDMDL
MODEL 3
REMARK VINA RESULT:      -9.1      1.553      6.576
REMARK  6 active torsions:
REMARK  status: ('A' for Active; 'I' for Inactive)
REMARK    1  A    between atoms: C_4  and  C_5 
REMARK    2  A    between atoms: C_9  and  C_10 
REMARK       I    between atoms: C_10  and  N_11 
REMARK    3  A    between atoms: N_11  and  N_12 
REMARK       I    between atoms: N_12  and  C_13 
REMARK    4  A    between atoms: C_13  and  C_14 
REMARK    5  A    between atoms: C_14  and  O_15 
REMARK    6  A    between atoms: O_15  and  C_16 
ROOT
HETATM    1  C   UNL     1     -42.641  56.678 -51.302  1.00  0.00     0.288 C 
HETATM    2  N   UNL     1     -42.085  57.907 -50.999  1.00  0.00    -0.262 N 
HETATM    3  O   UNL     1     -43.801  56.468 -50.944  1.00  0.00    -0.264 OA
HETATM    4  H   UNL     1     -42.716  58.577 -50.566  1.00  0.00     0.190 HD
ENDROOT
BRANCH   2   5
HETATM    5  N   UNL     1     -40.840  58.367 -51.411  1.00  0.00    -0.265 N 
HETATM    6  C   UNL     1     -40.630  58.981 -52.630  1.00  0.00     0.260 C 
HETATM    7  O   UNL     1     -39.481  59.027 -53.068  1.00  0.00    -0.269 OA
HETATM    8  H   UNL     1     -40.022  57.913 -51.012  1.00  0.00     0.190 HD
BRANCH   6   9
HETATM    9  C   UNL     1     -41.839  59.619 -53.329  1.00  0.00     0.280 C 
BRANCH   9  10
HETATM   10  O   UNL     1     -42.710  58.695 -53.977  1.00  0.00    -0.342 OA
BRANCH  10  11
HETATM   11  C   UNL     1     -42.576  58.665 -55.339  1.00  0.00     0.070 A 
HETATM   12  C   UNL     1     -42.864  57.458 -55.975  1.00  0.00     0.049 A 
HETATM   13  C   UNL     1     -42.685  57.317 -57.362  1.00  0.00    -0.023 A 
HETATM   14  C   UNL     1     -42.190  58.409 -58.111  1.00  0.00    -0.026 A 
HETATM   15  C   UNL     1     -42.976  56.110 -58.021  1.00  0.00     0.012 A 
HETATM   16  C   UNL     1     -41.897  59.614 -57.453  1.00  0.00     0.015 A 
HETATM   17  C   UNL     1     -41.987  58.261 -59.493  1.00  0.00     0.012 A 
HETATM   18  C   UNL     1     -42.082  59.740 -56.074  1.00  0.00     0.037 A 
HETATM   19  C   UNL     1     -42.275  57.054 -60.130  1.00  0.00     0.001 A 
HETATM   20  C   UNL     1     -42.772  55.981 -59.397  1.00  0.00     0.001 A 
ENDBRANCH  10  11
ENDBRANCH   9  10
ENDBRANCH   6   9
ENDBRANCH   2   5
BRANCH   1  21
HETATM   21  C   UNL     1     -41.856  55.653 -51.936  1.00  0.00     0.121 A 
HETATM   22  N   UNL     1     -41.381  55.828 -53.209  1.00  0.00    -0.272 N 
HETATM   23  N   UNL     1     -40.818  54.737 -53.742  1.00  0.00    -0.174 NA
HETATM   24  H   UNL     1     -41.476  56.661 -53.784  1.00  0.00     0.189 HD
HETATM   25  C   UNL     1     -40.830  53.836 -52.750  1.00  0.00     0.089 A 
HETATM   26  C   UNL     1     -41.417  54.393 -51.581  1.00  0.00     0.071 A 
BRANCH  25  27
HETATM   27  C   UNL     1     -40.350  52.470 -52.936  1.00  0.00    -0.006 A 
HETATM   28  C   UNL     1     -39.804  51.745 -51.869  1.00  0.00     0.014 A 
HETATM   29  C   UNL     1     -39.395  50.421 -52.051  1.00  0.00     0.001 A 
HETATM   30  C   UNL     1     -39.533  49.811 -53.297  1.00  0.00     0.000 A 
HETATM   31  C   UNL     1     -40.072  50.525 -54.366  1.00  0.00     0.001 A 
HETATM   32  C   UNL     1     -40.473  51.851 -54.188  1.00  0.00     0.014 A 
ENDBRANCH  25  27
ENDBRANCH   1  21
TORSDOF 6
ENDMDL
MODEL 4
REMARK VINA RESULT:      -8.8      1.609      2.879
REMARK  6 active torsions:
REMARK  status: ('A' for Active; 'I' for Inactive)
REMARK    1  A    between atoms: C_4  and  C_5 
REMARK    2  A    between atoms: C_9  and  C_10 
REMARK       I    between atoms: C_10  and  N_11 
REMARK    3  A    between atoms: N_11  and  N_12 
REMARK       I    between atoms: N_12  and  C_13 
REMARK    4  A    between atoms: C_13  and  C_14 
REMARK    5  A    between atoms: C_14  and  O_15 
REMARK    6  A    between atoms: O_15  and  C_16 
ROOT
HETATM    1  C   UNL     1     -43.530  54.844 -55.080  1.00  0.00     0.288 C 
HETATM    2  N   UNL     1     -44.045  55.078 -53.819  1.00  0.00    -0.262 N 
HETATM    3  O   UNL     1     -43.515  53.682 -55.488  1.00  0.00    -0.264 OA
HETATM    4  H   UNL     1     -44.447  54.268 -53.353  1.00  0.00     0.190 HD
ENDROOT
BRANCH   2   5
HETATM    5  N   UNL     1     -44.246  56.323 -53.235  1.00  0.00    -0.265 N 
HETATM    6  C   UNL     1     -43.776  56.650 -51.978  1.00  0.00     0.260 C 
HETATM    7  O   UNL     1     -44.289  57.605 -51.395  1.00  0.00    -0.269 OA
HETATM    8  H   UNL     1     -45.058  56.855 -53.542  1.00  0.00     0.190 HD
BRANCH   6   9
HETATM    9  C   UNL     1     -42.603  55.834 -51.416  1.00  0.00     0.280 C 
BRANCH   9  10
HETATM   10  O   UNL     1     -41.551  55.584 -52.344  1.00  0.00    -0.342 OA
BRANCH  10  11
HETATM   11  C   UNL     1     -40.963  54.356 -52.201  1.00  0.00     0.070 A 
HETATM   12  C   UNL     1     -40.899  53.550 -53.338  1.00  0.00     0.049 A 
HETATM   13  C   UNL     1     -40.376  52.248 -53.267  1.00  0.00    -0.023 A 
HETATM   14  C   UNL     1     -39.931  51.748 -52.022  1.00  0.00    -0.026 A 
HETATM   15  C   UNL     1     -40.298  51.424 -54.403  1.00  0.00     0.012 A 
HETATM   16  C   UNL     1     -40.011  52.569 -50.886  1.00  0.00     0.015 A 
HETATM   17  C   UNL     1     -39.432  50.437 -51.945  1.00  0.00     0.012 A 
HETATM   18  C   UNL     1     -40.531  53.863 -50.973  1.00  0.00     0.037 A 
HETATM   19  C   UNL     1     -39.367  49.631 -53.082  1.00  0.00     0.001 A 
HETATM   20  C   UNL     1     -39.796  50.124 -54.310  1.00  0.00     0.001 A 
ENDBRANCH  10  11
ENDBRANCH   9  10
ENDBRANCH   6   9
ENDBRANCH   2   5
BRANCH   1  21
HETATM   21  C   UNL     1     -42.953  55.914 -55.849  1.00  0.00     0.121 A 
HETATM   22  N   UNL     1     -42.185  56.871 -55.241  1.00  0.00    -0.272 N 
HETATM   23  N   UNL     1     -41.855  57.899 -56.032  1.00  0.00    -0.174 NA
HETATM   24  H   UNL     1     -41.911  56.899 -54.262  1.00  0.00     0.189 HD
HETATM   25  C   UNL     1     -42.338  57.561 -57.237  1.00  0.00     0.089 A 
HETATM   26  C   UNL     1     -42.979  56.293 -57.177  1.00  0.00     0.071 A 
BRANCH  25  27
HETATM   27  C   UNL     1     -42.239  58.451 -58.389  1.00  0.00    -0.006 A 
HETATM   28  C   UNL     1     -42.294  59.842 -58.234  1.00  0.00     0.014 A 
HETATM   29  C   UNL     1     -42.148  60.682 -59.341  1.00  0.00     0.001 A 
HETATM   30  C   UNL     1     -41.939  60.140 -60.609  1.00  0.00     0.000 A 
HETATM   31  C   UNL     1     -41.886  58.757 -60.774  1.00  0.00     0.001 A 
HETATM   32  C   UNL     1     -42.041  57.916 -59.670  1.00  0.00     0.014 A 
ENDBRANCH  25  27
ENDBRANCH   1  21
TORSDOF 6
ENDMDL
MODEL 5
REMARK VINA RESULT:      -8.7      1.382      2.236
REMARK  6 active torsions:
REMARK  status: ('A' for Active; 'I' for Inactive)
REMARK    1  A    between atoms: C_4  and  C_5 
REMARK    2  A    between atoms: C_9  and  C_10 
REMARK       I    between atoms: C_10  and  N_11 
REMARK    3  A    between atoms: N_11  and  N_12 
REMARK       I    between atoms: N_12  and  C_13 
REMARK    4  A    between atoms: C_13  and  C_14 
REMARK    5  A    between atoms: C_14  and  O_15 
REMARK    6  A    between atoms: O_15  and  C_16 
ROOT
HETATM    1  C   UNL     1     -41.405  58.557 -53.444  1.00  0.00     0.288 C 
HETATM    2  N   UNL     1     -42.064  58.671 -52.235  1.00  0.00    -0.262 N 
HETATM    3  O   UNL     1     -40.344  59.169 -53.580  1.00  0.00    -0.264 OA
HETATM    4  H   UNL     1     -41.573  59.197 -51.517  1.00  0.00     0.190 HD
ENDROOT
BRANCH   2   5
HETATM    5  N   UNL     1     -43.207  57.975 -51.857  1.00  0.00    -0.265 N 
HETATM    6  C   UNL     1     -43.175  56.682 -51.373  1.00  0.00     0.260 C 
HETATM    7  O   UNL     1     -44.214  56.023 -51.406  1.00  0.00    -0.269 OA
HETATM    8  H   UNL     1     -44.084  58.249 -52.293  1.00  0.00     0.190 HD
BRANCH   6   9
HETATM    9  C   UNL     1     -41.857  56.173 -50.772  1.00  0.00     0.280 C 
BRANCH   9  10
HETATM   10  O   UNL     1     -40.860  55.824 -51.729  1.00  0.00    -0.342 OA
BRANCH  10  11
HETATM   11  C   UNL     1     -40.493  54.505 -51.692  1.00  0.00     0.070 A 
HETATM   12  C   UNL     1     -40.520  53.809 -52.900  1.00  0.00     0.049 A 
HETATM   13  C   UNL     1     -40.227  52.435 -52.944  1.00  0.00    -0.023 A 
HETATM   14  C   UNL     1     -39.921  51.755 -51.744  1.00  0.00    -0.026 A 
HETATM   15  C   UNL     1     -40.244  51.719 -54.154  1.00  0.00     0.012 A 
HETATM   16  C   UNL     1     -39.907  52.469 -50.536  1.00  0.00     0.015 A 
HETATM   17  C   UNL     1     -39.653  50.376 -51.783  1.00  0.00     0.012 A 
HETATM   18  C   UNL     1     -40.198  53.835 -50.508  1.00  0.00     0.037 A 
HETATM   19  C   UNL     1     -39.680  49.679 -52.992  1.00  0.00     0.001 A 
HETATM   20  C   UNL     1     -39.971  50.349 -54.175  1.00  0.00     0.001 A 
ENDBRANCH  10  11
ENDBRANCH   9  10
ENDBRANCH   6   9
ENDBRANCH   2   5
BRANCH   1  21
HETATM   21  C   UNL     1     -41.988  57.819 -54.533  1.00  0.00     0.121 A 
HETATM   22  N   UNL     1     -41.777  56.471 -54.651  1.00  0.00    -0.272 N 
HETATM   23  N   UNL     1     -42.227  55.940 -55.794  1.00  0.00    -0.174 NA
HETATM   24  H   UNL     1     -41.269  55.876 -54.001  1.00  0.00     0.189 HD
HETATM   25  C   UNL     1     -42.848  56.955 -56.412  1.00  0.00     0.089 A 
HETATM   26  C   UNL     1     -42.774  58.136 -55.623  1.00  0.00     0.071 A 
BRANCH  25  27
HETATM   27  C   UNL     1     -43.439  56.811 -57.738  1.00  0.00    -0.006 A 
HETATM   28  C   UNL     1     -42.966  55.846 -58.638  1.00  0.00     0.014 A 
HETATM   29  C   UNL     1     -43.575  55.687 -59.886  1.00  0.00     0.001 A 
HETATM   30  C   UNL     1     -44.663  56.483 -60.241  1.00  0.00     0.000 A 
HETATM   31  C   UNL     1     -45.139  57.447 -59.354  1.00  0.00     0.001 A 
HETATM   32  C   UNL     1     -44.526  57.614 -58.111  1.00  0.00     0.014 A 
ENDBRANCH  25  27
ENDBRANCH   1  21
TORSDOF 6
ENDMDL
MODEL 6
REMARK VINA RESULT:      -8.6      1.833      6.316
REMARK  6 active torsions:
REMARK  status: ('A' for Active; 'I' for Inactive)
REMARK    1  A    between atoms: C_4  and  C_5 
REMARK    2  A    between atoms: C_9  and  C_10 
REMARK       I    between atoms: C_10  and  N_11 
REMARK    3  A    between atoms: N_11  and  N_12 
REMARK       I    between atoms: N_12  and  C_13 
REMARK    4  A    between atoms: C_13  and  C_14 
REMARK    5  A    between atoms: C_14  and  O_15 
REMARK    6  A    between atoms: O_15  and  C_16 
ROOT
HETATM    1  C   UNL     1     -43.849  57.517 -51.239  1.00  0.00     0.288 C 
HETATM    2  N   UNL     1     -43.413  58.809 -51.468  1.00  0.00    -0.262 N 
HETATM    3  O   UNL     1     -45.034  57.355 -50.947  1.00  0.00    -0.264 OA
HETATM    4  H   UNL     1     -44.136  59.524 -51.453  1.00  0.00     0.190 HD
ENDROOT
BRANCH   2   5
HETATM    5  N   UNL     1     -42.149  59.180 -51.912  1.00  0.00    -0.265 N 
HETATM    6  C   UNL     1     -41.820  59.278 -53.250  1.00  0.00     0.260 C 
HETATM    7  O   UNL     1     -40.629  59.252 -53.559  1.00  0.00    -0.269 OA
HETATM    8  H   UNL     1     -41.366  58.998 -51.289  1.00  0.00     0.190 HD
BRANCH   6   9
HETATM    9  C   UNL     1     -42.963  59.473 -54.257  1.00  0.00     0.280 C 
BRANCH   9  10
HETATM   10  O   UNL     1     -43.822  58.347 -54.411  1.00  0.00    -0.342 OA
BRANCH  10  11
HETATM   11  C   UNL     1     -43.616  57.644 -55.567  1.00  0.00     0.070 A 
HETATM   12  C   UNL     1     -44.290  58.089 -56.705  1.00  0.00     0.049 A 
HETATM   13  C   UNL     1     -44.193  57.386 -57.918  1.00  0.00    -0.023 A 
HETATM   14  C   UNL     1     -43.417  56.206 -57.973  1.00  0.00    -0.026 A 
HETATM   15  C   UNL     1     -44.861  57.822 -59.075  1.00  0.00     0.012 A 
HETATM   16  C   UNL     1     -42.752  55.767 -56.817  1.00  0.00     0.015 A 
HETATM   17  C   UNL     1     -43.340  55.488 -59.179  1.00  0.00     0.012 A 
HETATM   18  C   UNL     1     -42.856  56.479 -55.619  1.00  0.00     0.037 A 
HETATM   19  C   UNL     1     -44.014  55.932 -60.317  1.00  0.00     0.001 A 
HETATM   20  C   UNL     1     -44.770  57.099 -60.267  1.00  0.00     0.001 A 
ENDBRANCH  10  11
ENDBRANCH   9  10
ENDBRANCH   6   9
ENDBRANCH   2   5
BRANCH   1  21
HETATM   21  C   UNL     1     -42.925  56.415 -51.256  1.00  0.00     0.121 A 
HETATM   22  N   UNL     1     -41.957  56.305 -50.292  1.00  0.00    -0.272 N 
HETATM   23  N   UNL     1     -41.060  55.338 -50.520  1.00  0.00    -0.174 NA
HETATM   24  H   UNL     1     -41.828  56.913 -49.488  1.00  0.00     0.189 HD
HETATM   25  C   UNL     1     -41.508  54.720 -51.623  1.00  0.00     0.089 A 
HETATM   26  C   UNL     1     -42.710  55.327 -52.078  1.00  0.00     0.071 A 
BRANCH  25  27
HETATM   27  C   UNL     1     -40.775  53.624 -52.249  1.00  0.00    -0.006 A 
HETATM   28  C   UNL     1     -40.067  52.695 -51.477  1.00  0.00     0.014 A 
HETATM   29  C   UNL     1     -39.412  51.623 -52.088  1.00  0.00     0.001 A 
HETATM   30  C   UNL     1     -39.464  51.467 -53.472  1.00  0.00     0.000 A 
HETATM   31  C   UNL     1     -40.164  52.388 -54.250  1.00  0.00     0.001 A 
HETATM   32  C   UNL     1     -40.812  53.465 -53.642  1.00  0.00     0.014 A 
ENDBRANCH  25  27
ENDBRANCH   1  21
TORSDOF 6
ENDMDL
MODEL 7
REMARK VINA RESULT:      -8.5      3.218      9.074
REMARK  6 active torsions:
REMARK  status: ('A' for Active; 'I' for Inactive)
REMARK    1  A    between atoms: C_4  and  C_5 
REMARK    2  A    between atoms: C_9  and  C_10 
REMARK       I    between atoms: C_10  and  N_11 
REMARK    3  A    between atoms: N_11  and  N_12 
REMARK       I    between atoms: N_12  and  C_13 
REMARK    4  A    between atoms: C_13  and  C_14 
REMARK    5  A    between atoms: C_14  and  O_15 
REMARK    6  A    between atoms: O_15  and  C_16 
ROOT
HETATM    1  C   UNL     1     -43.087  56.194 -54.970  1.00  0.00     0.288 C 
HETATM    2  N   UNL     1     -43.695  56.217 -56.212  1.00  0.00    -0.262 N 
HETATM    3  O   UNL     1     -43.378  57.084 -54.171  1.00  0.00    -0.264 OA
HETATM    4  H   UNL     1     -44.403  56.936 -56.338  1.00  0.00     0.190 HD
ENDROOT
BRANCH   2   5
HETATM    5  N   UNL     1     -43.579  55.246 -57.199  1.00  0.00    -0.265 N 
HETATM    6  C   UNL     1     -43.640  55.533 -58.548  1.00  0.00     0.260 C 
HETATM    7  O   UNL     1     -43.892  54.614 -59.328  1.00  0.00    -0.269 OA
HETATM    8  H   UNL     1     -43.845  54.296 -56.950  1.00  0.00     0.190 HD
BRANCH   6   9
HETATM    9  C   UNL     1     -43.330  56.970 -58.991  1.00  0.00     0.280 C 
BRANCH   9  10
HETATM   10  O   UNL     1     -42.318  57.624 -58.230  1.00  0.00    -0.342 OA
BRANCH  10  11
HETATM   11  C   UNL     1     -42.056  58.904 -58.637  1.00  0.00     0.070 A 
HETATM   12  C   UNL     1     -42.183  59.172 -59.999  1.00  0.00     0.049 A 
HETATM   13  C   UNL     1     -41.865  60.441 -60.515  1.00  0.00    -0.023 A 
HETATM   14  C   UNL     1     -41.395  61.445 -59.639  1.00  0.00    -0.026 A 
HETATM   15  C   UNL     1     -41.992  60.730 -61.884  1.00  0.00     0.012 A 
HETATM   16  C   UNL     1     -41.264  61.156 -58.272  1.00  0.00     0.015 A 
HETATM   17  C   UNL     1     -41.052  62.705 -60.157  1.00  0.00     0.012 A 
HETATM   18  C   UNL     1     -41.586  59.891 -57.774  1.00  0.00     0.037 A 
HETATM   19  C   UNL     1     -41.179  62.974 -61.520  1.00  0.00     0.001 A 
HETATM   20  C   UNL     1     -41.652  61.990 -62.383  1.00  0.00     0.001 A 
ENDBRANCH  10  11
ENDBRANCH   9  10
ENDBRANCH   6   9
ENDBRANCH   2   5
BRANCH   1  21
HETATM   21  C   UNL     1     -42.083  55.210 -54.662  1.00  0.00     0.121 A 
HETATM   22  N   UNL     1     -40.887  55.205 -55.330  1.00  0.00    -0.272 N 
HETATM   23  N   UNL     1     -40.117  54.141 -55.073  1.00  0.00    -0.174 NA
HETATM   24  H   UNL     1     -40.576  55.878 -56.026  1.00  0.00     0.189 HD
HETATM   25  C   UNL     1     -40.783  53.468 -54.124  1.00  0.00     0.089 A 
HETATM   26  C   UNL     1     -41.991  54.140 -53.795  1.00  0.00     0.071 A 
BRANCH  25  27
HETATM   27  C   UNL     1     -40.304  52.194 -53.596  1.00  0.00    -0.006 A 
HETATM   28  C   UNL     1     -39.886  52.076 -52.264  1.00  0.00     0.014 A 
HETATM   29  C   UNL     1     -39.478  50.839 -51.759  1.00  0.00     0.001 A 
HETATM   30  C   UNL     1     -39.491  49.710 -52.578  1.00  0.00     0.000 A 
HETATM   31  C   UNL     1     -39.903  49.818 -53.905  1.00  0.00     0.001 A 
HETATM   32  C   UNL     1     -40.302  51.055 -54.413  1.00  0.00     0.014 A 
ENDBRANCH  25  27
ENDBRANCH   1  21
TORSDOF 6
ENDMDL
MODEL 8
REMARK VINA RESULT:      -8.5      1.754      2.430
REMARK  6 active torsions:
REMARK  status: ('A' for Active; 'I' for Inactive)
REMARK    1  A    between atoms: C_4  and  C_5 
REMARK    2  A    between atoms: C_9  and  C_10 
REMARK       I    between atoms: C_10  and  N_11 
REMARK    3  A    between atoms: N_11  and  N_12 
REMARK       I    between atoms: N_12  and  C_13 
REMARK    4  A    between atoms: C_13  and  C_14 
REMARK    5  A    between atoms: C_14  and  O_15 
REMARK    6  A    between atoms: O_15  and  C_16 
ROOT
HETATM    1  C   UNL     1     -43.460  59.885 -53.010  1.00  0.00     0.288 C 
HETATM    2  N   UNL     1     -42.671  59.809 -51.877  1.00  0.00    -0.262 N 
HETATM    3  O   UNL     1     -44.637  60.219 -52.870  1.00  0.00    -0.264 OA
HETATM    4  H   UNL     1     -43.114  60.116 -51.015  1.00  0.00     0.190 HD
ENDROOT
BRANCH   2   5
HETATM    5  N   UNL     1     -41.304  59.559 -51.847  1.00  0.00    -0.265 N 
HETATM    6  C   UNL     1     -40.753  58.464 -51.211  1.00  0.00     0.260 C 
HETATM    7  O   UNL     1     -39.558  58.502 -50.918  1.00  0.00    -0.269 OA
HETATM    8  H   UNL     1     -40.683  60.360 -51.939  1.00  0.00     0.190 HD
BRANCH   6   9
HETATM    9  C   UNL     1     -41.657  57.248 -50.965  1.00  0.00     0.280 C 
BRANCH   9  10
HETATM   10  O   UNL     1     -42.397  56.814 -52.102  1.00  0.00    -0.342 OA
BRANCH  10  11
HETATM   11  C   UNL     1     -41.939  55.646 -52.651  1.00  0.00     0.070 A 
HETATM   12  C   UNL     1     -41.229  54.789 -51.809  1.00  0.00     0.049 A 
HETATM   13  C   UNL     1     -40.662  53.603 -52.306  1.00  0.00    -0.023 A 
HETATM   14  C   UNL     1     -40.800  53.291 -53.677  1.00  0.00    -0.026 A 
HETATM   15  C   UNL     1     -39.948  52.725 -51.471  1.00  0.00     0.012 A 
HETATM   16  C   UNL     1     -41.509  54.168 -54.512  1.00  0.00     0.015 A 
HETATM   17  C   UNL     1     -40.211  52.118 -54.179  1.00  0.00     0.012 A 
HETATM   18  C   UNL     1     -42.070  55.343 -54.003  1.00  0.00     0.037 A 
HETATM   19  C   UNL     1     -39.501  51.260 -53.338  1.00  0.00     0.001 A 
HETATM   20  C   UNL     1     -39.373  51.561 -51.985  1.00  0.00     0.001 A 
ENDBRANCH  10  11
ENDBRANCH   9  10
ENDBRANCH   6   9
ENDBRANCH   2   5
BRANCH   1  21
HETATM   21  C   UNL     1     -42.940  59.500 -54.295  1.00  0.00     0.121 A 
HETATM   22  N   UNL     1     -42.153  60.361 -55.014  1.00  0.00    -0.272 N 
HETATM   23  N   UNL     1     -41.881  59.951 -56.259  1.00  0.00    -0.174 NA
HETATM   24  H   UNL     1     -41.828  61.277 -54.718  1.00  0.00     0.189 HD
HETATM   25  C   UNL     1     -42.424  58.727 -56.333  1.00  0.00     0.089 A 
HETATM   26  C   UNL     1     -43.043  58.382 -55.100  1.00  0.00     0.071 A 
BRANCH  25  27
HETATM   27  C   UNL     1     -42.399  57.941 -57.563  1.00  0.00    -0.006 A 
HETATM   28  C   UNL     1     -42.971  56.663 -57.615  1.00  0.00     0.014 A 
HETATM   29  C   UNL     1     -42.984  55.944 -58.813  1.00  0.00     0.001 A 
HETATM   30  C   UNL     1     -42.434  56.498 -59.968  1.00  0.00     0.000 A 
HETATM   31  C   UNL     1     -41.860  57.767 -59.926  1.00  0.00     0.001 A 
HETATM   32  C   UNL     1     -41.838  58.483 -58.728  1.00  0.00     0.014 A 
ENDBRANCH  25  27
ENDBRANCH   1  21
TORSDOF 6
ENDMDL
MODEL 9
REMARK VINA RESULT:      -8.4      2.173      3.368
REMARK  6 active torsions:
REMARK  status: ('A' for Active; 'I' for Inactive)
REMARK    1  A    between atoms: C_4  and  C_5 
REMARK    2  A    between atoms: C_9  and  C_10 
REMARK       I    between atoms: C_10  and  N_11 
REMARK    3  A    between atoms: N_11  and  N_12 
REMARK       I    between atoms: N_12  and  C_13 
REMARK    4  A    between atoms: C_13  and  C_14 
REMARK    5  A    between atoms: C_14  and  O_15 
REMARK    6  A    between atoms: O_15  and  C_16 
ROOT
HETATM    1  C   UNL     1     -42.550  59.064 -54.598  1.00  0.00     0.288 C 
HETATM    2  N   UNL     1     -42.897  58.403 -53.434  1.00  0.00    -0.262 N 
HETATM    3  O   UNL     1     -41.783  60.023 -54.507  1.00  0.00    -0.264 OA
HETATM    4  H   UNL     1     -42.422  58.720 -52.593  1.00  0.00     0.190 HD
ENDROOT
BRANCH   2   5
HETATM    5  N   UNL     1     -43.656  57.242 -53.347  1.00  0.00    -0.265 N 
HETATM    6  C   UNL     1     -43.106  56.000 -53.098  1.00  0.00     0.260 C 
HETATM    7  O   UNL     1     -43.765  55.003 -53.390  1.00  0.00    -0.269 OA
HETATM    8  H   UNL     1     -44.542  57.227 -53.847  1.00  0.00     0.190 HD
BRANCH   6   9
HETATM    9  C   UNL     1     -41.731  55.948 -52.417  1.00  0.00     0.280 C 
BRANCH   9  10
HETATM   10  O   UNL     1     -40.658  55.558 -53.268  1.00  0.00    -0.342 OA
BRANCH  10  11
HETATM   11  C   UNL     1     -40.505  54.202 -53.385  1.00  0.00     0.070 A 
HETATM   12  C   UNL     1     -40.298  53.486 -52.207  1.00  0.00     0.049 A 
HETATM   13  C   UNL     1     -40.061  52.101 -52.240  1.00  0.00    -0.023 A 
HETATM   14  C   UNL     1     -40.015  51.437 -53.486  1.00  0.00    -0.026 A 
HETATM   15  C   UNL     1     -39.857  51.363 -51.061  1.00  0.00     0.012 A 
HETATM   16  C   UNL     1     -40.216  52.174 -54.664  1.00  0.00     0.015 A 
HETATM   17  C   UNL     1     -39.752  50.057 -53.522  1.00  0.00     0.012 A 
HETATM   18  C   UNL     1     -40.453  53.550 -54.615  1.00  0.00     0.037 A 
HETATM   19  C   UNL     1     -39.545  49.340 -52.343  1.00  0.00     0.001 A 
HETATM   20  C   UNL     1     -39.601  49.990 -51.114  1.00  0.00     0.001 A 
ENDBRANCH  10  11
ENDBRANCH   9  10
ENDBRANCH   6   9
ENDBRANCH   2   5
BRANCH   1  21
HETATM   21  C   UNL     1     -43.138  58.693 -55.857  1.00  0.00     0.121 A 
HETATM   22  N   UNL     1     -44.022  59.530 -56.485  1.00  0.00    -0.272 N 
HETATM   23  N   UNL     1     -44.625  58.995 -57.554  1.00  0.00    -0.174 NA
HETATM   24  H   UNL     1     -44.298  60.461 -56.182  1.00  0.00     0.189 HD
HETATM   25  C   UNL     1     -44.044  57.795 -57.698  1.00  0.00     0.089 A 
HETATM   26  C   UNL     1     -43.062  57.594 -56.690  1.00  0.00     0.071 A 
BRANCH  25  27
HETATM   27  C   UNL     1     -44.460  56.852 -58.731  1.00  0.00    -0.006 A 
HETATM   28  C   UNL     1     -43.634  55.786 -59.111  1.00  0.00     0.014 A 
HETATM   29  C   UNL     1     -44.067  54.863 -60.066  1.00  0.00     0.001 A 
HETATM   30  C   UNL     1     -45.330  54.992 -60.642  1.00  0.00     0.000 A 
HETATM   31  C   UNL     1     -46.159  56.050 -60.272  1.00  0.00     0.001 A 
HETATM   32  C   UNL     1     -45.724  56.979 -59.326  1.00  0.00     0.014 A 
ENDBRANCH  25  27
ENDBRANCH   1  21
TORSDOF 6
ENDMDL
MODEL 10
REMARK VINA RESULT:      -8.3      1.613      6.426
REMARK  6 active torsions:
REMARK  status: ('A' for Active; 'I' for Inactive)
REMARK    1  A    between atoms: C_4  and  C_5 
REMARK    2  A    between atoms: C_9  and  C_10 
REMARK       I    between atoms: C_10  and  N_11 
REMARK    3  A    between atoms: N_11  and  N_12 
REMARK       I    between atoms: N_12  and  C_13 
REMARK    4  A    between atoms: C_13  and  C_14 
REMARK    5  A    between atoms: C_14  and  O_15 
REMARK    6  A    between atoms: O_15  and  C_16 
ROOT
HETATM    1  C   UNL     1     -41.596  58.810 -51.470  1.00  0.00     0.288 C 
HETATM    2  N   UNL     1     -42.796  59.427 -51.165  1.00  0.00    -0.262 N 
HETATM    3  O   UNL     1     -40.658  59.524 -51.826  1.00  0.00    -0.264 OA
HETATM    4  H   UNL     1     -42.782  60.443 -51.184  1.00  0.00     0.190 HD
ENDROOT
BRANCH   2   5
HETATM    5  N   UNL     1     -43.926  58.807 -50.645  1.00  0.00    -0.265 N 
HETATM    6  C   UNL     1     -45.105  58.676 -51.352  1.00  0.00     0.260 C 
HETATM    7  O   UNL     1     -46.139  58.456 -50.722  1.00  0.00    -0.269 OA
HETATM    8  H   UNL     1     -44.029  58.802 -49.632  1.00  0.00     0.190 HD
BRANCH   6   9
HETATM    9  C   UNL     1     -45.035  58.755 -52.883  1.00  0.00     0.280 C 
BRANCH   9  10
HETATM   10  O   UNL     1     -44.348  57.673 -53.506  1.00  0.00    -0.342 OA
BRANCH  10  11
HETATM   11  C   UNL     1     -43.795  57.989 -54.718  1.00  0.00     0.070 A 
HETATM   12  C   UNL     1     -43.851  57.012 -55.712  1.00  0.00     0.049 A 
HETATM   13  C   UNL     1     -43.246  57.225 -56.963  1.00  0.00    -0.023 A 
HETATM   14  C   UNL     1     -42.560  58.437 -57.202  1.00  0.00    -0.026 A 
HETATM   15  C   UNL     1     -43.298  56.254 -57.978  1.00  0.00     0.012 A 
HETATM   16  C   UNL     1     -42.505  59.405 -56.188  1.00  0.00     0.015 A 
HETATM   17  C   UNL     1     -41.933  58.639 -58.443  1.00  0.00     0.012 A 
HETATM   18  C   UNL     1     -43.113  59.181 -54.950  1.00  0.00     0.037 A 
HETATM   19  C   UNL     1     -41.988  57.662 -59.438  1.00  0.00     0.001 A 
HETATM   20  C   UNL     1     -42.673  56.473 -59.208  1.00  0.00     0.001 A 
ENDBRANCH  10  11
ENDBRANCH   9  10
ENDBRANCH   6   9
ENDBRANCH   2   5
BRANCH   1  21
HETATM   21  C   UNL     1     -41.483  57.376 -51.456  1.00  0.00     0.121 A 
HETATM   22  N   UNL     1     -41.523  56.687 -50.272  1.00  0.00    -0.272 N 
HETATM   23  N   UNL     1     -41.234  55.385 -50.382  1.00  0.00    -0.174 NA
HETATM   24  H   UNL     1     -41.681  57.077 -49.347  1.00  0.00     0.189 HD
HETATM   25  C   UNL     1     -41.096  55.184 -51.701  1.00  0.00     0.089 A 
HETATM   26  C   UNL     1     -41.306  56.396 -52.413  1.00  0.00     0.071 A 
BRANCH  25  27
HETATM   27  C   UNL     1     -40.717  53.887 -52.252  1.00  0.00    -0.006 A 
HETATM   28  C   UNL     1     -41.055  53.533 -53.564  1.00  0.00     0.014 A 
HETATM   29  C   UNL     1     -40.642  52.308 -54.094  1.00  0.00     0.001 A 
HETATM   30  C   UNL     1     -39.882  51.431 -53.321  1.00  0.00     0.000 A 
HETATM   31  C   UNL     1     -39.542  51.773 -52.013  1.00  0.00     0.001 A 
HETATM   32  C   UNL     1     -39.963  52.992 -51.479  1.00  0.00     0.014 A 
ENDBRANCH  25  27
ENDBRANCH   1  21
TORSDOF 6
ENDMDL
