MODEL 1
REMARK VINA RESULT:      -8.1      0.000      0.000
REMARK  7 active torsions:
REMARK  status: ('A' for Active; 'I' for Inactive)
REMARK    1  A    between atoms: C_2  and  C_3 
REMARK    2  A    between atoms: C_3  and  C_4 
REMARK    3  A    between atoms: C_4  and  O_5 
REMARK    4  A    between atoms: O_5  and  C_6 
REMARK    5  A    between atoms: C_9  and  C_10 
REMARK       I    between atoms: C_10  and  N_11 
REMARK    6  A    between atoms: N_11  and  C_12 
REMARK    7  A    between atoms: C_19  and  C_20 
REMARK       I    between atoms: C_20  and  N_21 
ROOT
HETATM    1  C   UNL     1     -37.020  41.382 -58.621  1.00  0.00     0.256 C 
HETATM    2  N   UNL     1     -37.124  40.025 -58.879  1.00  0.00    -0.323 N 
HETATM    3  O   UNL     1     -37.263  42.288 -59.408  1.00  0.00    -0.267 OA
HETATM    4  H   UNL     1     -36.878  39.388 -58.137  1.00  0.00     0.169 HD
ENDROOT
BRANCH   2   5
HETATM    5  C   UNL     1     -37.599  39.411 -60.060  1.00  0.00     0.036 A 
HETATM    6  C   UNL     1     -38.923  38.993 -60.246  1.00  0.00     0.046 A 
HETATM    7  C   UNL     1     -39.290  38.345 -61.447  1.00  0.00     0.030 A 
HETATM    8  C   UNL     1     -38.326  38.162 -62.430  1.00  0.00     0.063 A 
HETATM    9  C   UNL     1     -40.476  37.755 -61.980  1.00  0.00     0.156 A 
HETATM   10  N   UNL     1     -38.968  37.527 -63.456  1.00  0.00    -0.277 N 
HETATM   11  C   UNL     1     -37.001  38.576 -62.286  1.00  0.00     0.034 A 
HETATM   12  H   UNL     1     -38.573  37.241 -64.344  1.00  0.00     0.189 HD
HETATM   13  N   UNL     1     -40.263  37.259 -63.220  1.00  0.00    -0.168 NA
HETATM   14  C   UNL     1     -36.657  39.194 -61.077  1.00  0.00     0.032 A 
BRANCH   9  15
HETATM   15  C   UNL     1     -41.791  37.641 -61.333  1.00  0.00     0.270 C 
HETATM   16  N   UNL     1     -42.732  38.502 -61.829  1.00  0.00    -0.365 N 
HETATM   17  H   UNL     1     -42.472  39.121 -62.588  1.00  0.00     0.159 HD
HETATM   18  H   UNL     1     -43.671  38.476 -61.466  1.00  0.00     0.159 HD
HETATM   19  O   UNL     1     -42.066  36.851 -60.436  1.00  0.00    -0.266 OA
ENDBRANCH   9  15
ENDBRANCH   2   5
BRANCH   1  20
HETATM   20  C   UNL     1     -36.592  41.752 -57.233  1.00  0.00     0.032 A 
HETATM   21  C   UNL     1     -35.330  42.280 -56.932  1.00  0.00     0.020 A 
HETATM   22  C   UNL     1     -34.978  42.563 -55.603  1.00  0.00     0.038 A 
HETATM   23  C   UNL     1     -35.886  42.334 -54.570  1.00  0.00     0.068 A 
HETATM   24  C   UNL     1     -37.161  41.855 -54.875  1.00  0.00     0.038 A 
HETATM   25  C   UNL     1     -37.513  41.562 -56.195  1.00  0.00     0.020 A 
BRANCH  23  26
HETATM   26  O   UNL     1     -35.659  42.562 -53.242  1.00  0.00    -0.351 OA
BRANCH  26  27
HETATM   27  C   UNL     1     -35.587  41.410 -52.398  1.00  0.00     0.176 C 
BRANCH  27  28
HETATM   28  C   UNL     1     -34.423  41.619 -51.428  1.00  0.00     0.030 C 
BRANCH  28  29
HETATM   29  C   UNL     1     -33.472  40.415 -51.331  1.00  0.00    -0.021 C 
HETATM   30  C   UNL     1     -33.246  39.968 -49.885  1.00  0.00     0.009 C 
HETATM   31  C   UNL     1     -32.129  40.760 -51.979  1.00  0.00     0.009 C 
ENDBRANCH  28  29
ENDBRANCH  27  28
ENDBRANCH  26  27
ENDBRANCH  23  26
ENDBRANCH   1  20
TORSDOF 7
ENDMDL
MODEL 2
REMARK VINA RESULT:      -7.8     15.691     18.695
REMARK  7 active torsions:
REMARK  status: ('A' for Active; 'I' for Inactive)
REMARK    1  A    between atoms: C_2  and  C_3 
REMARK    2  A    between atoms: C_3  and  C_4 
REMARK    3  A    between atoms: C_4  and  O_5 
REMARK    4  A    between atoms: O_5  and  C_6 
REMARK    5  A    between atoms: C_9  and  C_10 
REMARK       I    between atoms: C_10  and  N_11 
REMARK    6  A    between atoms: N_11  and  C_12 
REMARK    7  A    between atoms: C_19  and  C_20 
REMARK       I    between atoms: C_20  and  N_21 
ROOT
HETATM    1  C   UNL     1     -42.554  54.897 -56.105  1.00  0.00     0.256 C 
HETATM    2  N   UNL     1     -41.378  54.935 -55.375  1.00  0.00    -0.323 N 
HETATM    3  O   UNL     1     -43.436  54.052 -56.012  1.00  0.00    -0.267 OA
HETATM    4  H   UNL     1     -40.733  55.686 -55.565  1.00  0.00     0.169 HD
ENDROOT
BRANCH   2   5
HETATM    5  C   UNL     1     -40.989  54.066 -54.329  1.00  0.00     0.036 A 
HETATM    6  C   UNL     1     -41.286  54.286 -52.978  1.00  0.00     0.046 A 
HETATM    7  C   UNL     1     -40.811  53.382 -52.002  1.00  0.00     0.030 A 
HETATM    8  C   UNL     1     -40.078  52.276 -52.414  1.00  0.00     0.063 A 
HETATM    9  C   UNL     1     -40.860  53.281 -50.579  1.00  0.00     0.156 A 
HETATM   10  N   UNL     1     -39.771  51.596 -51.269  1.00  0.00    -0.277 N 
HETATM   11  C   UNL     1     -39.774  52.017 -53.751  1.00  0.00     0.034 A 
HETATM   12  H   UNL     1     -39.247  50.732 -51.190  1.00  0.00     0.189 HD
HETATM   13  N   UNL     1     -40.218  52.173 -50.142  1.00  0.00    -0.168 NA
HETATM   14  C   UNL     1     -40.236  52.941 -54.697  1.00  0.00     0.032 A 
BRANCH   9  15
HETATM   15  C   UNL     1     -41.486  54.216 -49.633  1.00  0.00     0.270 C 
HETATM   16  N   UNL     1     -40.737  54.463 -48.515  1.00  0.00    -0.365 N 
HETATM   17  H   UNL     1     -39.832  54.015 -48.428  1.00  0.00     0.159 HD
HETATM   18  H   UNL     1     -41.073  55.114 -47.824  1.00  0.00     0.159 HD
HETATM   19  O   UNL     1     -42.574  54.758 -49.798  1.00  0.00    -0.266 OA
ENDBRANCH   9  15
ENDBRANCH   2   5
BRANCH   1  20
HETATM   20  C   UNL     1     -42.756  56.019 -57.077  1.00  0.00     0.032 A 
HETATM   21  C   UNL     1     -42.539  57.366 -56.755  1.00  0.00     0.020 A 
HETATM   22  C   UNL     1     -42.792  58.371 -57.700  1.00  0.00     0.038 A 
HETATM   23  C   UNL     1     -43.249  58.040 -58.975  1.00  0.00     0.068 A 
HETATM   24  C   UNL     1     -43.418  56.696 -59.313  1.00  0.00     0.038 A 
HETATM   25  C   UNL     1     -43.177  55.692 -58.372  1.00  0.00     0.020 A 
BRANCH  23  26
HETATM   26  O   UNL     1     -43.537  58.925 -59.975  1.00  0.00    -0.351 OA
BRANCH  26  27
HETATM   27  C   UNL     1     -44.857  58.868 -60.523  1.00  0.00     0.176 C 
BRANCH  27  28
HETATM   28  C   UNL     1     -45.808  59.494 -59.503  1.00  0.00     0.030 C 
BRANCH  28  29
HETATM   29  C   UNL     1     -46.888  58.529 -58.987  1.00  0.00    -0.021 C 
HETATM   30  C   UNL     1     -46.694  58.174 -57.512  1.00  0.00     0.009 C 
HETATM   31  C   UNL     1     -46.887  57.251 -59.829  1.00  0.00     0.009 C 
ENDBRANCH  28  29
ENDBRANCH  27  28
ENDBRANCH  26  27
ENDBRANCH  23  26
ENDBRANCH   1  20
TORSDOF 7
ENDMDL
MODEL 3
REMARK VINA RESULT:      -7.7     15.138     18.034
REMARK  7 active torsions:
REMARK  status: ('A' for Active; 'I' for Inactive)
REMARK    1  A    between atoms: C_2  and  C_3 
REMARK    2  A    between atoms: C_3  and  C_4 
REMARK    3  A    between atoms: C_4  and  O_5 
REMARK    4  A    between atoms: O_5  and  C_6 
REMARK    5  A    between atoms: C_9  and  C_10 
REMARK       I    between atoms: C_10  and  N_11 
REMARK    6  A    between atoms: N_11  and  C_12 
REMARK    7  A    between atoms: C_19  and  C_20 
REMARK       I    between atoms: C_20  and  N_21 
ROOT
HETATM    1  C   UNL     1     -42.513  55.117 -56.078  1.00  0.00     0.256 C 
HETATM    2  N   UNL     1     -41.355  55.249 -55.330  1.00  0.00    -0.323 N 
HETATM    3  O   UNL     1     -43.356  54.236 -55.956  1.00  0.00    -0.267 OA
HETATM    4  H   UNL     1     -40.743  56.019 -55.549  1.00  0.00     0.169 HD
ENDROOT
BRANCH   2   5
HETATM    5  C   UNL     1     -40.947  54.453 -54.235  1.00  0.00     0.036 A 
HETATM    6  C   UNL     1     -40.582  53.105 -54.340  1.00  0.00     0.046 A 
HETATM    7  C   UNL     1     -40.234  52.382 -53.177  1.00  0.00     0.030 A 
HETATM    8  C   UNL     1     -40.238  53.041 -51.953  1.00  0.00     0.063 A 
HETATM    9  C   UNL     1     -39.861  51.039 -52.870  1.00  0.00     0.156 A 
HETATM   10  N   UNL     1     -39.858  52.103 -51.034  1.00  0.00    -0.277 N 
HETATM   11  C   UNL     1     -40.584  54.386 -51.811  1.00  0.00     0.034 A 
HETATM   12  H   UNL     1     -39.746  52.232 -50.036  1.00  0.00     0.189 HD
HETATM   13  N   UNL     1     -39.629  50.883 -51.547  1.00  0.00    -0.168 NA
HETATM   14  C   UNL     1     -40.948  55.073 -52.976  1.00  0.00     0.032 A 
BRANCH   9  15
HETATM   15  C   UNL     1     -39.737  49.907 -53.800  1.00  0.00     0.270 C 
HETATM   16  N   UNL     1     -40.761  49.814 -54.704  1.00  0.00    -0.365 N 
HETATM   17  H   UNL     1     -41.493  50.514 -54.681  1.00  0.00     0.159 HD
HETATM   18  H   UNL     1     -40.746  49.086 -55.400  1.00  0.00     0.159 HD
HETATM   19  O   UNL     1     -38.812  49.103 -53.807  1.00  0.00    -0.266 OA
ENDBRANCH   9  15
ENDBRANCH   2   5
BRANCH   1  20
HETATM   20  C   UNL     1     -42.749  56.177 -57.110  1.00  0.00     0.032 A 
HETATM   21  C   UNL     1     -42.578  57.545 -56.862  1.00  0.00     0.020 A 
HETATM   22  C   UNL     1     -42.860  58.488 -57.861  1.00  0.00     0.038 A 
HETATM   23  C   UNL     1     -43.302  58.073 -59.117  1.00  0.00     0.068 A 
HETATM   24  C   UNL     1     -43.425  56.709 -59.381  1.00  0.00     0.038 A 
HETATM   25  C   UNL     1     -43.155  55.766 -58.386  1.00  0.00     0.020 A 
BRANCH  23  26
HETATM   26  O   UNL     1     -43.615  58.893 -60.165  1.00  0.00    -0.351 OA
BRANCH  26  27
HETATM   27  C   UNL     1     -44.970  58.861 -60.621  1.00  0.00     0.176 C 
BRANCH  27  28
HETATM   28  C   UNL     1     -45.842  59.470 -59.523  1.00  0.00     0.030 C 
BRANCH  28  29
HETATM   29  C   UNL     1     -46.915  58.512 -58.980  1.00  0.00    -0.021 C 
HETATM   30  C   UNL     1     -46.696  58.171 -57.504  1.00  0.00     0.009 C 
HETATM   31  C   UNL     1     -46.931  57.226 -59.809  1.00  0.00     0.009 C 
ENDBRANCH  28  29
ENDBRANCH  27  28
ENDBRANCH  26  27
ENDBRANCH  23  26
ENDBRANCH   1  20
TORSDOF 7
ENDMDL
MODEL 4
REMARK VINA RESULT:      -7.7     15.431     18.324
REMARK  7 active torsions:
REMARK  status: ('A' for Active; 'I' for Inactive)
REMARK    1  A    between atoms: C_2  and  C_3 
REMARK    2  A    between atoms: C_3  and  C_4 
REMARK    3  A    between atoms: C_4  and  O_5 
REMARK    4  A    between atoms: O_5  and  C_6 
REMARK    5  A    between atoms: C_9  and  C_10 
REMARK       I    between atoms: C_10  and  N_11 
REMARK    6  A    between atoms: N_11  and  C_12 
REMARK    7  A    between atoms: C_19  and  C_20 
REMARK       I    between atoms: C_20  and  N_21 
ROOT
HETATM    1  C   UNL     1     -42.621  55.004 -56.255  1.00  0.00     0.256 C 
HETATM    2  N   UNL     1     -41.413  55.130 -55.591  1.00  0.00    -0.323 N 
HETATM    3  O   UNL     1     -43.551  54.274 -55.932  1.00  0.00    -0.267 OA
HETATM    4  H   UNL     1     -40.730  55.763 -55.979  1.00  0.00     0.169 HD
ENDROOT
BRANCH   2   5
HETATM    5  C   UNL     1     -41.033  54.514 -54.376  1.00  0.00     0.036 A 
HETATM    6  C   UNL     1     -40.576  53.193 -54.279  1.00  0.00     0.046 A 
HETATM    7  C   UNL     1     -40.265  52.652 -53.011  1.00  0.00     0.030 A 
HETATM    8  C   UNL     1     -40.399  53.460 -51.888  1.00  0.00     0.063 A 
HETATM    9  C   UNL     1     -39.829  51.390 -52.507  1.00  0.00     0.156 A 
HETATM   10  N   UNL     1     -40.026  52.677 -50.832  1.00  0.00    -0.277 N 
HETATM   11  C   UNL     1     -40.839  54.783 -51.948  1.00  0.00     0.034 A 
HETATM   12  H   UNL     1     -39.993  52.941 -49.854  1.00  0.00     0.189 HD
HETATM   13  N   UNL     1     -39.682  51.422 -51.163  1.00  0.00    -0.168 NA
HETATM   14  C   UNL     1     -41.163  55.287 -53.213  1.00  0.00     0.032 A 
BRANCH   9  15
HETATM   15  C   UNL     1     -39.567  50.161 -53.270  1.00  0.00     0.270 C 
HETATM   16  N   UNL     1     -39.441  49.040 -52.493  1.00  0.00    -0.365 N 
HETATM   17  H   UNL     1     -39.550  49.130 -51.490  1.00  0.00     0.159 HD
HETATM   18  H   UNL     1     -39.289  48.146 -52.931  1.00  0.00     0.159 HD
HETATM   19  O   UNL     1     -39.475  50.098 -54.490  1.00  0.00    -0.266 OA
ENDBRANCH   9  15
ENDBRANCH   2   5
BRANCH   1  20
HETATM   20  C   UNL     1     -42.796  55.869 -57.466  1.00  0.00     0.032 A 
HETATM   21  C   UNL     1     -43.353  55.410 -58.667  1.00  0.00     0.020 A 
HETATM   22  C   UNL     1     -43.445  56.262 -59.777  1.00  0.00     0.038 A 
HETATM   23  C   UNL     1     -42.995  57.579 -59.694  1.00  0.00     0.068 A 
HETATM   24  C   UNL     1     -42.486  58.052 -58.483  1.00  0.00     0.038 A 
HETATM   25  C   UNL     1     -42.383  57.205 -57.378  1.00  0.00     0.020 A 
BRANCH  23  26
HETATM   26  O   UNL     1     -43.025  58.499 -60.704  1.00  0.00    -0.351 OA
BRANCH  26  27
HETATM   27  C   UNL     1     -42.905  59.872 -60.324  1.00  0.00     0.176 C 
BRANCH  27  28
HETATM   28  C   UNL     1     -41.885  60.523 -61.258  1.00  0.00     0.030 C 
BRANCH  28  29
HETATM   29  C   UNL     1     -41.437  61.924 -60.809  1.00  0.00    -0.021 C 
HETATM   30  C   UNL     1     -40.380  62.522 -61.740  1.00  0.00     0.009 C 
HETATM   31  C   UNL     1     -40.892  61.863 -59.381  1.00  0.00     0.009 C 
ENDBRANCH  28  29
ENDBRANCH  27  28
ENDBRANCH  26  27
ENDBRANCH  23  26
ENDBRANCH   1  20
TORSDOF 7
ENDMDL
MODEL 5
REMARK VINA RESULT:      -7.5     15.591     17.291
REMARK  7 active torsions:
REMARK  status: ('A' for Active; 'I' for Inactive)
REMARK    1  A    between atoms: C_2  and  C_3 
REMARK    2  A    between atoms: C_3  and  C_4 
REMARK    3  A    between atoms: C_4  and  O_5 
REMARK    4  A    between atoms: O_5  and  C_6 
REMARK    5  A    between atoms: C_9  and  C_10 
REMARK       I    between atoms: C_10  and  N_11 
REMARK    6  A    between atoms: N_11  and  C_12 
REMARK    7  A    between atoms: C_19  and  C_20 
REMARK       I    between atoms: C_20  and  N_21 
ROOT
HETATM    1  C   UNL     1     -43.215  56.388 -54.102  1.00  0.00     0.256 C 
HETATM    2  N   UNL     1     -42.477  56.833 -55.186  1.00  0.00    -0.323 N 
HETATM    3  O   UNL     1     -44.409  56.586 -53.910  1.00  0.00    -0.267 OA
HETATM    4  H   UNL     1     -41.495  56.605 -55.208  1.00  0.00     0.169 HD
ENDROOT
BRANCH   2   5
HETATM    5  C   UNL     1     -42.953  57.531 -56.319  1.00  0.00     0.036 A 
HETATM    6  C   UNL     1     -43.590  56.918 -57.405  1.00  0.00     0.046 A 
HETATM    7  C   UNL     1     -43.988  57.698 -58.515  1.00  0.00     0.030 A 
HETATM    8  C   UNL     1     -43.758  59.068 -58.486  1.00  0.00     0.063 A 
HETATM    9  C   UNL     1     -44.600  57.453 -59.781  1.00  0.00     0.156 A 
HETATM   10  N   UNL     1     -44.248  59.543 -59.670  1.00  0.00    -0.277 N 
HETATM   11  C   UNL     1     -43.138  59.716 -57.417  1.00  0.00     0.034 A 
HETATM   12  H   UNL     1     -44.256  60.505 -59.989  1.00  0.00     0.189 HD
HETATM   13  N   UNL     1     -44.758  58.601 -60.480  1.00  0.00    -0.168 NA
HETATM   14  C   UNL     1     -42.732  58.916 -56.341  1.00  0.00     0.032 A 
BRANCH   9  15
HETATM   15  C   UNL     1     -45.020  56.161 -60.341  1.00  0.00     0.270 C 
HETATM   16  N   UNL     1     -46.224  55.713 -59.867  1.00  0.00    -0.365 N 
HETATM   17  H   UNL     1     -46.728  56.289 -59.203  1.00  0.00     0.159 HD
HETATM   18  H   UNL     1     -46.606  54.849 -60.216  1.00  0.00     0.159 HD
HETATM   19  O   UNL     1     -44.387  55.515 -61.168  1.00  0.00    -0.266 OA
ENDBRANCH   9  15
ENDBRANCH   2   5
BRANCH   1  20
HETATM   20  C   UNL     1     -42.469  55.567 -53.095  1.00  0.00     0.032 A 
HETATM   21  C   UNL     1     -41.198  55.908 -52.613  1.00  0.00     0.020 A 
HETATM   22  C   UNL     1     -40.536  55.070 -51.704  1.00  0.00     0.038 A 
HETATM   23  C   UNL     1     -41.141  53.894 -51.261  1.00  0.00     0.068 A 
HETATM   24  C   UNL     1     -42.426  53.578 -51.702  1.00  0.00     0.038 A 
HETATM   25  C   UNL     1     -43.086  54.405 -52.615  1.00  0.00     0.020 A 
BRANCH  23  26
HETATM   26  O   UNL     1     -40.596  52.997 -50.386  1.00  0.00    -0.351 OA
BRANCH  26  27
HETATM   27  C   UNL     1     -40.411  51.663 -50.868  1.00  0.00     0.176 C 
BRANCH  27  28
HETATM   28  C   UNL     1     -39.459  51.730 -52.062  1.00  0.00     0.030 C 
BRANCH  28  29
HETATM   29  C   UNL     1     -40.100  51.303 -53.393  1.00  0.00    -0.021 C 
HETATM   30  C   UNL     1     -39.391  50.102 -54.021  1.00  0.00     0.009 C 
HETATM   31  C   UNL     1     -40.092  52.478 -54.374  1.00  0.00     0.009 C 
ENDBRANCH  28  29
ENDBRANCH  27  28
ENDBRANCH  26  27
ENDBRANCH  23  26
ENDBRANCH   1  20
TORSDOF 7
ENDMDL
MODEL 6
REMARK VINA RESULT:      -7.4     16.071     18.994
REMARK  7 active torsions:
REMARK  status: ('A' for Active; 'I' for Inactive)
REMARK    1  A    between atoms: C_2  and  C_3 
REMARK    2  A    between atoms: C_3  and  C_4 
REMARK    3  A    between atoms: C_4  and  O_5 
REMARK    4  A    between atoms: O_5  and  C_6 
REMARK    5  A    between atoms: C_9  and  C_10 
REMARK       I    between atoms: C_10  and  N_11 
REMARK    6  A    between atoms: N_11  and  C_12 
REMARK    7  A    between atoms: C_19  and  C_20 
REMARK       I    between atoms: C_20  and  N_21 
ROOT
HETATM    1  C   UNL     1     -42.480  55.053 -56.225  1.00  0.00     0.256 C 
HETATM    2  N   UNL     1     -41.301  55.049 -55.498  1.00  0.00    -0.323 N 
HETATM    3  O   UNL     1     -43.410  54.267 -56.098  1.00  0.00    -0.267 OA
HETATM    4  H   UNL     1     -40.613  55.752 -55.719  1.00  0.00     0.169 HD
ENDROOT
BRANCH   2   5
HETATM    5  C   UNL     1     -40.962  54.200 -54.420  1.00  0.00     0.036 A 
HETATM    6  C   UNL     1     -41.305  54.453 -53.086  1.00  0.00     0.046 A 
HETATM    7  C   UNL     1     -40.878  53.566 -52.073  1.00  0.00     0.030 A 
HETATM    8  C   UNL     1     -40.143  52.443 -52.434  1.00  0.00     0.063 A 
HETATM    9  C   UNL     1     -40.981  53.497 -50.651  1.00  0.00     0.156 A 
HETATM   10  N   UNL     1     -39.886  51.785 -51.263  1.00  0.00    -0.277 N 
HETATM   11  C   UNL     1     -39.793  52.151 -53.753  1.00  0.00     0.034 A 
HETATM   12  H   UNL     1     -39.375  50.918 -51.146  1.00  0.00     0.189 HD
HETATM   13  N   UNL     1     -40.368  52.393 -50.167  1.00  0.00    -0.168 NA
HETATM   14  C   UNL     1     -40.208  53.059 -54.735  1.00  0.00     0.032 A 
BRANCH   9  15
HETATM   15  C   UNL     1     -41.630  54.460 -49.750  1.00  0.00     0.270 C 
HETATM   16  N   UNL     1     -42.949  54.689 -50.037  1.00  0.00    -0.365 N 
HETATM   17  H   UNL     1     -43.372  54.187 -50.808  1.00  0.00     0.159 HD
HETATM   18  H   UNL     1     -43.483  55.314 -49.455  1.00  0.00     0.159 HD
HETATM   19  O   UNL     1     -41.081  55.021 -48.808  1.00  0.00    -0.266 OA
ENDBRANCH   9  15
ENDBRANCH   2   5
BRANCH   1  20
HETATM   20  C   UNL     1     -42.618  56.147 -57.240  1.00  0.00     0.032 A 
HETATM   21  C   UNL     1     -42.473  57.506 -56.932  1.00  0.00     0.020 A 
HETATM   22  C   UNL     1     -42.661  58.482 -57.921  1.00  0.00     0.038 A 
HETATM   23  C   UNL     1     -42.981  58.109 -59.226  1.00  0.00     0.068 A 
HETATM   24  C   UNL     1     -43.076  56.754 -59.546  1.00  0.00     0.038 A 
HETATM   25  C   UNL     1     -42.900  55.779 -58.561  1.00  0.00     0.020 A 
BRANCH  23  26
HETATM   26  O   UNL     1     -43.194  58.963 -60.272  1.00  0.00    -0.351 OA
BRANCH  26  27
HETATM   27  C   UNL     1     -42.929  60.348 -60.032  1.00  0.00     0.176 C 
BRANCH  27  28
HETATM   28  C   UNL     1     -42.004  60.842 -61.144  1.00  0.00     0.030 C 
BRANCH  28  29
HETATM   29  C   UNL     1     -41.321  62.184 -60.833  1.00  0.00    -0.021 C 
HETATM   30  C   UNL     1     -40.238  62.536 -61.855  1.00  0.00     0.009 C 
HETATM   31  C   UNL     1     -40.712  62.145 -59.430  1.00  0.00     0.009 C 
ENDBRANCH  28  29
ENDBRANCH  27  28
ENDBRANCH  26  27
ENDBRANCH  23  26
ENDBRANCH   1  20
TORSDOF 7
ENDMDL
MODEL 7
REMARK VINA RESULT:      -7.3      5.973     11.994
REMARK  7 active torsions:
REMARK  status: ('A' for Active; 'I' for Inactive)
REMARK    1  A    between atoms: C_2  and  C_3 
REMARK    2  A    between atoms: C_3  and  C_4 
REMARK    3  A    between atoms: C_4  and  O_5 
REMARK    4  A    between atoms: O_5  and  C_6 
REMARK    5  A    between atoms: C_9  and  C_10 
REMARK       I    between atoms: C_10  and  N_11 
REMARK    6  A    between atoms: N_11  and  C_12 
REMARK    7  A    between atoms: C_19  and  C_20 
REMARK       I    between atoms: C_20  and  N_21 
ROOT
HETATM    1  C   UNL     1     -34.400  40.757 -51.529  1.00  0.00     0.256 C 
HETATM    2  N   UNL     1     -33.580  39.705 -51.154  1.00  0.00    -0.323 N 
HETATM    3  O   UNL     1     -35.046  41.474 -50.774  1.00  0.00    -0.267 OA
HETATM    4  H   UNL     1     -33.116  39.190 -51.887  1.00  0.00     0.169 HD
ENDROOT
BRANCH   2   5
HETATM    5  C   UNL     1     -33.260  39.293 -49.840  1.00  0.00     0.036 A 
HETATM    6  C   UNL     1     -32.103  39.688 -49.157  1.00  0.00     0.046 A 
HETATM    7  C   UNL     1     -31.849  39.183 -47.862  1.00  0.00     0.030 A 
HETATM    8  C   UNL     1     -32.774  38.320 -47.287  1.00  0.00     0.063 A 
HETATM    9  C   UNL     1     -30.807  39.304 -46.893  1.00  0.00     0.156 A 
HETATM   10  N   UNL     1     -32.268  38.013 -46.054  1.00  0.00    -0.277 N 
HETATM   11  C   UNL     1     -33.944  37.915 -47.932  1.00  0.00     0.034 A 
HETATM   12  H   UNL     1     -32.683  37.411 -45.353  1.00  0.00     0.189 HD
HETATM   13  N   UNL     1     -31.082  38.581 -45.784  1.00  0.00    -0.168 NA
HETATM   14  C   UNL     1     -34.160  38.410 -49.224  1.00  0.00     0.032 A 
BRANCH   9  15
HETATM   15  C   UNL     1     -29.561  40.074 -47.007  1.00  0.00     0.270 C 
HETATM   16  N   UNL     1     -29.544  41.220 -46.260  1.00  0.00    -0.365 N 
HETATM   17  H   UNL     1     -30.352  41.440 -45.690  1.00  0.00     0.159 HD
HETATM   18  H   UNL     1     -28.718  41.798 -46.253  1.00  0.00     0.159 HD
HETATM   19  O   UNL     1     -28.595  39.749 -47.689  1.00  0.00    -0.266 OA
ENDBRANCH   9  15
ENDBRANCH   2   5
BRANCH   1  20
HETATM   20  C   UNL     1     -34.467  41.043 -52.998  1.00  0.00     0.032 A 
HETATM   21  C   UNL     1     -33.621  40.441 -53.939  1.00  0.00     0.020 A 
HETATM   22  C   UNL     1     -33.707  40.788 -55.295  1.00  0.00     0.038 A 
HETATM   23  C   UNL     1     -34.645  41.727 -55.723  1.00  0.00     0.068 A 
HETATM   24  C   UNL     1     -35.521  42.291 -54.794  1.00  0.00     0.038 A 
HETATM   25  C   UNL     1     -35.432  41.955 -53.441  1.00  0.00     0.020 A 
BRANCH  23  26
HETATM   26  O   UNL     1     -34.820  42.152 -57.010  1.00  0.00    -0.351 OA
BRANCH  26  27
HETATM   27  C   UNL     1     -36.138  42.030 -57.551  1.00  0.00     0.176 C 
BRANCH  27  28
HETATM   28  C   UNL     1     -36.316  40.584 -58.015  1.00  0.00     0.030 C 
BRANCH  28  29
HETATM   29  C   UNL     1     -37.432  39.828 -57.275  1.00  0.00    -0.021 C 
HETATM   30  C   UNL     1     -38.371  40.770 -56.520  1.00  0.00     0.009 C 
HETATM   31  C   UNL     1     -36.818  38.821 -56.299  1.00  0.00     0.009 C 
ENDBRANCH  28  29
ENDBRANCH  27  28
ENDBRANCH  26  27
ENDBRANCH  23  26
ENDBRANCH   1  20
TORSDOF 7
ENDMDL
MODEL 8
REMARK VINA RESULT:      -7.2     20.175     23.232
REMARK  7 active torsions:
REMARK  status: ('A' for Active; 'I' for Inactive)
REMARK    1  A    between atoms: C_2  and  C_3 
REMARK    2  A    between atoms: C_3  and  C_4 
REMARK    3  A    between atoms: C_4  and  O_5 
REMARK    4  A    between atoms: O_5  and  C_6 
REMARK    5  A    between atoms: C_9  and  C_10 
REMARK       I    between atoms: C_10  and  N_11 
REMARK    6  A    between atoms: N_11  and  C_12 
REMARK    7  A    between atoms: C_19  and  C_20 
REMARK       I    between atoms: C_20  and  N_21 
ROOT
HETATM    1  C   UNL     1     -45.450  58.852 -50.652  1.00  0.00     0.256 C 
HETATM    2  N   UNL     1     -44.722  59.902 -50.120  1.00  0.00    -0.323 N 
HETATM    3  O   UNL     1     -46.621  58.586 -50.408  1.00  0.00    -0.267 OA
HETATM    4  H   UNL     1     -43.758  59.993 -50.402  1.00  0.00     0.169 HD
ENDROOT
BRANCH   2   5
HETATM    5  C   UNL     1     -45.189  60.918 -49.255  1.00  0.00     0.036 A 
HETATM    6  C   UNL     1     -44.847  61.012 -47.900  1.00  0.00     0.046 A 
HETATM    7  C   UNL     1     -45.406  62.040 -47.107  1.00  0.00     0.030 A 
HETATM    8  C   UNL     1     -46.266  62.953 -47.704  1.00  0.00     0.063 A 
HETATM    9  C   UNL     1     -45.345  62.433 -45.736  1.00  0.00     0.156 A 
HETATM   10  N   UNL     1     -46.630  63.814 -46.708  1.00  0.00    -0.277 N 
HETATM   11  C   UNL     1     -46.620  62.899 -49.053  1.00  0.00     0.034 A 
HETATM   12  H   UNL     1     -47.247  64.614 -46.783  1.00  0.00     0.189 HD
HETATM   13  N   UNL     1     -46.101  63.530 -45.506  1.00  0.00    -0.168 NA
HETATM   14  C   UNL     1     -46.072  61.856 -49.811  1.00  0.00     0.032 A 
BRANCH   9  15
HETATM   15  C   UNL     1     -44.601  61.783 -44.648  1.00  0.00     0.270 C 
HETATM   16  N   UNL     1     -44.443  60.433 -44.810  1.00  0.00    -0.365 N 
HETATM   17  H   UNL     1     -44.819  59.997 -45.643  1.00  0.00     0.159 HD
HETATM   18  H   UNL     1     -43.921  59.908 -44.127  1.00  0.00     0.159 HD
HETATM   19  O   UNL     1     -44.137  62.362 -43.672  1.00  0.00    -0.266 OA
ENDBRANCH   9  15
ENDBRANCH   2   5
BRANCH   1  20
HETATM   20  C   UNL     1     -44.725  57.987 -51.638  1.00  0.00     0.032 A 
HETATM   21  C   UNL     1     -44.732  58.221 -53.020  1.00  0.00     0.020 A 
HETATM   22  C   UNL     1     -44.069  57.345 -53.891  1.00  0.00     0.038 A 
HETATM   23  C   UNL     1     -43.384  56.238 -53.391  1.00  0.00     0.068 A 
HETATM   24  C   UNL     1     -43.335  56.032 -52.012  1.00  0.00     0.038 A 
HETATM   25  C   UNL     1     -44.002  56.896 -51.140  1.00  0.00     0.020 A 
BRANCH  23  26
HETATM   26  O   UNL     1     -42.709  55.313 -54.136  1.00  0.00    -0.351 OA
BRANCH  26  27
HETATM   27  C   UNL     1     -41.612  54.654 -53.498  1.00  0.00     0.176 C 
BRANCH  27  28
HETATM   28  C   UNL     1     -41.592  53.206 -53.990  1.00  0.00     0.030 C 
BRANCH  28  29
HETATM   29  C   UNL     1     -40.269  52.474 -53.710  1.00  0.00    -0.021 C 
HETATM   30  C   UNL     1     -40.263  51.051 -54.272  1.00  0.00     0.009 C 
HETATM   31  C   UNL     1     -40.006  52.434 -52.203  1.00  0.00     0.009 C 
ENDBRANCH  28  29
ENDBRANCH  27  28
ENDBRANCH  26  27
ENDBRANCH  23  26
ENDBRANCH   1  20
TORSDOF 7
ENDMDL
MODEL 9
REMARK VINA RESULT:      -7.1     20.884     23.617
REMARK  7 active torsions:
REMARK  status: ('A' for Active; 'I' for Inactive)
REMARK    1  A    between atoms: C_2  and  C_3 
REMARK    2  A    between atoms: C_3  and  C_4 
REMARK    3  A    between atoms: C_4  and  O_5 
REMARK    4  A    between atoms: O_5  and  C_6 
REMARK    5  A    between atoms: C_9  and  C_10 
REMARK       I    between atoms: C_10  and  N_11 
REMARK    6  A    between atoms: N_11  and  C_12 
REMARK    7  A    between atoms: C_19  and  C_20 
REMARK       I    between atoms: C_20  and  N_21 
ROOT
HETATM    1  C   UNL     1     -45.453  59.122 -50.530  1.00  0.00     0.256 C 
HETATM    2  N   UNL     1     -44.815  60.167 -49.884  1.00  0.00    -0.323 N 
HETATM    3  O   UNL     1     -46.602  58.744 -50.334  1.00  0.00    -0.267 OA
HETATM    4  H   UNL     1     -43.859  60.361 -50.139  1.00  0.00     0.169 HD
ENDROOT
BRANCH   2   5
HETATM    5  C   UNL     1     -45.370  61.053 -48.932  1.00  0.00     0.036 A 
HETATM    6  C   UNL     1     -46.515  61.827 -49.158  1.00  0.00     0.046 A 
HETATM    7  C   UNL     1     -46.964  62.720 -48.159  1.00  0.00     0.030 A 
HETATM    8  C   UNL     1     -46.266  62.788 -46.960  1.00  0.00     0.063 A 
HETATM    9  C   UNL     1     -48.019  63.673 -48.026  1.00  0.00     0.156 A 
HETATM   10  N   UNL     1     -46.930  63.714 -46.205  1.00  0.00    -0.277 N 
HETATM   11  C   UNL     1     -45.129  62.024 -46.694  1.00  0.00     0.034 A 
HETATM   12  H   UNL     1     -46.704  64.016 -45.265  1.00  0.00     0.189 HD
HETATM   13  N   UNL     1     -47.987  64.275 -46.815  1.00  0.00    -0.168 NA
HETATM   14  C   UNL     1     -44.691  61.165 -47.709  1.00  0.00     0.032 A 
BRANCH   9  15
HETATM   15  C   UNL     1     -49.038  64.030 -49.024  1.00  0.00     0.270 C 
HETATM   16  N   UNL     1     -50.311  63.670 -48.673  1.00  0.00    -0.365 N 
HETATM   17  H   UNL     1     -50.459  63.216 -47.779  1.00  0.00     0.159 HD
HETATM   18  H   UNL     1     -51.079  63.900 -49.283  1.00  0.00     0.159 HD
HETATM   19  O   UNL     1     -48.812  64.609 -50.081  1.00  0.00    -0.266 OA
ENDBRANCH   9  15
ENDBRANCH   2   5
BRANCH   1  20
HETATM   20  C   UNL     1     -44.653  58.419 -51.584  1.00  0.00     0.032 A 
HETATM   21  C   UNL     1     -44.622  58.823 -52.925  1.00  0.00     0.020 A 
HETATM   22  C   UNL     1     -43.887  58.091 -53.870  1.00  0.00     0.038 A 
HETATM   23  C   UNL     1     -43.168  56.961 -53.481  1.00  0.00     0.068 A 
HETATM   24  C   UNL     1     -43.158  56.587 -52.137  1.00  0.00     0.038 A 
HETATM   25  C   UNL     1     -43.897  57.306 -51.194  1.00  0.00     0.020 A 
BRANCH  23  26
HETATM   26  O   UNL     1     -42.423  56.166 -54.305  1.00  0.00    -0.351 OA
BRANCH  26  27
HETATM   27  C   UNL     1     -41.374  55.413 -53.692  1.00  0.00     0.176 C 
BRANCH  27  28
HETATM   28  C   UNL     1     -41.491  53.970 -54.184  1.00  0.00     0.030 C 
BRANCH  28  29
HETATM   29  C   UNL     1     -40.359  53.052 -53.693  1.00  0.00    -0.021 C 
HETATM   30  C   UNL     1     -40.472  51.636 -54.260  1.00  0.00     0.009 C 
HETATM   31  C   UNL     1     -40.361  52.997 -52.164  1.00  0.00     0.009 C 
ENDBRANCH  28  29
ENDBRANCH  27  28
ENDBRANCH  26  27
ENDBRANCH  23  26
ENDBRANCH   1  20
TORSDOF 7
ENDMDL
MODEL 10
REMARK VINA RESULT:      -7.1      6.177     12.703
REMARK  7 active torsions:
REMARK  status: ('A' for Active; 'I' for Inactive)
REMARK    1  A    between atoms: C_2  and  C_3 
REMARK    2  A    between atoms: C_3  and  C_4 
REMARK    3  A    between atoms: C_4  and  O_5 
REMARK    4  A    between atoms: O_5  and  C_6 
REMARK    5  A    between atoms: C_9  and  C_10 
REMARK       I    between atoms: C_10  and  N_11 
REMARK    6  A    between atoms: N_11  and  C_12 
REMARK    7  A    between atoms: C_19  and  C_20 
REMARK       I    between atoms: C_20  and  N_21 
ROOT
HETATM    1  C   UNL     1     -33.023  39.883 -51.555  1.00  0.00     0.256 C 
HETATM    2  N   UNL     1     -33.393  39.960 -50.223  1.00  0.00    -0.323 N 
HETATM    3  O   UNL     1     -32.065  39.265 -52.005  1.00  0.00    -0.267 OA
HETATM    4  H   UNL     1     -34.201  40.518 -49.993  1.00  0.00     0.169 HD
ENDROOT
BRANCH   2   5
HETATM    5  C   UNL     1     -32.799  39.291 -49.128  1.00  0.00     0.036 A 
HETATM    6  C   UNL     1     -31.818  39.857 -48.304  1.00  0.00     0.046 A 
HETATM    7  C   UNL     1     -31.251  39.089 -47.262  1.00  0.00     0.030 A 
HETATM    8  C   UNL     1     -31.704  37.790 -47.066  1.00  0.00     0.063 A 
HETATM    9  C   UNL     1     -30.240  39.279 -46.273  1.00  0.00     0.156 A 
HETATM   10  N   UNL     1     -30.990  37.312 -46.003  1.00  0.00    -0.277 N 
HETATM   11  C   UNL     1     -32.689  37.197 -47.858  1.00  0.00     0.034 A 
HETATM   12  H   UNL     1     -31.062  36.396 -45.577  1.00  0.00     0.189 HD
HETATM   13  N   UNL     1     -30.093  38.177 -45.502  1.00  0.00    -0.168 NA
HETATM   14  C   UNL     1     -33.217  37.971 -48.899  1.00  0.00     0.032 A 
BRANCH   9  15
HETATM   15  C   UNL     1     -29.407  40.471 -46.058  1.00  0.00     0.270 C 
HETATM   16  N   UNL     1     -29.736  41.186 -44.939  1.00  0.00    -0.365 N 
HETATM   17  H   UNL     1     -30.489  40.849 -44.351  1.00  0.00     0.159 HD
HETATM   18  H   UNL     1     -29.201  42.004 -44.696  1.00  0.00     0.159 HD
HETATM   19  O   UNL     1     -28.483  40.822 -46.784  1.00  0.00    -0.266 OA
ENDBRANCH   9  15
ENDBRANCH   2   5
BRANCH   1  20
HETATM   20  C   UNL     1     -33.907  40.609 -52.522  1.00  0.00     0.032 A 
HETATM   21  C   UNL     1     -34.957  41.449 -52.125  1.00  0.00     0.020 A 
HETATM   22  C   UNL     1     -35.776  42.063 -53.085  1.00  0.00     0.038 A 
HETATM   23  C   UNL     1     -35.545  41.855 -54.444  1.00  0.00     0.068 A 
HETATM   24  C   UNL     1     -34.470  41.060 -54.841  1.00  0.00     0.038 A 
HETATM   25  C   UNL     1     -33.658  40.438 -53.890  1.00  0.00     0.020 A 
BRANCH  23  26
HETATM   26  O   UNL     1     -36.274  42.390 -55.468  1.00  0.00    -0.351 OA
BRANCH  26  27
HETATM   27  C   UNL     1     -35.952  41.940 -56.787  1.00  0.00     0.176 C 
BRANCH  27  28
HETATM   28  C   UNL     1     -37.220  42.048 -57.635  1.00  0.00     0.030 C 
BRANCH  28  29
HETATM   29  C   UNL     1     -37.059  41.502 -59.064  1.00  0.00    -0.021 C 
HETATM   30  C   UNL     1     -37.383  42.554 -60.127  1.00  0.00     0.009 C 
HETATM   31  C   UNL     1     -37.959  40.280 -59.258  1.00  0.00     0.009 C 
ENDBRANCH  28  29
ENDBRANCH  27  28
ENDBRANCH  26  27
ENDBRANCH  23  26
ENDBRANCH   1  20
TORSDOF 7
ENDMDL
