MODEL 1
REMARK VINA RESULT:      -8.7      0.000      0.000
REMARK  9 active torsions:
REMARK  status: ('A' for Active; 'I' for Inactive)
REMARK    1  A    between atoms: O_2  and  C_3 
REMARK    2  A    between atoms: C_4  and  O_5 
REMARK    3  A    between atoms: C_8  and  C_9 
REMARK    4  A    between atoms: C_9  and  C_10 
REMARK    5  A    between atoms: C_10  and  N_11 
REMARK       I    between atoms: N_11  and  C_12 
REMARK    6  A    between atoms: C_12  and  C_13 
REMARK    7  A    between atoms: C_13  and  C_14 
REMARK    8  A    between atoms: N_21  and  C_22 
REMARK    9  A    between atoms: C_22  and  C_23 
REMARK       I    between atoms: C_23  and  N_24 
ROOT
HETATM    1  C   UNL     1     -43.370  57.749 -52.924  1.00  0.00     0.048 C 
HETATM    2  C   UNL     1     -42.296  58.226 -52.103  1.00  0.00     0.006 A 
HETATM    3  C   UNL     1     -42.778  59.331 -51.385  1.00  0.00     0.045 A 
HETATM    4  C   UNL     1     -41.981  60.032 -50.464  1.00  0.00     0.030 A 
HETATM    5  C   UNL     1     -40.661  59.620 -50.279  1.00  0.00     0.002 A 
HETATM    6  C   UNL     1     -40.152  58.535 -50.981  1.00  0.00     0.001 A 
HETATM    7  C   UNL     1     -40.956  57.831 -51.885  1.00  0.00     0.015 A 
HETATM    8  N   UNL     1     -44.093  59.517 -51.757  1.00  0.00    -0.346 N 
HETATM    9  C   UNL     1     -44.422  58.632 -52.745  1.00  0.00     0.108 C 
ENDROOT
BRANCH   1  10
HETATM   10  C   UNL     1     -43.461  56.597 -53.819  1.00  0.00     0.251 C 
HETATM   11  O   UNL     1     -43.779  55.481 -53.406  1.00  0.00    -0.281 OA
BRANCH  10  12
HETATM   12  C   UNL     1     -43.139  56.711 -55.312  1.00  0.00     0.292 C 
HETATM   13  N   UNL     1     -41.937  56.206 -55.765  1.00  0.00    -0.354 N 
HETATM   14  H   UNL     1     -41.735  56.475 -56.721  1.00  0.00     0.162 HD
HETATM   15  O   UNL     1     -43.922  57.261 -56.076  1.00  0.00    -0.264 OA
BRANCH  13  16
HETATM   16  C   UNL     1     -40.853  55.750 -54.912  1.00  0.00     0.127 C 
BRANCH  16  17
HETATM   17  C   UNL     1     -40.476  54.296 -55.196  1.00  0.00     0.058 C 
BRANCH  17  18
HETATM   18  C   UNL     1     -40.363  53.490 -53.927  1.00  0.00    -0.054 A 
HETATM   19  C   UNL     1     -40.691  54.064 -52.689  1.00  0.00     0.046 A 
HETATM   20  C   UNL     1     -40.569  53.345 -51.487  1.00  0.00     0.102 A 
HETATM   21  C   UNL     1     -40.104  52.018 -51.537  1.00  0.00     0.101 A 
HETATM   22  C   UNL     1     -39.767  51.454 -52.776  1.00  0.00     0.040 A 
HETATM   23  C   UNL     1     -39.895  52.176 -53.961  1.00  0.00     0.010 A 
BRANCH  20  24
HETATM   24  O   UNL     1     -40.862  53.886 -50.264  1.00  0.00    -0.353 OA
HETATM   25  C   UNL     1     -42.067  54.626 -50.121  1.00  0.00     0.210 C 
ENDBRANCH  20  24
BRANCH  21  26
HETATM   26  O   UNL     1     -39.900  51.141 -50.502  1.00  0.00    -0.353 OA
HETATM   27  C   UNL     1     -39.656  49.776 -50.801  1.00  0.00     0.210 C 
ENDBRANCH  21  26
ENDBRANCH  17  18
ENDBRANCH  16  17
ENDBRANCH  13  16
ENDBRANCH  10  12
ENDBRANCH   1  10
BRANCH   8  28
HETATM   28  C   UNL     1     -44.994  60.531 -51.229  1.00  0.00     0.231 C 
BRANCH  28  29
HETATM   29  C   UNL     1     -45.460  60.209 -49.818  1.00  0.00     0.238 C 
HETATM   30  N   UNL     1     -45.178  61.087 -48.767  1.00  0.00    -0.351 N 
HETATM   31  C   UNL     1     -45.676  60.747 -47.431  1.00  0.00     0.126 C 
HETATM   32  C   UNL     1     -44.420  62.337 -48.880  1.00  0.00     0.126 C 
HETATM   33  C   UNL     1     -46.623  61.789 -46.830  1.00  0.00     0.020 C 
HETATM   34  C   UNL     1     -45.900  63.052 -46.367  1.00  0.00     0.002 C 
HETATM   35  C   UNL     1     -45.640  64.091 -47.456  1.00  0.00     0.002 C 
HETATM   36  C   UNL     1     -45.330  63.561 -48.854  1.00  0.00     0.020 C 
HETATM   37  O   UNL     1     -46.073  59.151 -49.627  1.00  0.00    -0.272 OA
ENDBRANCH  28  29
ENDBRANCH   8  28
TORSDOF 9
ENDMDL
MODEL 2
REMARK VINA RESULT:      -8.6      3.343      7.558
REMARK  9 active torsions:
REMARK  status: ('A' for Active; 'I' for Inactive)
REMARK    1  A    between atoms: O_2  and  C_3 
REMARK    2  A    between atoms: C_4  and  O_5 
REMARK    3  A    between atoms: C_8  and  C_9 
REMARK    4  A    between atoms: C_9  and  C_10 
REMARK    5  A    between atoms: C_10  and  N_11 
REMARK       I    between atoms: N_11  and  C_12 
REMARK    6  A    between atoms: C_12  and  C_13 
REMARK    7  A    between atoms: C_13  and  C_14 
REMARK    8  A    between atoms: N_21  and  C_22 
REMARK    9  A    between atoms: C_22  and  C_23 
REMARK       I    between atoms: C_23  and  N_24 
ROOT
HETATM    1  C   UNL     1     -42.117  58.186 -54.092  1.00  0.00     0.048 C 
HETATM    2  C   UNL     1     -42.657  56.879 -54.330  1.00  0.00     0.006 A 
HETATM    3  C   UNL     1     -42.758  56.715 -55.719  1.00  0.00     0.045 A 
HETATM    4  C   UNL     1     -43.237  55.529 -56.302  1.00  0.00     0.030 A 
HETATM    5  C   UNL     1     -43.641  54.492 -55.460  1.00  0.00     0.002 A 
HETATM    6  C   UNL     1     -43.561  54.626 -54.081  1.00  0.00     0.001 A 
HETATM    7  C   UNL     1     -43.068  55.804 -53.507  1.00  0.00     0.015 A 
HETATM    8  N   UNL     1     -42.298  57.878 -56.301  1.00  0.00    -0.346 N 
HETATM    9  C   UNL     1     -42.003  58.793 -55.331  1.00  0.00     0.108 C 
ENDROOT
BRANCH   1  10
HETATM   10  C   UNL     1     -41.739  58.860 -52.852  1.00  0.00     0.251 C 
HETATM   11  O   UNL     1     -40.721  59.551 -52.777  1.00  0.00    -0.281 OA
BRANCH  10  12
HETATM   12  C   UNL     1     -42.572  58.723 -51.575  1.00  0.00     0.292 C 
HETATM   13  N   UNL     1     -42.126  57.867 -50.588  1.00  0.00    -0.354 N 
HETATM   14  H   UNL     1     -42.818  57.709 -49.865  1.00  0.00     0.162 HD
HETATM   15  O   UNL     1     -43.621  59.342 -51.448  1.00  0.00    -0.264 OA
BRANCH  13  16
HETATM   16  C   UNL     1     -41.031  56.924 -50.739  1.00  0.00     0.127 C 
BRANCH  16  17
HETATM   17  C   UNL     1     -41.193  55.710 -49.826  1.00  0.00     0.058 C 
BRANCH  17  18
HETATM   18  C   UNL     1     -40.777  54.434 -50.513  1.00  0.00    -0.054 A 
HETATM   19  C   UNL     1     -40.719  54.368 -51.914  1.00  0.00     0.046 A 
HETATM   20  C   UNL     1     -40.362  53.183 -52.582  1.00  0.00     0.102 A 
HETATM   21  C   UNL     1     -40.057  52.042 -51.819  1.00  0.00     0.101 A 
HETATM   22  C   UNL     1     -40.128  52.111 -50.420  1.00  0.00     0.040 A 
HETATM   23  C   UNL     1     -40.481  53.292 -49.770  1.00  0.00     0.010 A 
BRANCH  20  24
HETATM   24  O   UNL     1     -40.318  53.084 -53.948  1.00  0.00    -0.353 OA
HETATM   25  C   UNL     1     -39.978  54.241 -54.700  1.00  0.00     0.210 C 
ENDBRANCH  20  24
BRANCH  21  26
HETATM   26  O   UNL     1     -39.696  50.792 -52.253  1.00  0.00    -0.353 OA
HETATM   27  C   UNL     1     -39.448  49.780 -51.290  1.00  0.00     0.210 C 
ENDBRANCH  21  26
ENDBRANCH  17  18
ENDBRANCH  16  17
ENDBRANCH  13  16
ENDBRANCH  10  12
ENDBRANCH   1  10
BRANCH   8  28
HETATM   28  C   UNL     1     -42.189  58.132 -57.730  1.00  0.00     0.231 C 
BRANCH  28  29
HETATM   29  C   UNL     1     -43.535  58.443 -58.365  1.00  0.00     0.238 C 
HETATM   30  N   UNL     1     -43.993  57.689 -59.449  1.00  0.00    -0.351 N 
HETATM   31  C   UNL     1     -45.310  58.009 -60.006  1.00  0.00     0.126 C 
HETATM   32  C   UNL     1     -43.265  56.589 -60.090  1.00  0.00     0.126 C 
HETATM   33  C   UNL     1     -46.310  56.850 -59.958  1.00  0.00     0.020 C 
HETATM   34  C   UNL     1     -46.010  55.763 -60.988  1.00  0.00     0.002 C 
HETATM   35  C   UNL     1     -44.971  54.729 -60.559  1.00  0.00     0.002 C 
HETATM   36  C   UNL     1     -43.820  55.226 -59.688  1.00  0.00     0.020 C 
HETATM   37  O   UNL     1     -44.197  59.385 -57.910  1.00  0.00    -0.272 OA
ENDBRANCH  28  29
ENDBRANCH   8  28
TORSDOF 9
ENDMDL
MODEL 3
REMARK VINA RESULT:      -8.4      2.990      7.945
REMARK  9 active torsions:
REMARK  status: ('A' for Active; 'I' for Inactive)
REMARK    1  A    between atoms: O_2  and  C_3 
REMARK    2  A    between atoms: C_4  and  O_5 
REMARK    3  A    between atoms: C_8  and  C_9 
REMARK    4  A    between atoms: C_9  and  C_10 
REMARK    5  A    between atoms: C_10  and  N_11 
REMARK       I    between atoms: N_11  and  C_12 
REMARK    6  A    between atoms: C_12  and  C_13 
REMARK    7  A    between atoms: C_13  and  C_14 
REMARK    8  A    between atoms: N_21  and  C_22 
REMARK    9  A    between atoms: C_22  and  C_23 
REMARK       I    between atoms: C_23  and  N_24 
ROOT
HETATM    1  C   UNL     1     -44.409  58.233 -51.192  1.00  0.00     0.048 C 
HETATM    2  C   UNL     1     -43.013  58.543 -51.078  1.00  0.00     0.006 A 
HETATM    3  C   UNL     1     -42.319  57.327 -51.008  1.00  0.00     0.045 A 
HETATM    4  C   UNL     1     -40.918  57.267 -50.908  1.00  0.00     0.030 A 
HETATM    5  C   UNL     1     -40.204  58.466 -50.859  1.00  0.00     0.002 A 
HETATM    6  C   UNL     1     -40.864  59.687 -50.919  1.00  0.00     0.001 A 
HETATM    7  C   UNL     1     -42.258  59.738 -51.034  1.00  0.00     0.015 A 
HETATM    8  N   UNL     1     -43.256  56.318 -51.075  1.00  0.00    -0.346 N 
HETATM    9  C   UNL     1     -44.512  56.856 -51.091  1.00  0.00     0.108 C 
ENDROOT
BRANCH   1  10
HETATM   10  C   UNL     1     -45.576  59.094 -51.365  1.00  0.00     0.251 C 
HETATM   11  O   UNL     1     -46.597  58.941 -50.693  1.00  0.00    -0.281 OA
BRANCH  10  12
HETATM   12  C   UNL     1     -45.602  60.214 -52.409  1.00  0.00     0.292 C 
HETATM   13  N   UNL     1     -45.541  59.869 -53.744  1.00  0.00    -0.354 N 
HETATM   14  H   UNL     1     -45.391  60.669 -54.349  1.00  0.00     0.162 HD
HETATM   15  O   UNL     1     -45.650  61.387 -52.061  1.00  0.00    -0.264 OA
BRANCH  13  16
HETATM   16  C   UNL     1     -45.251  58.537 -54.246  1.00  0.00     0.127 C 
BRANCH  16  17
HETATM   17  C   UNL     1     -43.825  58.428 -54.785  1.00  0.00     0.058 C 
BRANCH  17  18
HETATM   18  C   UNL     1     -43.775  57.665 -56.084  1.00  0.00    -0.054 A 
HETATM   19  C   UNL     1     -44.573  58.057 -57.170  1.00  0.00     0.046 A 
HETATM   20  C   UNL     1     -44.568  57.347 -58.383  1.00  0.00     0.102 A 
HETATM   21  C   UNL     1     -43.740  56.216 -58.502  1.00  0.00     0.101 A 
HETATM   22  C   UNL     1     -42.954  55.822 -57.410  1.00  0.00     0.040 A 
HETATM   23  C   UNL     1     -42.966  56.536 -56.213  1.00  0.00     0.010 A 
BRANCH  20  24
HETATM   24  O   UNL     1     -45.352  57.695 -59.452  1.00  0.00    -0.353 OA
HETATM   25  C   UNL     1     -46.748  57.439 -59.379  1.00  0.00     0.210 C 
ENDBRANCH  20  24
BRANCH  21  26
HETATM   26  O   UNL     1     -43.583  55.377 -59.575  1.00  0.00    -0.353 OA
HETATM   27  C   UNL     1     -44.521  54.331 -59.768  1.00  0.00     0.210 C 
ENDBRANCH  21  26
ENDBRANCH  17  18
ENDBRANCH  16  17
ENDBRANCH  13  16
ENDBRANCH  10  12
ENDBRANCH   1  10
BRANCH   8  28
HETATM   28  C   UNL     1     -42.974  54.890 -51.075  1.00  0.00     0.231 C 
BRANCH  28  29
HETATM   29  C   UNL     1     -42.638  54.369 -52.464  1.00  0.00     0.238 C 
HETATM   30  N   UNL     1     -41.386  53.802 -52.718  1.00  0.00    -0.351 N 
HETATM   31  C   UNL     1     -41.121  53.287 -54.064  1.00  0.00     0.126 C 
HETATM   32  C   UNL     1     -40.295  53.671 -51.745  1.00  0.00     0.126 C 
HETATM   33  C   UNL     1     -40.785  51.794 -54.110  1.00  0.00     0.020 C 
HETATM   34  C   UNL     1     -39.382  51.484 -53.590  1.00  0.00     0.002 C 
HETATM   35  C   UNL     1     -39.266  51.343 -52.073  1.00  0.00     0.002 C 
HETATM   36  C   UNL     1     -40.162  52.244 -51.226  1.00  0.00     0.020 C 
HETATM   37  O   UNL     1     -43.489  54.477 -53.355  1.00  0.00    -0.272 OA
ENDBRANCH  28  29
ENDBRANCH   8  28
TORSDOF 9
ENDMDL
MODEL 4
REMARK VINA RESULT:      -8.3      3.267      8.502
REMARK  9 active torsions:
REMARK  status: ('A' for Active; 'I' for Inactive)
REMARK    1  A    between atoms: O_2  and  C_3 
REMARK    2  A    between atoms: C_4  and  O_5 
REMARK    3  A    between atoms: C_8  and  C_9 
REMARK    4  A    between atoms: C_9  and  C_10 
REMARK    5  A    between atoms: C_10  and  N_11 
REMARK       I    between atoms: N_11  and  C_12 
REMARK    6  A    between atoms: C_12  and  C_13 
REMARK    7  A    between atoms: C_13  and  C_14 
REMARK    8  A    between atoms: N_21  and  C_22 
REMARK    9  A    between atoms: C_22  and  C_23 
REMARK       I    between atoms: C_23  and  N_24 
ROOT
HETATM    1  C   UNL     1     -40.089  53.186 -51.271  1.00  0.00     0.048 C 
HETATM    2  C   UNL     1     -39.900  51.786 -51.519  1.00  0.00     0.006 A 
HETATM    3  C   UNL     1     -40.019  51.586 -52.901  1.00  0.00     0.045 A 
HETATM    4  C   UNL     1     -39.869  50.319 -53.492  1.00  0.00     0.030 A 
HETATM    5  C   UNL     1     -39.613  49.226 -52.662  1.00  0.00     0.002 A 
HETATM    6  C   UNL     1     -39.498  49.390 -51.288  1.00  0.00     0.001 A 
HETATM    7  C   UNL     1     -39.633  50.658 -50.708  1.00  0.00     0.015 A 
HETATM    8  N   UNL     1     -40.270  52.816 -53.471  1.00  0.00    -0.346 N 
HETATM    9  C   UNL     1     -40.406  53.758 -52.492  1.00  0.00     0.108 C 
ENDROOT
BRANCH   1  10
HETATM   10  C   UNL     1     -40.008  53.966 -50.039  1.00  0.00     0.251 C 
HETATM   11  O   UNL     1     -38.982  54.569 -49.722  1.00  0.00    -0.281 OA
BRANCH  10  12
HETATM   12  C   UNL     1     -41.185  54.054 -49.064  1.00  0.00     0.292 C 
HETATM   13  N   UNL     1     -42.363  54.624 -49.504  1.00  0.00    -0.354 N 
HETATM   14  H   UNL     1     -43.020  54.795 -48.752  1.00  0.00     0.162 HD
HETATM   15  O   UNL     1     -41.071  53.647 -47.914  1.00  0.00    -0.264 OA
BRANCH  13  16
HETATM   16  C   UNL     1     -42.521  55.337 -50.760  1.00  0.00     0.127 C 
BRANCH  16  17
HETATM   17  C   UNL     1     -43.794  56.182 -50.781  1.00  0.00     0.058 C 
BRANCH  17  18
HETATM   18  C   UNL     1     -43.518  57.600 -51.210  1.00  0.00    -0.054 A 
HETATM   19  C   UNL     1     -42.203  58.091 -51.236  1.00  0.00     0.046 A 
HETATM   20  C   UNL     1     -41.918  59.418 -51.605  1.00  0.00     0.102 A 
HETATM   21  C   UNL     1     -42.984  60.266 -51.954  1.00  0.00     0.101 A 
HETATM   22  C   UNL     1     -44.296  59.774 -51.914  1.00  0.00     0.040 A 
HETATM   23  C   UNL     1     -44.565  58.456 -51.550  1.00  0.00     0.010 A 
BRANCH  20  24
HETATM   24  O   UNL     1     -40.647  59.929 -51.619  1.00  0.00    -0.353 OA
HETATM   25  C   UNL     1     -39.619  59.206 -50.956  1.00  0.00     0.210 C 
ENDBRANCH  20  24
BRANCH  21  26
HETATM   26  O   UNL     1     -42.943  61.584 -52.332  1.00  0.00    -0.353 OA
HETATM   27  C   UNL     1     -43.122  61.907 -53.702  1.00  0.00     0.210 C 
ENDBRANCH  21  26
ENDBRANCH  17  18
ENDBRANCH  16  17
ENDBRANCH  13  16
ENDBRANCH  10  12
ENDBRANCH   1  10
BRANCH   8  28
HETATM   28  C   UNL     1     -40.426  53.082 -54.894  1.00  0.00     0.231 C 
BRANCH  28  29
HETATM   29  C   UNL     1     -40.478  54.571 -55.199  1.00  0.00     0.238 C 
HETATM   30  N   UNL     1     -41.700  55.190 -55.479  1.00  0.00    -0.351 N 
HETATM   31  C   UNL     1     -41.700  56.632 -55.737  1.00  0.00     0.126 C 
HETATM   32  C   UNL     1     -43.002  54.517 -55.538  1.00  0.00     0.126 C 
HETATM   33  C   UNL     1     -42.560  57.443 -54.763  1.00  0.00     0.020 C 
HETATM   34  C   UNL     1     -44.057  57.280 -55.015  1.00  0.00     0.002 C 
HETATM   35  C   UNL     1     -44.696  56.051 -54.369  1.00  0.00     0.002 C 
HETATM   36  C   UNL     1     -43.841  54.789 -54.293  1.00  0.00     0.020 C 
HETATM   37  O   UNL     1     -39.416  55.206 -55.211  1.00  0.00    -0.272 OA
ENDBRANCH  28  29
ENDBRANCH   8  28
TORSDOF 9
ENDMDL
MODEL 5
REMARK VINA RESULT:      -8.3      4.653      9.166
REMARK  9 active torsions:
REMARK  status: ('A' for Active; 'I' for Inactive)
REMARK    1  A    between atoms: O_2  and  C_3 
REMARK    2  A    between atoms: C_4  and  O_5 
REMARK    3  A    between atoms: C_8  and  C_9 
REMARK    4  A    between atoms: C_9  and  C_10 
REMARK    5  A    between atoms: C_10  and  N_11 
REMARK       I    between atoms: N_11  and  C_12 
REMARK    6  A    between atoms: C_12  and  C_13 
REMARK    7  A    between atoms: C_13  and  C_14 
REMARK    8  A    between atoms: N_21  and  C_22 
REMARK    9  A    between atoms: C_22  and  C_23 
REMARK       I    between atoms: C_23  and  N_24 
ROOT
HETATM    1  C   UNL     1     -43.809  55.874 -59.025  1.00  0.00     0.048 C 
HETATM    2  C   UNL     1     -43.283  57.149 -59.419  1.00  0.00     0.006 A 
HETATM    3  C   UNL     1     -42.583  57.670 -58.321  1.00  0.00     0.045 A 
HETATM    4  C   UNL     1     -41.922  58.909 -58.373  1.00  0.00     0.030 A 
HETATM    5  C   UNL     1     -41.986  59.647 -59.556  1.00  0.00     0.002 A 
HETATM    6  C   UNL     1     -42.678  59.162 -60.658  1.00  0.00     0.001 A 
HETATM    7  C   UNL     1     -43.321  57.919 -60.605  1.00  0.00     0.015 A 
HETATM    8  N   UNL     1     -42.682  56.749 -57.300  1.00  0.00    -0.346 N 
HETATM    9  C   UNL     1     -43.492  55.718 -57.686  1.00  0.00     0.108 C 
ENDROOT
BRANCH   1  10
HETATM   10  C   UNL     1     -44.555  54.866 -59.774  1.00  0.00     0.251 C 
HETATM   11  O   UNL     1     -44.684  53.714 -59.356  1.00  0.00    -0.281 OA
BRANCH  10  12
HETATM   12  C   UNL     1     -45.191  55.179 -61.131  1.00  0.00     0.292 C 
HETATM   13  N   UNL     1     -46.263  56.047 -61.170  1.00  0.00    -0.354 N 
HETATM   14  H   UNL     1     -46.723  56.062 -62.073  1.00  0.00     0.162 HD
HETATM   15  O   UNL     1     -44.768  54.651 -62.152  1.00  0.00    -0.264 OA
BRANCH  13  16
HETATM   16  C   UNL     1     -46.976  56.538 -60.003  1.00  0.00     0.127 C 
BRANCH  16  17
HETATM   17  C   UNL     1     -47.183  58.052 -60.055  1.00  0.00     0.058 C 
BRANCH  17  18
HETATM   18  C   UNL     1     -46.501  58.749 -58.906  1.00  0.00    -0.054 A 
HETATM   19  C   UNL     1     -45.897  60.003 -59.092  1.00  0.00     0.046 A 
HETATM   20  C   UNL     1     -45.230  60.662 -58.045  1.00  0.00     0.102 A 
HETATM   21  C   UNL     1     -45.172  60.043 -56.783  1.00  0.00     0.101 A 
HETATM   22  C   UNL     1     -45.767  58.786 -56.607  1.00  0.00     0.040 A 
HETATM   23  C   UNL     1     -46.427  58.143 -57.652  1.00  0.00     0.010 A 
BRANCH  20  24
HETATM   24  O   UNL     1     -44.614  61.875 -58.204  1.00  0.00    -0.353 OA
HETATM   25  C   UNL     1     -45.375  62.959 -58.719  1.00  0.00     0.210 C 
ENDBRANCH  20  24
BRANCH  21  26
HETATM   26  O   UNL     1     -44.574  60.493 -55.634  1.00  0.00    -0.353 OA
HETATM   27  C   UNL     1     -45.275  60.373 -54.407  1.00  0.00     0.210 C 
ENDBRANCH  21  26
ENDBRANCH  17  18
ENDBRANCH  16  17
ENDBRANCH  13  16
ENDBRANCH  10  12
ENDBRANCH   1  10
BRANCH   8  28
HETATM   28  C   UNL     1     -42.069  56.864 -55.985  1.00  0.00     0.231 C 
BRANCH  28  29
HETATM   29  C   UNL     1     -42.979  56.351 -54.879  1.00  0.00     0.238 C 
HETATM   30  N   UNL     1     -42.692  55.145 -54.234  1.00  0.00    -0.351 N 
HETATM   31  C   UNL     1     -43.582  54.709 -53.155  1.00  0.00     0.126 C 
HETATM   32  C   UNL     1     -41.562  54.261 -54.543  1.00  0.00     0.126 C 
HETATM   33  C   UNL     1     -42.889  54.538 -51.801  1.00  0.00     0.020 C 
HETATM   34  C   UNL     1     -42.010  53.290 -51.736  1.00  0.00     0.002 C 
HETATM   35  C   UNL     1     -40.601  53.456 -52.303  1.00  0.00     0.002 C 
HETATM   36  C   UNL     1     -40.447  54.379 -53.509  1.00  0.00     0.020 C 
HETATM   37  O   UNL     1     -43.980  57.017 -54.584  1.00  0.00    -0.272 OA
ENDBRANCH  28  29
ENDBRANCH   8  28
TORSDOF 9
ENDMDL
MODEL 6
REMARK VINA RESULT:      -8.1      2.694      8.263
REMARK  9 active torsions:
REMARK  status: ('A' for Active; 'I' for Inactive)
REMARK    1  A    between atoms: O_2  and  C_3 
REMARK    2  A    between atoms: C_4  and  O_5 
REMARK    3  A    between atoms: C_8  and  C_9 
REMARK    4  A    between atoms: C_9  and  C_10 
REMARK    5  A    between atoms: C_10  and  N_11 
REMARK       I    between atoms: N_11  and  C_12 
REMARK    6  A    between atoms: C_12  and  C_13 
REMARK    7  A    between atoms: C_13  and  C_14 
REMARK    8  A    between atoms: N_21  and  C_22 
REMARK    9  A    between atoms: C_22  and  C_23 
REMARK       I    between atoms: C_23  and  N_24 
ROOT
HETATM    1  C   UNL     1     -40.423  53.778 -51.642  1.00  0.00     0.048 C 
HETATM    2  C   UNL     1     -40.180  52.509 -52.264  1.00  0.00     0.006 A 
HETATM    3  C   UNL     1     -40.709  52.570 -53.562  1.00  0.00     0.045 A 
HETATM    4  C   UNL     1     -40.624  51.492 -54.459  1.00  0.00     0.030 A 
HETATM    5  C   UNL     1     -40.008  50.316 -54.027  1.00  0.00     0.002 A 
HETATM    6  C   UNL     1     -39.481  50.221 -52.745  1.00  0.00     0.001 A 
HETATM    7  C   UNL     1     -39.555  51.305 -51.862  1.00  0.00     0.015 A 
HETATM    8  N   UNL     1     -41.253  53.827 -53.720  1.00  0.00    -0.346 N 
HETATM    9  C   UNL     1     -41.168  54.519 -52.545  1.00  0.00     0.108 C 
ENDROOT
BRANCH   1  10
HETATM   10  C   UNL     1     -40.037  54.299 -50.333  1.00  0.00     0.251 C 
HETATM   11  O   UNL     1     -38.857  54.359 -49.984  1.00  0.00    -0.281 OA
BRANCH  10  12
HETATM   12  C   UNL     1     -41.080  54.773 -49.317  1.00  0.00     0.292 C 
HETATM   13  N   UNL     1     -41.549  56.067 -49.411  1.00  0.00    -0.354 N 
HETATM   14  H   UNL     1     -42.098  56.345 -48.606  1.00  0.00     0.162 HD
HETATM   15  O   UNL     1     -41.467  54.023 -48.429  1.00  0.00    -0.264 OA
BRANCH  13  16
HETATM   16  C   UNL     1     -40.988  57.093 -50.274  1.00  0.00     0.127 C 
BRANCH  16  17
HETATM   17  C   UNL     1     -41.930  57.449 -51.424  1.00  0.00     0.058 C 
BRANCH  17  18
HETATM   18  C   UNL     1     -42.473  58.849 -51.289  1.00  0.00    -0.054 A 
HETATM   19  C   UNL     1     -43.632  59.232 -51.982  1.00  0.00     0.046 A 
HETATM   20  C   UNL     1     -44.144  60.539 -51.897  1.00  0.00     0.102 A 
HETATM   21  C   UNL     1     -43.472  61.478 -51.094  1.00  0.00     0.101 A 
HETATM   22  C   UNL     1     -42.308  61.092 -50.413  1.00  0.00     0.040 A 
HETATM   23  C   UNL     1     -41.811  59.793 -50.504  1.00  0.00     0.010 A 
BRANCH  20  24
HETATM   24  O   UNL     1     -45.260  60.946 -52.578  1.00  0.00    -0.353 OA
HETATM   25  C   UNL     1     -46.531  60.760 -51.970  1.00  0.00     0.210 C 
ENDBRANCH  20  24
BRANCH  21  26
HETATM   26  O   UNL     1     -43.782  62.795 -50.872  1.00  0.00    -0.353 OA
HETATM   27  C   UNL     1     -43.293  63.774 -51.775  1.00  0.00     0.210 C 
ENDBRANCH  21  26
ENDBRANCH  17  18
ENDBRANCH  16  17
ENDBRANCH  13  16
ENDBRANCH  10  12
ENDBRANCH   1  10
BRANCH   8  28
HETATM   28  C   UNL     1     -41.878  54.341 -54.931  1.00  0.00     0.231 C 
BRANCH  28  29
HETATM   29  C   UNL     1     -43.221  54.997 -54.652  1.00  0.00     0.238 C 
HETATM   30  N   UNL     1     -43.343  56.389 -54.680  1.00  0.00    -0.351 N 
HETATM   31  C   UNL     1     -44.664  56.972 -54.435  1.00  0.00     0.126 C 
HETATM   32  C   UNL     1     -42.252  57.336 -54.939  1.00  0.00     0.126 C 
HETATM   33  C   UNL     1     -45.200  57.821 -55.592  1.00  0.00     0.020 C 
HETATM   34  C   UNL     1     -44.499  59.172 -55.712  1.00  0.00     0.002 C 
HETATM   35  C   UNL     1     -43.184  59.156 -56.490  1.00  0.00     0.002 C 
HETATM   36  C   UNL     1     -42.315  57.908 -56.351  1.00  0.00     0.020 C 
HETATM   37  O   UNL     1     -44.187  54.271 -54.384  1.00  0.00    -0.272 OA
ENDBRANCH  28  29
ENDBRANCH   8  28
TORSDOF 9
ENDMDL
MODEL 7
REMARK VINA RESULT:      -8.0      2.730      6.787
REMARK  9 active torsions:
REMARK  status: ('A' for Active; 'I' for Inactive)
REMARK    1  A    between atoms: O_2  and  C_3 
REMARK    2  A    between atoms: C_4  and  O_5 
REMARK    3  A    between atoms: C_8  and  C_9 
REMARK    4  A    between atoms: C_9  and  C_10 
REMARK    5  A    between atoms: C_10  and  N_11 
REMARK       I    between atoms: N_11  and  C_12 
REMARK    6  A    between atoms: C_12  and  C_13 
REMARK    7  A    between atoms: C_13  and  C_14 
REMARK    8  A    between atoms: N_21  and  C_22 
REMARK    9  A    between atoms: C_22  and  C_23 
REMARK       I    between atoms: C_23  and  N_24 
ROOT
HETATM    1  C   UNL     1     -42.121  59.505 -52.739  1.00  0.00     0.048 C 
HETATM    2  C   UNL     1     -43.419  59.874 -52.255  1.00  0.00     0.006 A 
HETATM    3  C   UNL     1     -44.245  60.060 -53.373  1.00  0.00     0.045 A 
HETATM    4  C   UNL     1     -45.600  60.413 -53.254  1.00  0.00     0.030 A 
HETATM    5  C   UNL     1     -46.128  60.601 -51.975  1.00  0.00     0.002 A 
HETATM    6  C   UNL     1     -45.333  60.432 -50.849  1.00  0.00     0.001 A 
HETATM    7  C   UNL     1     -43.988  60.065 -50.974  1.00  0.00     0.015 A 
HETATM    8  N   UNL     1     -43.478  59.814 -54.492  1.00  0.00    -0.346 N 
HETATM    9  C   UNL     1     -42.185  59.574 -54.121  1.00  0.00     0.108 C 
ENDROOT
BRANCH   1  10
HETATM   10  C   UNL     1     -40.899  59.128 -52.032  1.00  0.00     0.251 C 
HETATM   11  O   UNL     1     -39.801  59.136 -52.589  1.00  0.00    -0.281 OA
BRANCH  10  12
HETATM   12  C   UNL     1     -40.924  58.678 -50.568  1.00  0.00     0.292 C 
HETATM   13  N   UNL     1     -41.234  57.362 -50.290  1.00  0.00    -0.354 N 
HETATM   14  H   UNL     1     -41.394  57.198 -49.303  1.00  0.00     0.162 HD
HETATM   15  O   UNL     1     -40.697  59.478 -49.669  1.00  0.00    -0.264 OA
BRANCH  13  16
HETATM   16  C   UNL     1     -41.739  56.405 -51.259  1.00  0.00     0.127 C 
BRANCH  16  17
HETATM   17  C   UNL     1     -41.866  55.003 -50.665  1.00  0.00     0.058 C 
BRANCH  17  18
HETATM   18  C   UNL     1     -41.247  53.959 -51.559  1.00  0.00    -0.054 A 
HETATM   19  C   UNL     1     -40.451  52.939 -51.015  1.00  0.00     0.046 A 
HETATM   20  C   UNL     1     -39.838  51.969 -51.828  1.00  0.00     0.102 A 
HETATM   21  C   UNL     1     -40.034  52.030 -53.219  1.00  0.00     0.101 A 
HETATM   22  C   UNL     1     -40.821  53.059 -53.757  1.00  0.00     0.040 A 
HETATM   23  C   UNL     1     -41.425  54.013 -52.941  1.00  0.00     0.010 A 
BRANCH  20  24
HETATM   24  O   UNL     1     -39.039  50.975 -51.326  1.00  0.00    -0.353 OA
HETATM   25  C   UNL     1     -39.660  49.835 -50.748  1.00  0.00     0.210 C 
ENDBRANCH  20  24
BRANCH  21  26
HETATM   26  O   UNL     1     -39.533  51.205 -54.193  1.00  0.00    -0.353 OA
HETATM   27  C   UNL     1     -40.191  49.975 -54.452  1.00  0.00     0.210 C 
ENDBRANCH  21  26
ENDBRANCH  17  18
ENDBRANCH  16  17
ENDBRANCH  13  16
ENDBRANCH  10  12
ENDBRANCH   1  10
BRANCH   8  28
HETATM   28  C   UNL     1     -43.943  59.854 -55.871  1.00  0.00     0.231 C 
BRANCH  28  29
HETATM   29  C   UNL     1     -44.264  58.469 -56.411  1.00  0.00     0.238 C 
HETATM   30  N   UNL     1     -43.993  58.154 -57.745  1.00  0.00    -0.351 N 
HETATM   31  C   UNL     1     -44.293  56.797 -58.209  1.00  0.00     0.126 C 
HETATM   32  C   UNL     1     -43.423  59.070 -58.739  1.00  0.00     0.126 C 
HETATM   33  C   UNL     1     -43.077  56.031 -58.739  1.00  0.00     0.020 C 
HETATM   34  C   UNL     1     -42.616  56.523 -60.110  1.00  0.00     0.002 C 
HETATM   35  C   UNL     1     -41.693  57.739 -60.089  1.00  0.00     0.002 C 
HETATM   36  C   UNL     1     -41.949  58.782 -59.004  1.00  0.00     0.020 C 
HETATM   37  O   UNL     1     -44.785  57.646 -55.647  1.00  0.00    -0.272 OA
ENDBRANCH  28  29
ENDBRANCH   8  28
TORSDOF 9
ENDMDL
MODEL 8
REMARK VINA RESULT:      -7.9      2.720      6.876
REMARK  9 active torsions:
REMARK  status: ('A' for Active; 'I' for Inactive)
REMARK    1  A    between atoms: O_2  and  C_3 
REMARK    2  A    between atoms: C_4  and  O_5 
REMARK    3  A    between atoms: C_8  and  C_9 
REMARK    4  A    between atoms: C_9  and  C_10 
REMARK    5  A    between atoms: C_10  and  N_11 
REMARK       I    between atoms: N_11  and  C_12 
REMARK    6  A    between atoms: C_12  and  C_13 
REMARK    7  A    between atoms: C_13  and  C_14 
REMARK    8  A    between atoms: N_21  and  C_22 
REMARK    9  A    between atoms: C_22  and  C_23 
REMARK       I    between atoms: C_23  and  N_24 
ROOT
HETATM    1  C   UNL     1     -42.285  59.171 -52.643  1.00  0.00     0.048 C 
HETATM    2  C   UNL     1     -43.483  59.800 -52.168  1.00  0.00     0.006 A 
HETATM    3  C   UNL     1     -44.450  59.673 -53.175  1.00  0.00     0.045 A 
HETATM    4  C   UNL     1     -45.757  60.169 -53.026  1.00  0.00     0.030 A 
HETATM    5  C   UNL     1     -46.087  60.826 -51.840  1.00  0.00     0.002 A 
HETATM    6  C   UNL     1     -45.149  60.975 -50.827  1.00  0.00     0.001 A 
HETATM    7  C   UNL     1     -43.854  60.465 -50.975  1.00  0.00     0.015 A 
HETATM    8  N   UNL     1     -43.863  58.995 -54.221  1.00  0.00    -0.346 N 
HETATM    9  C   UNL     1     -42.542  58.776 -53.945  1.00  0.00     0.108 C 
ENDROOT
BRANCH   1  10
HETATM   10  C   UNL     1     -40.994  58.945 -51.998  1.00  0.00     0.251 C 
HETATM   11  O   UNL     1     -39.940  58.965 -52.637  1.00  0.00    -0.281 OA
BRANCH  10  12
HETATM   12  C   UNL     1     -40.884  58.645 -50.501  1.00  0.00     0.292 C 
HETATM   13  N   UNL     1     -41.292  57.407 -50.047  1.00  0.00    -0.354 N 
HETATM   14  H   UNL     1     -41.346  57.359 -49.036  1.00  0.00     0.162 HD
HETATM   15  O   UNL     1     -40.466  59.497 -49.726  1.00  0.00    -0.264 OA
BRANCH  13  16
HETATM   16  C   UNL     1     -42.010  56.427 -50.843  1.00  0.00     0.127 C 
BRANCH  16  17
HETATM   17  C   UNL     1     -41.992  55.042 -50.195  1.00  0.00     0.058 C 
BRANCH  17  18
HETATM   18  C   UNL     1     -41.254  54.038 -51.044  1.00  0.00    -0.054 A 
HETATM   19  C   UNL     1     -41.323  54.103 -52.444  1.00  0.00     0.046 A 
HETATM   20  C   UNL     1     -40.668  53.164 -53.260  1.00  0.00     0.102 A 
HETATM   21  C   UNL     1     -39.928  52.136 -52.647  1.00  0.00     0.101 A 
HETATM   22  C   UNL     1     -39.873  52.069 -51.248  1.00  0.00     0.040 A 
HETATM   23  C   UNL     1     -40.524  53.008 -50.450  1.00  0.00     0.010 A 
BRANCH  20  24
HETATM   24  O   UNL     1     -40.736  53.191 -54.627  1.00  0.00    -0.353 OA
HETATM   25  C   UNL     1     -40.191  54.312 -55.310  1.00  0.00     0.210 C 
ENDBRANCH  20  24
BRANCH  21  26
HETATM   26  O   UNL     1     -39.225  51.118 -53.237  1.00  0.00    -0.353 OA
HETATM   27  C   UNL     1     -39.896  49.902 -53.529  1.00  0.00     0.210 C 
ENDBRANCH  21  26
ENDBRANCH  17  18
ENDBRANCH  16  17
ENDBRANCH  13  16
ENDBRANCH  10  12
ENDBRANCH   1  10
BRANCH   8  28
HETATM   28  C   UNL     1     -44.517  58.609 -55.463  1.00  0.00     0.231 C 
BRANCH  28  29
HETATM   29  C   UNL     1     -43.864  59.246 -56.680  1.00  0.00     0.238 C 
HETATM   30  N   UNL     1     -43.007  58.497 -57.491  1.00  0.00    -0.351 N 
HETATM   31  C   UNL     1     -42.427  59.148 -58.669  1.00  0.00     0.126 C 
HETATM   32  C   UNL     1     -42.629  57.097 -57.269  1.00  0.00     0.126 C 
HETATM   33  C   UNL     1     -42.781  58.473 -59.997  1.00  0.00     0.020 C 
HETATM   34  C   UNL     1     -42.035  57.157 -60.213  1.00  0.00     0.002 C 
HETATM   35  C   UNL     1     -42.671  55.933 -59.557  1.00  0.00     0.002 C 
HETATM   36  C   UNL     1     -43.364  56.151 -58.214  1.00  0.00     0.020 C 
HETATM   37  O   UNL     1     -44.098  60.438 -56.916  1.00  0.00    -0.272 OA
ENDBRANCH  28  29
ENDBRANCH   8  28
TORSDOF 9
ENDMDL
MODEL 9
REMARK VINA RESULT:      -7.9      4.393      8.862
REMARK  9 active torsions:
REMARK  status: ('A' for Active; 'I' for Inactive)
REMARK    1  A    between atoms: O_2  and  C_3 
REMARK    2  A    between atoms: C_4  and  O_5 
REMARK    3  A    between atoms: C_8  and  C_9 
REMARK    4  A    between atoms: C_9  and  C_10 
REMARK    5  A    between atoms: C_10  and  N_11 
REMARK       I    between atoms: N_11  and  C_12 
REMARK    6  A    between atoms: C_12  and  C_13 
REMARK    7  A    between atoms: C_13  and  C_14 
REMARK    8  A    between atoms: N_21  and  C_22 
REMARK    9  A    between atoms: C_22  and  C_23 
REMARK       I    between atoms: C_23  and  N_24 
ROOT
HETATM    1  C   UNL     1     -42.440  58.323 -55.857  1.00  0.00     0.048 C 
HETATM    2  C   UNL     1     -42.641  57.538 -57.040  1.00  0.00     0.006 A 
HETATM    3  C   UNL     1     -43.025  56.253 -56.630  1.00  0.00     0.045 A 
HETATM    4  C   UNL     1     -43.321  55.230 -57.546  1.00  0.00     0.030 A 
HETATM    5  C   UNL     1     -43.208  55.506 -58.910  1.00  0.00     0.002 A 
HETATM    6  C   UNL     1     -42.822  56.766 -59.348  1.00  0.00     0.001 A 
HETATM    7  C   UNL     1     -42.544  57.786 -58.430  1.00  0.00     0.015 A 
HETATM    8  N   UNL     1     -43.054  56.258 -55.251  1.00  0.00    -0.346 N 
HETATM    9  C   UNL     1     -42.615  57.465 -54.785  1.00  0.00     0.108 C 
ENDROOT
BRANCH   1  10
HETATM   10  C   UNL     1     -42.102  59.734 -55.683  1.00  0.00     0.251 C 
HETATM   11  O   UNL     1     -41.430  60.345 -56.515  1.00  0.00    -0.281 OA
BRANCH  10  12
HETATM   12  C   UNL     1     -42.544  60.519 -54.445  1.00  0.00     0.292 C 
HETATM   13  N   UNL     1     -43.793  61.106 -54.449  1.00  0.00    -0.354 N 
HETATM   14  H   UNL     1     -43.931  61.741 -53.671  1.00  0.00     0.162 HD
HETATM   15  O   UNL     1     -41.792  60.640 -53.486  1.00  0.00    -0.264 OA
BRANCH  13  16
HETATM   16  C   UNL     1     -44.655  61.214 -55.614  1.00  0.00     0.127 C 
BRANCH  16  17
HETATM   17  C   UNL     1     -45.737  60.135 -55.626  1.00  0.00     0.058 C 
BRANCH  17  18
HETATM   18  C   UNL     1     -45.861  59.483 -56.980  1.00  0.00    -0.054 A 
HETATM   19  C   UNL     1     -45.357  60.121 -58.125  1.00  0.00     0.046 A 
HETATM   20  C   UNL     1     -45.484  59.550 -59.403  1.00  0.00     0.102 A 
HETATM   21  C   UNL     1     -46.133  58.308 -59.528  1.00  0.00     0.101 A 
HETATM   22  C   UNL     1     -46.645  57.682 -58.383  1.00  0.00     0.040 A 
HETATM   23  C   UNL     1     -46.510  58.257 -57.120  1.00  0.00     0.010 A 
BRANCH  20  24
HETATM   24  O   UNL     1     -45.021  60.160 -60.539  1.00  0.00    -0.353 OA
HETATM   25  C   UNL     1     -43.821  60.917 -60.460  1.00  0.00     0.210 C 
ENDBRANCH  20  24
BRANCH  21  26
HETATM   26  O   UNL     1     -46.376  57.578 -60.663  1.00  0.00    -0.353 OA
HETATM   27  C   UNL     1     -46.541  56.174 -60.550  1.00  0.00     0.210 C 
ENDBRANCH  21  26
ENDBRANCH  17  18
ENDBRANCH  16  17
ENDBRANCH  13  16
ENDBRANCH  10  12
ENDBRANCH   1  10
BRANCH   8  28
HETATM   28  C   UNL     1     -43.439  55.140 -54.402  1.00  0.00     0.231 C 
BRANCH  28  29
HETATM   29  C   UNL     1     -42.251  54.270 -54.021  1.00  0.00     0.238 C 
HETATM   30  N   UNL     1     -41.553  54.512 -52.835  1.00  0.00    -0.351 N 
HETATM   31  C   UNL     1     -40.435  53.626 -52.498  1.00  0.00     0.126 C 
HETATM   32  C   UNL     1     -41.843  55.586 -51.879  1.00  0.00     0.126 C 
HETATM   33  C   UNL     1     -40.601  52.881 -51.171  1.00  0.00     0.020 C 
HETATM   34  C   UNL     1     -40.404  53.784 -49.954  1.00  0.00     0.002 C 
HETATM   35  C   UNL     1     -41.637  54.579 -49.527  1.00  0.00     0.002 C 
HETATM   36  C   UNL     1     -42.563  55.067 -50.638  1.00  0.00     0.020 C 
HETATM   37  O   UNL     1     -41.913  53.364 -54.795  1.00  0.00    -0.272 OA
ENDBRANCH  28  29
ENDBRANCH   8  28
TORSDOF 9
ENDMDL
MODEL 10
REMARK VINA RESULT:      -7.9      3.719      6.100
REMARK  9 active torsions:
REMARK  status: ('A' for Active; 'I' for Inactive)
REMARK    1  A    between atoms: O_2  and  C_3 
REMARK    2  A    between atoms: C_4  and  O_5 
REMARK    3  A    between atoms: C_8  and  C_9 
REMARK    4  A    between atoms: C_9  and  C_10 
REMARK    5  A    between atoms: C_10  and  N_11 
REMARK       I    between atoms: N_11  and  C_12 
REMARK    6  A    between atoms: C_12  and  C_13 
REMARK    7  A    between atoms: C_13  and  C_14 
REMARK    8  A    between atoms: N_21  and  C_22 
REMARK    9  A    between atoms: C_22  and  C_23 
REMARK       I    between atoms: C_23  and  N_24 
ROOT
HETATM    1  C   UNL     1     -42.461  58.395 -59.116  1.00  0.00     0.048 C 
HETATM    2  C   UNL     1     -42.101  59.613 -59.782  1.00  0.00     0.006 A 
HETATM    3  C   UNL     1     -41.964  60.603 -58.798  1.00  0.00     0.045 A 
HETATM    4  C   UNL     1     -41.596  61.923 -59.109  1.00  0.00     0.030 A 
HETATM    5  C   UNL     1     -41.382  62.255 -60.448  1.00  0.00     0.002 A 
HETATM    6  C   UNL     1     -41.519  61.299 -61.446  1.00  0.00     0.001 A 
HETATM    7  C   UNL     1     -41.869  59.982 -61.128  1.00  0.00     0.015 A 
HETATM    8  N   UNL     1     -42.231  60.010 -57.583  1.00  0.00    -0.346 N 
HETATM    9  C   UNL     1     -42.619  58.714 -57.777  1.00  0.00     0.108 C 
ENDROOT
BRANCH   1  10
HETATM   10  C   UNL     1     -42.665  57.041 -59.626  1.00  0.00     0.251 C 
HETATM   11  O   UNL     1     -41.818  56.477 -60.319  1.00  0.00    -0.281 OA
BRANCH  10  12
HETATM   12  C   UNL     1     -43.954  56.263 -59.348  1.00  0.00     0.292 C 
HETATM   13  N   UNL     1     -44.047  55.542 -58.175  1.00  0.00    -0.354 N 
HETATM   14  H   UNL     1     -44.853  54.928 -58.155  1.00  0.00     0.162 HD
HETATM   15  O   UNL     1     -44.869  56.265 -60.163  1.00  0.00    -0.264 OA
BRANCH  13  16
HETATM   16  C   UNL     1     -42.943  55.292 -57.264  1.00  0.00     0.127 C 
BRANCH  16  17
HETATM   17  C   UNL     1     -43.241  55.798 -55.853  1.00  0.00     0.058 C 
BRANCH  17  18
HETATM   18  C   UNL     1     -42.551  54.963 -54.803  1.00  0.00    -0.054 A 
HETATM   19  C   UNL     1     -43.195  54.672 -53.590  1.00  0.00     0.046 A 
HETATM   20  C   UNL     1     -42.565  53.921 -52.583  1.00  0.00     0.102 A 
HETATM   21  C   UNL     1     -41.257  53.454 -52.805  1.00  0.00     0.101 A 
HETATM   22  C   UNL     1     -40.615  53.758 -54.014  1.00  0.00     0.040 A 
HETATM   23  C   UNL     1     -41.251  54.501 -55.006  1.00  0.00     0.010 A 
BRANCH  20  24
HETATM   24  O   UNL     1     -43.161  53.640 -51.382  1.00  0.00    -0.353 OA
HETATM   25  C   UNL     1     -43.756  54.707 -50.656  1.00  0.00     0.210 C 
ENDBRANCH  20  24
BRANCH  21  26
HETATM   26  O   UNL     1     -40.455  52.719 -51.970  1.00  0.00    -0.353 OA
HETATM   27  C   UNL     1     -39.760  53.386 -50.929  1.00  0.00     0.210 C 
ENDBRANCH  21  26
ENDBRANCH  17  18
ENDBRANCH  16  17
ENDBRANCH  13  16
ENDBRANCH  10  12
ENDBRANCH   1  10
BRANCH   8  28
HETATM   28  C   UNL     1     -42.167  60.661 -56.283  1.00  0.00     0.231 C 
BRANCH  28  29
HETATM   29  C   UNL     1     -43.167  60.077 -55.296  1.00  0.00     0.238 C 
HETATM   30  N   UNL     1     -42.767  59.092 -54.389  1.00  0.00    -0.351 N 
HETATM   31  C   UNL     1     -43.760  58.583 -53.440  1.00  0.00     0.126 C 
HETATM   32  C   UNL     1     -41.423  58.511 -54.299  1.00  0.00     0.126 C 
HETATM   33  C   UNL     1     -43.385  58.790 -51.969  1.00  0.00     0.020 C 
HETATM   34  C   UNL     1     -42.281  57.846 -51.499  1.00  0.00     0.002 C 
HETATM   35  C   UNL     1     -40.857  58.306 -51.803  1.00  0.00     0.002 C 
HETATM   36  C   UNL     1     -40.641  59.064 -53.111  1.00  0.00     0.020 C 
HETATM   37  O   UNL     1     -44.336  60.483 -55.333  1.00  0.00    -0.272 OA
ENDBRANCH  28  29
ENDBRANCH   8  28
TORSDOF 9
ENDMDL
