MODEL 1
REMARK VINA RESULT:      -9.4      0.000      0.000
REMARK  7 active torsions:
REMARK  status: ('A' for Active; 'I' for Inactive)
REMARK    1  A    between atoms: C_4  and  C_5 
REMARK    2  A    between atoms: C_5  and  C_6 
REMARK    3  A    between atoms: C_8  and  C_9 
REMARK    4  A    between atoms: C_9  and  C_10 
REMARK       I    between atoms: C_10  and  N_11 
REMARK    5  A    between atoms: N_11  and  N_12 
REMARK       I    between atoms: N_12  and  C_13 
REMARK       I    between atoms: C_13  and  N_14 
REMARK    6  A    between atoms: N_14  and  C_15 
REMARK    7  A    between atoms: C_17  and  C_18 
ROOT
HETATM    1  C   UNL     1     -42.806  55.192 -52.608  1.00  0.00     0.238 C 
HETATM    2  N   UNL     1     -42.355  56.370 -53.161  1.00  0.00    -0.266 N 
HETATM    3  O   UNL     1     -42.773  54.118 -53.206  1.00  0.00    -0.272 OA
HETATM    4  H   UNL     1     -42.444  57.286 -52.719  1.00  0.00     0.190 HD
ENDROOT
BRANCH   1   5
HETATM    5  C   UNL     1     -43.327  55.363 -51.204  1.00  0.00     0.139 C 
BRANCH   5   6
HETATM    6  C   UNL     1     -42.331  54.863 -50.160  1.00  0.00     0.185 C 
HETATM    7  N   UNL     1     -41.855  53.528 -50.516  1.00  0.00    -0.363 N 
HETATM    8  C   UNL     1     -40.561  53.167 -50.219  1.00  0.00     0.125 C 
HETATM    9  H   UNL     1     -42.561  52.804 -50.377  1.00  0.00     0.161 HD
HETATM   10  N   UNL     1     -39.608  54.005 -49.933  1.00  0.00    -0.159 NA
HETATM   11  N   UNL     1     -39.920  55.331 -49.907  1.00  0.00    -0.244 N 
HETATM   12  C   UNL     1     -41.178  55.865 -50.058  1.00  0.00     0.261 C 
HETATM   13  H   UNL     1     -39.146  55.975 -49.786  1.00  0.00     0.192 HD
HETATM   14  O   UNL     1     -41.353  57.083 -50.052  1.00  0.00    -0.269 OA
BRANCH   8  15
HETATM   15  C   UNL     1     -40.218  51.681 -50.226  1.00  0.00     0.118 C 
BRANCH  15  16
HETATM   16  C   UNL     1     -39.961  51.162 -51.620  1.00  0.00    -0.051 A 
HETATM   17  C   UNL     1     -39.691  49.807 -51.846  1.00  0.00     0.007 A 
HETATM   18  C   UNL     1     -39.459  49.340 -53.141  1.00  0.00     0.001 A 
HETATM   19  C   UNL     1     -39.493  50.222 -54.220  1.00  0.00     0.000 A 
HETATM   20  C   UNL     1     -39.758  51.572 -54.005  1.00  0.00     0.001 A 
HETATM   21  C   UNL     1     -39.991  52.041 -52.713  1.00  0.00     0.007 A 
ENDBRANCH  15  16
ENDBRANCH   8  15
ENDBRANCH   5   6
ENDBRANCH   1   5
BRANCH   2  22
HETATM   22  N   UNL     1     -41.829  56.355 -54.461  1.00  0.00    -0.249 N 
HETATM   23  C   UNL     1     -42.724  56.590 -55.495  1.00  0.00     0.339 C 
HETATM   24  N   UNL     1     -42.117  56.475 -56.726  1.00  0.00    -0.308 N 
HETATM   25  O   UNL     1     -43.890  56.895 -55.268  1.00  0.00    -0.245 OA
HETATM   26  H   UNL     1     -41.112  56.374 -56.707  1.00  0.00     0.170 HD
HETATM   27  H   UNL     1     -41.058  55.707 -54.599  1.00  0.00     0.192 HD
BRANCH  24  28
HETATM   28  C   UNL     1     -42.710  56.628 -57.994  1.00  0.00     0.037 A 
HETATM   29  C   UNL     1     -43.623  55.723 -58.542  1.00  0.00     0.045 A 
HETATM   30  C   UNL     1     -44.185  55.942 -59.813  1.00  0.00     0.050 A 
HETATM   31  C   UNL     1     -43.805  57.079 -60.540  1.00  0.00     0.016 A 
HETATM   32  C   UNL     1     -42.891  57.983 -60.003  1.00  0.00     0.003 A 
HETATM   33  C   UNL     1     -42.348  57.758 -58.738  1.00  0.00     0.029 A 
BRANCH  30  34
HETATM   34  C   UNL     1     -45.155  54.951 -60.407  1.00  0.00     0.417 C 
HETATM   35  F   UNL     1     -44.886  54.629 -61.703  1.00  0.00    -0.166 F 
HETATM   36  F   UNL     1     -45.178  53.768 -59.730  1.00  0.00    -0.166 F 
HETATM   37  F   UNL     1     -46.437  55.411 -60.392  1.00  0.00    -0.166 F 
ENDBRANCH  30  34
ENDBRANCH  24  28
ENDBRANCH   2  22
TORSDOF 7
ENDMDL
MODEL 2
REMARK VINA RESULT:      -9.2      4.208     10.107
REMARK  7 active torsions:
REMARK  status: ('A' for Active; 'I' for Inactive)
REMARK    1  A    between atoms: C_4  and  C_5 
REMARK    2  A    between atoms: C_5  and  C_6 
REMARK    3  A    between atoms: C_8  and  C_9 
REMARK    4  A    between atoms: C_9  and  C_10 
REMARK       I    between atoms: C_10  and  N_11 
REMARK    5  A    between atoms: N_11  and  N_12 
REMARK       I    between atoms: N_12  and  C_13 
REMARK       I    between atoms: C_13  and  N_14 
REMARK    6  A    between atoms: N_14  and  C_15 
REMARK    7  A    between atoms: C_17  and  C_18 
ROOT
HETATM    1  C   UNL     1     -43.525  57.479 -57.380  1.00  0.00     0.238 C 
HETATM    2  N   UNL     1     -43.352  56.268 -56.747  1.00  0.00    -0.266 N 
HETATM    3  O   UNL     1     -42.860  58.477 -57.105  1.00  0.00    -0.272 OA
HETATM    4  H   UNL     1     -43.942  55.448 -56.900  1.00  0.00     0.190 HD
ENDROOT
BRANCH   1   5
HETATM    5  C   UNL     1     -44.596  57.442 -58.439  1.00  0.00     0.139 C 
BRANCH   5   6
HETATM    6  C   UNL     1     -44.066  57.871 -59.805  1.00  0.00     0.185 C 
HETATM    7  N   UNL     1     -43.817  59.311 -59.819  1.00  0.00    -0.363 N 
HETATM    8  C   UNL     1     -42.770  59.812 -60.557  1.00  0.00     0.125 C 
HETATM    9  H   UNL     1     -44.675  59.863 -59.835  1.00  0.00     0.161 HD
HETATM   10  N   UNL     1     -41.773  59.102 -60.999  1.00  0.00    -0.159 NA
HETATM   11  N   UNL     1     -41.779  57.767 -60.729  1.00  0.00    -0.244 N 
HETATM   12  C   UNL     1     -42.796  57.075 -60.113  1.00  0.00     0.261 C 
HETATM   13  H   UNL     1     -40.947  57.249 -60.990  1.00  0.00     0.192 HD
HETATM   14  O   UNL     1     -42.692  55.871 -59.883  1.00  0.00    -0.269 OA
BRANCH   8  15
HETATM   15  C   UNL     1     -42.775  61.302 -60.879  1.00  0.00     0.118 C 
BRANCH  15  16
HETATM   16  C   UNL     1     -41.509  61.987 -60.425  1.00  0.00    -0.051 A 
HETATM   17  C   UNL     1     -41.150  62.015 -59.072  1.00  0.00     0.007 A 
HETATM   18  C   UNL     1     -39.974  62.650 -58.667  1.00  0.00     0.001 A 
HETATM   19  C   UNL     1     -39.150  63.264 -59.608  1.00  0.00     0.000 A 
HETATM   20  C   UNL     1     -39.500  63.245 -60.956  1.00  0.00     0.001 A 
HETATM   21  C   UNL     1     -40.673  62.611 -61.363  1.00  0.00     0.007 A 
ENDBRANCH  15  16
ENDBRANCH   8  15
ENDBRANCH   5   6
ENDBRANCH   1   5
BRANCH   2  22
HETATM   22  N   UNL     1     -42.375  56.154 -55.748  1.00  0.00    -0.249 N 
HETATM   23  C   UNL     1     -42.136  54.878 -55.257  1.00  0.00     0.339 C 
HETATM   24  N   UNL     1     -41.218  54.895 -54.231  1.00  0.00    -0.308 N 
HETATM   25  O   UNL     1     -42.681  53.896 -55.750  1.00  0.00    -0.245 OA
HETATM   26  H   UNL     1     -40.760  55.781 -54.071  1.00  0.00     0.170 HD
HETATM   27  H   UNL     1     -42.310  56.955 -55.125  1.00  0.00     0.192 HD
BRANCH  24  28
HETATM   28  C   UNL     1     -40.744  53.798 -53.485  1.00  0.00     0.037 A 
HETATM   29  C   UNL     1     -40.504  52.532 -54.025  1.00  0.00     0.045 A 
HETATM   30  C   UNL     1     -40.023  51.482 -53.223  1.00  0.00     0.050 A 
HETATM   31  C   UNL     1     -39.800  51.714 -51.858  1.00  0.00     0.016 A 
HETATM   32  C   UNL     1     -40.042  52.971 -51.310  1.00  0.00     0.003 A 
HETATM   33  C   UNL     1     -40.512  54.006 -52.119  1.00  0.00     0.029 A 
BRANCH  30  34
HETATM   34  C   UNL     1     -39.783  50.113 -53.808  1.00  0.00     0.417 C 
HETATM   35  F   UNL     1     -38.735  50.061 -54.675  1.00  0.00    -0.166 F 
HETATM   36  F   UNL     1     -39.521  49.173 -52.856  1.00  0.00    -0.166 F 
HETATM   37  F   UNL     1     -40.864  49.649 -54.496  1.00  0.00    -0.166 F 
ENDBRANCH  30  34
ENDBRANCH  24  28
ENDBRANCH   2  22
TORSDOF 7
ENDMDL
MODEL 3
REMARK VINA RESULT:      -9.1      4.368      8.366
REMARK  7 active torsions:
REMARK  status: ('A' for Active; 'I' for Inactive)
REMARK    1  A    between atoms: C_4  and  C_5 
REMARK    2  A    between atoms: C_5  and  C_6 
REMARK    3  A    between atoms: C_8  and  C_9 
REMARK    4  A    between atoms: C_9  and  C_10 
REMARK       I    between atoms: C_10  and  N_11 
REMARK    5  A    between atoms: N_11  and  N_12 
REMARK       I    between atoms: N_12  and  C_13 
REMARK       I    between atoms: C_13  and  N_14 
REMARK    6  A    between atoms: N_14  and  C_15 
REMARK    7  A    between atoms: C_17  and  C_18 
ROOT
HETATM    1  C   UNL     1     -43.039  57.098 -58.000  1.00  0.00     0.238 C 
HETATM    2  N   UNL     1     -42.094  56.639 -57.110  1.00  0.00    -0.266 N 
HETATM    3  O   UNL     1     -44.037  56.450 -58.308  1.00  0.00    -0.272 OA
HETATM    4  H   UNL     1     -41.218  57.120 -56.898  1.00  0.00     0.190 HD
ENDROOT
BRANCH   1   5
HETATM    5  C   UNL     1     -42.721  58.469 -58.540  1.00  0.00     0.139 C 
BRANCH   5   6
HETATM    6  C   UNL     1     -43.214  59.577 -57.612  1.00  0.00     0.185 C 
HETATM    7  N   UNL     1     -44.031  59.011 -56.542  1.00  0.00    -0.363 N 
HETATM    8  C   UNL     1     -44.001  59.584 -55.291  1.00  0.00     0.125 C 
HETATM    9  H   UNL     1     -44.947  58.697 -56.864  1.00  0.00     0.161 HD
HETATM   10  N   UNL     1     -43.073  60.393 -54.871  1.00  0.00    -0.159 NA
HETATM   11  N   UNL     1     -42.073  60.712 -55.740  1.00  0.00    -0.244 N 
HETATM   12  C   UNL     1     -42.003  60.334 -57.060  1.00  0.00     0.261 C 
HETATM   13  H   UNL     1     -41.305  61.259 -55.364  1.00  0.00     0.192 HD
HETATM   14  O   UNL     1     -41.038  60.646 -57.756  1.00  0.00    -0.269 OA
BRANCH   8  15
HETATM   15  C   UNL     1     -45.133  59.245 -54.327  1.00  0.00     0.118 C 
BRANCH  15  16
HETATM   16  C   UNL     1     -44.697  58.277 -53.253  1.00  0.00    -0.051 A 
HETATM   17  C   UNL     1     -43.952  57.136 -53.572  1.00  0.00     0.007 A 
HETATM   18  C   UNL     1     -43.553  56.251 -52.568  1.00  0.00     0.001 A 
HETATM   19  C   UNL     1     -43.897  56.497 -51.240  1.00  0.00     0.000 A 
HETATM   20  C   UNL     1     -44.641  57.628 -50.914  1.00  0.00     0.001 A 
HETATM   21  C   UNL     1     -45.040  58.514 -51.914  1.00  0.00     0.007 A 
ENDBRANCH  15  16
ENDBRANCH   8  15
ENDBRANCH   5   6
ENDBRANCH   1   5
BRANCH   2  22
HETATM   22  N   UNL     1     -42.271  55.381 -56.517  1.00  0.00    -0.249 N 
HETATM   23  C   UNL     1     -41.459  55.087 -55.431  1.00  0.00     0.339 C 
HETATM   24  N   UNL     1     -41.664  53.802 -54.979  1.00  0.00    -0.308 N 
HETATM   25  O   UNL     1     -40.702  55.929 -54.958  1.00  0.00    -0.245 OA
HETATM   26  H   UNL     1     -42.443  53.313 -55.396  1.00  0.00     0.170 HD
HETATM   27  H   UNL     1     -42.537  54.641 -57.162  1.00  0.00     0.192 HD
BRANCH  24  28
HETATM   28  C   UNL     1     -41.012  53.153 -53.912  1.00  0.00     0.037 A 
HETATM   29  C   UNL     1     -41.070  53.585 -52.584  1.00  0.00     0.045 A 
HETATM   30  C   UNL     1     -40.401  52.883 -51.565  1.00  0.00     0.050 A 
HETATM   31  C   UNL     1     -39.652  51.746 -51.899  1.00  0.00     0.016 A 
HETATM   32  C   UNL     1     -39.583  51.313 -53.221  1.00  0.00     0.003 A 
HETATM   33  C   UNL     1     -40.259  52.014 -54.221  1.00  0.00     0.029 A 
BRANCH  30  34
HETATM   34  C   UNL     1     -40.452  53.364 -50.136  1.00  0.00     0.417 C 
HETATM   35  F   UNL     1     -41.554  54.109 -49.846  1.00  0.00    -0.166 F 
HETATM   36  F   UNL     1     -40.452  52.339 -49.237  1.00  0.00    -0.166 F 
HETATM   37  F   UNL     1     -39.379  54.139 -49.814  1.00  0.00    -0.166 F 
ENDBRANCH  30  34
ENDBRANCH  24  28
ENDBRANCH   2  22
TORSDOF 7
ENDMDL
MODEL 4
REMARK VINA RESULT:      -9.1      4.472      8.191
REMARK  7 active torsions:
REMARK  status: ('A' for Active; 'I' for Inactive)
REMARK    1  A    between atoms: C_4  and  C_5 
REMARK    2  A    between atoms: C_5  and  C_6 
REMARK    3  A    between atoms: C_8  and  C_9 
REMARK    4  A    between atoms: C_9  and  C_10 
REMARK       I    between atoms: C_10  and  N_11 
REMARK    5  A    between atoms: N_11  and  N_12 
REMARK       I    between atoms: N_12  and  C_13 
REMARK       I    between atoms: C_13  and  N_14 
REMARK    6  A    between atoms: N_14  and  C_15 
REMARK    7  A    between atoms: C_17  and  C_18 
ROOT
HETATM    1  C   UNL     1     -43.245  57.372 -56.576  1.00  0.00     0.238 C 
HETATM    2  N   UNL     1     -43.197  56.018 -56.819  1.00  0.00    -0.266 N 
HETATM    3  O   UNL     1     -42.313  57.993 -56.067  1.00  0.00    -0.272 OA
HETATM    4  H   UNL     1     -43.982  55.466 -57.166  1.00  0.00     0.190 HD
ENDROOT
BRANCH   1   5
HETATM    5  C   UNL     1     -44.544  58.002 -57.007  1.00  0.00     0.139 C 
BRANCH   5   6
HETATM    6  C   UNL     1     -45.435  58.349 -55.816  1.00  0.00     0.185 C 
HETATM    7  N   UNL     1     -44.833  57.860 -54.578  1.00  0.00    -0.363 N 
HETATM    8  C   UNL     1     -44.996  58.576 -53.415  1.00  0.00     0.125 C 
HETATM    9  H   UNL     1     -44.885  56.845 -54.484  1.00  0.00     0.161 HD
HETATM   10  N   UNL     1     -45.369  59.822 -53.362  1.00  0.00    -0.159 NA
HETATM   11  N   UNL     1     -45.636  60.453 -54.539  1.00  0.00    -0.244 N 
HETATM   12  C   UNL     1     -45.644  59.865 -55.783  1.00  0.00     0.261 C 
HETATM   13  H   UNL     1     -45.823  61.448 -54.487  1.00  0.00     0.192 HD
HETATM   14  O   UNL     1     -45.865  60.530 -56.794  1.00  0.00    -0.269 OA
BRANCH   8  15
HETATM   15  C   UNL     1     -44.720  57.864 -52.096  1.00  0.00     0.118 C 
BRANCH  15  16
HETATM   16  C   UNL     1     -43.314  58.105 -51.602  1.00  0.00    -0.051 A 
HETATM   17  C   UNL     1     -42.907  59.374 -51.174  1.00  0.00     0.007 A 
HETATM   18  C   UNL     1     -41.605  59.581 -50.717  1.00  0.00     0.001 A 
HETATM   19  C   UNL     1     -40.698  58.523 -50.684  1.00  0.00     0.000 A 
HETATM   20  C   UNL     1     -41.091  57.258 -51.110  1.00  0.00     0.001 A 
HETATM   21  C   UNL     1     -42.392  57.048 -51.568  1.00  0.00     0.007 A 
ENDBRANCH  15  16
ENDBRANCH   8  15
ENDBRANCH   5   6
ENDBRANCH   1   5
BRANCH   2  22
HETATM   22  N   UNL     1     -42.038  55.305 -56.481  1.00  0.00    -0.249 N 
HETATM   23  C   UNL     1     -42.050  54.644 -55.261  1.00  0.00     0.339 C 
HETATM   24  N   UNL     1     -40.839  54.044 -54.997  1.00  0.00    -0.308 N 
HETATM   25  O   UNL     1     -43.064  54.606 -54.570  1.00  0.00    -0.245 OA
HETATM   26  H   UNL     1     -40.175  54.052 -55.758  1.00  0.00     0.170 HD
HETATM   27  H   UNL     1     -41.172  55.715 -56.823  1.00  0.00     0.192 HD
BRANCH  24  28
HETATM   28  C   UNL     1     -40.478  53.304 -53.854  1.00  0.00     0.037 A 
HETATM   29  C   UNL     1     -40.583  53.787 -52.547  1.00  0.00     0.045 A 
HETATM   30  C   UNL     1     -40.212  52.989 -51.449  1.00  0.00     0.050 A 
HETATM   31  C   UNL     1     -39.714  51.699 -51.681  1.00  0.00     0.016 A 
HETATM   32  C   UNL     1     -39.600  51.213 -52.982  1.00  0.00     0.003 A 
HETATM   33  C   UNL     1     -39.980  52.012 -54.060  1.00  0.00     0.029 A 
BRANCH  30  34
HETATM   34  C   UNL     1     -40.310  53.522 -50.042  1.00  0.00     0.417 C 
HETATM   35  F   UNL     1     -39.275  54.335 -49.688  1.00  0.00    -0.166 F 
HETATM   36  F   UNL     1     -41.441  54.255 -49.835  1.00  0.00    -0.166 F 
HETATM   37  F   UNL     1     -40.339  52.526 -49.113  1.00  0.00    -0.166 F 
ENDBRANCH  30  34
ENDBRANCH  24  28
ENDBRANCH   2  22
TORSDOF 7
ENDMDL
MODEL 5
REMARK VINA RESULT:      -9.1      8.188     10.696
REMARK  7 active torsions:
REMARK  status: ('A' for Active; 'I' for Inactive)
REMARK    1  A    between atoms: C_4  and  C_5 
REMARK    2  A    between atoms: C_5  and  C_6 
REMARK    3  A    between atoms: C_8  and  C_9 
REMARK    4  A    between atoms: C_9  and  C_10 
REMARK       I    between atoms: C_10  and  N_11 
REMARK    5  A    between atoms: N_11  and  N_12 
REMARK       I    between atoms: N_12  and  C_13 
REMARK       I    between atoms: C_13  and  N_14 
REMARK    6  A    between atoms: N_14  and  C_15 
REMARK    7  A    between atoms: C_17  and  C_18 
ROOT
HETATM    1  C   UNL     1     -44.797  58.591 -51.012  1.00  0.00     0.238 C 
HETATM    2  N   UNL     1     -44.674  59.772 -50.314  1.00  0.00    -0.266 N 
HETATM    3  O   UNL     1     -45.483  57.650 -50.618  1.00  0.00    -0.272 OA
HETATM    4  H   UNL     1     -44.051  60.536 -50.578  1.00  0.00     0.190 HD
ENDROOT
BRANCH   1   5
HETATM    5  C   UNL     1     -44.015  58.586 -52.301  1.00  0.00     0.139 C 
BRANCH   5   6
HETATM    6  C   UNL     1     -42.817  57.642 -52.239  1.00  0.00     0.185 C 
HETATM    7  N   UNL     1     -43.107  56.412 -52.973  1.00  0.00    -0.363 N 
HETATM    8  C   UNL     1     -42.094  55.769 -53.647  1.00  0.00     0.125 C 
HETATM    9  H   UNL     1     -43.771  55.808 -52.490  1.00  0.00     0.161 HD
HETATM   10  N   UNL     1     -40.956  56.314 -53.964  1.00  0.00    -0.159 NA
HETATM   11  N   UNL     1     -40.746  57.606 -53.584  1.00  0.00    -0.244 N 
HETATM   12  C   UNL     1     -41.590  58.362 -52.804  1.00  0.00     0.261 C 
HETATM   13  H   UNL     1     -39.900  58.047 -53.928  1.00  0.00     0.192 HD
HETATM   14  O   UNL     1     -41.327  59.535 -52.542  1.00  0.00    -0.269 OA
BRANCH   8  15
HETATM   15  C   UNL     1     -42.319  54.317 -54.052  1.00  0.00     0.118 C 
BRANCH  15  16
HETATM   16  C   UNL     1     -41.323  53.384 -53.407  1.00  0.00    -0.051 A 
HETATM   17  C   UNL     1     -40.571  52.488 -54.177  1.00  0.00     0.007 A 
HETATM   18  C   UNL     1     -39.651  51.633 -53.567  1.00  0.00     0.001 A 
HETATM   19  C   UNL     1     -39.477  51.664 -52.184  1.00  0.00     0.000 A 
HETATM   20  C   UNL     1     -40.222  52.549 -51.410  1.00  0.00     0.001 A 
HETATM   21  C   UNL     1     -41.141  53.404 -52.016  1.00  0.00     0.007 A 
ENDBRANCH  15  16
ENDBRANCH   8  15
ENDBRANCH   5   6
ENDBRANCH   1   5
BRANCH   2  22
HETATM   22  N   UNL     1     -45.362  59.921 -49.102  1.00  0.00    -0.249 N 
HETATM   23  C   UNL     1     -45.067  61.053 -48.356  1.00  0.00     0.339 C 
HETATM   24  N   UNL     1     -45.740  61.058 -47.154  1.00  0.00    -0.308 N 
HETATM   25  O   UNL     1     -44.319  61.923 -48.792  1.00  0.00    -0.245 OA
HETATM   26  H   UNL     1     -46.434  60.333 -47.042  1.00  0.00     0.170 HD
HETATM   27  H   UNL     1     -45.582  59.049 -48.628  1.00  0.00     0.192 HD
BRANCH  24  28
HETATM   28  C   UNL     1     -45.676  62.031 -46.138  1.00  0.00     0.037 A 
HETATM   29  C   UNL     1     -44.730  62.023 -45.109  1.00  0.00     0.045 A 
HETATM   30  C   UNL     1     -44.718  63.033 -44.130  1.00  0.00     0.050 A 
HETATM   31  C   UNL     1     -45.683  64.048 -44.185  1.00  0.00     0.016 A 
HETATM   32  C   UNL     1     -46.634  64.060 -45.204  1.00  0.00     0.003 A 
HETATM   33  C   UNL     1     -46.629  63.057 -46.173  1.00  0.00     0.029 A 
BRANCH  30  34
HETATM   34  C   UNL     1     -43.707  63.009 -43.011  1.00  0.00     0.417 C 
HETATM   35  F   UNL     1     -42.836  61.964 -43.079  1.00  0.00    -0.166 F 
HETATM   36  F   UNL     1     -42.933  64.131 -42.978  1.00  0.00    -0.166 F 
HETATM   37  F   UNL     1     -44.295  62.929 -41.785  1.00  0.00    -0.166 F 
ENDBRANCH  30  34
ENDBRANCH  24  28
ENDBRANCH   2  22
TORSDOF 7
ENDMDL
MODEL 6
REMARK VINA RESULT:      -9.0      3.673      7.540
REMARK  7 active torsions:
REMARK  status: ('A' for Active; 'I' for Inactive)
REMARK    1  A    between atoms: C_4  and  C_5 
REMARK    2  A    between atoms: C_5  and  C_6 
REMARK    3  A    between atoms: C_8  and  C_9 
REMARK    4  A    between atoms: C_9  and  C_10 
REMARK       I    between atoms: C_10  and  N_11 
REMARK    5  A    between atoms: N_11  and  N_12 
REMARK       I    between atoms: N_12  and  C_13 
REMARK       I    between atoms: C_13  and  N_14 
REMARK    6  A    between atoms: N_14  and  C_15 
REMARK    7  A    between atoms: C_17  and  C_18 
ROOT
HETATM    1  C   UNL     1     -42.158  58.095 -51.093  1.00  0.00     0.238 C 
HETATM    2  N   UNL     1     -42.419  56.842 -50.582  1.00  0.00    -0.266 N 
HETATM    3  O   UNL     1     -41.024  58.475 -51.379  1.00  0.00    -0.272 OA
HETATM    4  H   UNL     1     -43.337  56.530 -50.263  1.00  0.00     0.190 HD
ENDROOT
BRANCH   1   5
HETATM    5  C   UNL     1     -43.400  58.930 -51.268  1.00  0.00     0.139 C 
BRANCH   5   6
HETATM    6  C   UNL     1     -43.560  59.422 -52.704  1.00  0.00     0.185 C 
HETATM    7  N   UNL     1     -42.955  58.470 -53.634  1.00  0.00    -0.363 N 
HETATM    8  C   UNL     1     -43.520  58.281 -54.874  1.00  0.00     0.125 C 
HETATM    9  H   UNL     1     -41.936  58.481 -53.608  1.00  0.00     0.161 HD
HETATM   10  N   UNL     1     -44.731  58.632 -55.196  1.00  0.00    -0.159 NA
HETATM   11  N   UNL     1     -45.484  59.248 -54.242  1.00  0.00    -0.244 N 
HETATM   12  C   UNL     1     -45.049  59.626 -52.993  1.00  0.00     0.261 C 
HETATM   13  H   UNL     1     -46.456  59.421 -54.475  1.00  0.00     0.192 HD
HETATM   14  O   UNL     1     -45.819  60.149 -52.187  1.00  0.00    -0.269 OA
BRANCH   8  15
HETATM   15  C   UNL     1     -42.669  57.613 -55.948  1.00  0.00     0.118 C 
BRANCH  15  16
HETATM   16  C   UNL     1     -42.289  56.200 -55.577  1.00  0.00    -0.051 A 
HETATM   17  C   UNL     1     -41.012  55.902 -55.087  1.00  0.00     0.007 A 
HETATM   18  C   UNL     1     -40.675  54.591 -54.745  1.00  0.00     0.001 A 
HETATM   19  C   UNL     1     -41.610  53.567 -54.890  1.00  0.00     0.000 A 
HETATM   20  C   UNL     1     -42.882  53.853 -55.379  1.00  0.00     0.001 A 
HETATM   21  C   UNL     1     -43.221  55.161 -55.722  1.00  0.00     0.007 A 
ENDBRANCH  15  16
ENDBRANCH   8  15
ENDBRANCH   5   6
ENDBRANCH   1   5
BRANCH   2  22
HETATM   22  N   UNL     1     -41.355  55.953 -50.382  1.00  0.00    -0.249 N 
HETATM   23  C   UNL     1     -41.493  54.685 -50.931  1.00  0.00     0.339 C 
HETATM   24  N   UNL     1     -40.429  53.874 -50.608  1.00  0.00    -0.308 N 
HETATM   25  O   UNL     1     -42.455  54.403 -51.639  1.00  0.00    -0.245 OA
HETATM   26  H   UNL     1     -39.656  54.333 -50.147  1.00  0.00     0.170 HD
HETATM   27  H   UNL     1     -40.865  56.068 -49.498  1.00  0.00     0.192 HD
BRANCH  24  28
HETATM   28  C   UNL     1     -40.234  52.528 -50.971  1.00  0.00     0.037 A 
HETATM   29  C   UNL     1     -40.050  52.094 -52.287  1.00  0.00     0.045 A 
HETATM   30  C   UNL     1     -39.852  50.732 -52.579  1.00  0.00     0.050 A 
HETATM   31  C   UNL     1     -39.859  49.802 -51.530  1.00  0.00     0.016 A 
HETATM   32  C   UNL     1     -40.048  50.225 -50.216  1.00  0.00     0.003 A 
HETATM   33  C   UNL     1     -40.235  51.580 -49.940  1.00  0.00     0.029 A 
BRANCH  30  34
HETATM   34  C   UNL     1     -39.672  50.267 -54.003  1.00  0.00     0.417 C 
HETATM   35  F   UNL     1     -40.811  49.783 -54.571  1.00  0.00    -0.166 F 
HETATM   36  F   UNL     1     -39.242  51.262 -54.829  1.00  0.00    -0.166 F 
HETATM   37  F   UNL     1     -38.747  49.273 -54.108  1.00  0.00    -0.166 F 
ENDBRANCH  30  34
ENDBRANCH  24  28
ENDBRANCH   2  22
TORSDOF 7
ENDMDL
MODEL 7
REMARK VINA RESULT:      -8.9      4.118      7.756
REMARK  7 active torsions:
REMARK  status: ('A' for Active; 'I' for Inactive)
REMARK    1  A    between atoms: C_4  and  C_5 
REMARK    2  A    between atoms: C_5  and  C_6 
REMARK    3  A    between atoms: C_8  and  C_9 
REMARK    4  A    between atoms: C_9  and  C_10 
REMARK       I    between atoms: C_10  and  N_11 
REMARK    5  A    between atoms: N_11  and  N_12 
REMARK       I    between atoms: N_12  and  C_13 
REMARK       I    between atoms: C_13  and  N_14 
REMARK    6  A    between atoms: N_14  and  C_15 
REMARK    7  A    between atoms: C_17  and  C_18 
ROOT
HETATM    1  C   UNL     1     -42.766  58.884 -56.161  1.00  0.00     0.238 C 
HETATM    2  N   UNL     1     -42.906  57.600 -56.641  1.00  0.00    -0.266 N 
HETATM    3  O   UNL     1     -41.756  59.273 -55.578  1.00  0.00    -0.272 OA
HETATM    4  H   UNL     1     -43.762  57.230 -57.056  1.00  0.00     0.190 HD
ENDROOT
BRANCH   1   5
HETATM    5  C   UNL     1     -43.969  59.749 -56.437  1.00  0.00     0.139 C 
BRANCH   5   6
HETATM    6  C   UNL     1     -45.090  59.509 -55.428  1.00  0.00     0.185 C 
HETATM    7  N   UNL     1     -44.541  58.977 -54.183  1.00  0.00    -0.363 N 
HETATM    8  C   UNL     1     -45.123  59.320 -52.984  1.00  0.00     0.125 C 
HETATM    9  H   UNL     1     -44.234  58.008 -54.266  1.00  0.00     0.161 HD
HETATM   10  N   UNL     1     -45.926  60.329 -52.815  1.00  0.00    -0.159 NA
HETATM   11  N   UNL     1     -46.227  61.086 -53.907  1.00  0.00    -0.244 N 
HETATM   12  C   UNL     1     -45.839  60.825 -55.200  1.00  0.00     0.261 C 
HETATM   13  H   UNL     1     -46.770  61.927 -53.739  1.00  0.00     0.192 HD
HETATM   14  O   UNL     1     -46.134  61.591 -56.116  1.00  0.00    -0.269 OA
BRANCH   8  15
HETATM   15  C   UNL     1     -44.804  58.459 -51.767  1.00  0.00     0.118 C 
BRANCH  15  16
HETATM   16  C   UNL     1     -43.358  58.574 -51.350  1.00  0.00    -0.051 A 
HETATM   17  C   UNL     1     -42.523  57.451 -51.328  1.00  0.00     0.007 A 
HETATM   18  C   UNL     1     -41.186  57.573 -50.943  1.00  0.00     0.001 A 
HETATM   19  C   UNL     1     -40.674  58.817 -50.576  1.00  0.00     0.000 A 
HETATM   20  C   UNL     1     -41.498  59.939 -50.592  1.00  0.00     0.001 A 
HETATM   21  C   UNL     1     -42.833  59.820 -50.976  1.00  0.00     0.007 A 
ENDBRANCH  15  16
ENDBRANCH   8  15
ENDBRANCH   5   6
ENDBRANCH   1   5
BRANCH   2  22
HETATM   22  N   UNL     1     -41.855  56.690 -56.466  1.00  0.00    -0.249 N 
HETATM   23  C   UNL     1     -41.969  55.806 -55.402  1.00  0.00     0.339 C 
HETATM   24  N   UNL     1     -40.850  55.014 -55.280  1.00  0.00    -0.308 N 
HETATM   25  O   UNL     1     -42.987  55.765 -54.719  1.00  0.00    -0.245 OA
HETATM   26  H   UNL     1     -40.181  55.086 -56.033  1.00  0.00     0.170 HD
HETATM   27  H   UNL     1     -40.939  57.043 -56.732  1.00  0.00     0.192 HD
BRANCH  24  28
HETATM   28  C   UNL     1     -40.603  54.020 -54.312  1.00  0.00     0.037 A 
HETATM   29  C   UNL     1     -40.412  52.669 -54.613  1.00  0.00     0.045 A 
HETATM   30  C   UNL     1     -40.160  51.730 -53.596  1.00  0.00     0.050 A 
HETATM   31  C   UNL     1     -40.120  52.162 -52.263  1.00  0.00     0.016 A 
HETATM   32  C   UNL     1     -40.316  53.507 -51.954  1.00  0.00     0.003 A 
HETATM   33  C   UNL     1     -40.556  54.429 -52.973  1.00  0.00     0.029 A 
BRANCH  30  34
HETATM   34  C   UNL     1     -39.974  50.270 -53.925  1.00  0.00     0.417 C 
HETATM   35  F   UNL     1     -38.858  50.011 -54.662  1.00  0.00    -0.166 F 
HETATM   36  F   UNL     1     -39.870  49.490 -52.811  1.00  0.00    -0.166 F 
HETATM   37  F   UNL     1     -41.019  49.763 -54.635  1.00  0.00    -0.166 F 
ENDBRANCH  30  34
ENDBRANCH  24  28
ENDBRANCH   2  22
TORSDOF 7
ENDMDL
MODEL 8
REMARK VINA RESULT:      -8.9      4.808     10.556
REMARK  7 active torsions:
REMARK  status: ('A' for Active; 'I' for Inactive)
REMARK    1  A    between atoms: C_4  and  C_5 
REMARK    2  A    between atoms: C_5  and  C_6 
REMARK    3  A    between atoms: C_8  and  C_9 
REMARK    4  A    between atoms: C_9  and  C_10 
REMARK       I    between atoms: C_10  and  N_11 
REMARK    5  A    between atoms: N_11  and  N_12 
REMARK       I    between atoms: N_12  and  C_13 
REMARK       I    between atoms: C_13  and  N_14 
REMARK    6  A    between atoms: N_14  and  C_15 
REMARK    7  A    between atoms: C_17  and  C_18 
ROOT
HETATM    1  C   UNL     1     -43.221  57.155 -57.327  1.00  0.00     0.238 C 
HETATM    2  N   UNL     1     -42.695  55.905 -57.084  1.00  0.00    -0.266 N 
HETATM    3  O   UNL     1     -42.807  58.172 -56.774  1.00  0.00    -0.272 OA
HETATM    4  H   UNL     1     -43.071  55.037 -57.468  1.00  0.00     0.190 HD
ENDROOT
BRANCH   1   5
HETATM    5  C   UNL     1     -44.337  57.137 -58.340  1.00  0.00     0.139 C 
BRANCH   5   6
HETATM    6  C   UNL     1     -43.928  57.799 -59.653  1.00  0.00     0.185 C 
HETATM    7  N   UNL     1     -43.760  59.237 -59.462  1.00  0.00    -0.363 N 
HETATM    8  C   UNL     1     -42.796  59.909 -60.178  1.00  0.00     0.125 C 
HETATM    9  H   UNL     1     -44.646  59.729 -59.341  1.00  0.00     0.161 HD
HETATM   10  N   UNL     1     -41.795  59.339 -60.784  1.00  0.00    -0.159 NA
HETATM   11  N   UNL     1     -41.709  57.981 -60.721  1.00  0.00    -0.244 N 
HETATM   12  C   UNL     1     -42.641  57.141 -60.158  1.00  0.00     0.261 C 
HETATM   13  H   UNL     1     -40.870  57.563 -61.109  1.00  0.00     0.192 HD
HETATM   14  O   UNL     1     -42.455  55.925 -60.121  1.00  0.00    -0.269 OA
BRANCH   8  15
HETATM   15  C   UNL     1     -42.905  61.427 -60.267  1.00  0.00     0.118 C 
BRANCH  15  16
HETATM   16  C   UNL     1     -41.559  62.086 -60.447  1.00  0.00    -0.051 A 
HETATM   17  C   UNL     1     -40.723  62.330 -59.351  1.00  0.00     0.007 A 
HETATM   18  C   UNL     1     -39.479  62.937 -59.534  1.00  0.00     0.001 A 
HETATM   19  C   UNL     1     -39.060  63.306 -60.811  1.00  0.00     0.000 A 
HETATM   20  C   UNL     1     -39.886  63.070 -61.907  1.00  0.00     0.001 A 
HETATM   21  C   UNL     1     -41.129  62.464 -61.728  1.00  0.00     0.007 A 
ENDBRANCH  15  16
ENDBRANCH   8  15
ENDBRANCH   5   6
ENDBRANCH   1   5
BRANCH   2  22
HETATM   22  N   UNL     1     -41.638  55.776 -56.172  1.00  0.00    -0.249 N 
HETATM   23  C   UNL     1     -41.720  54.722 -55.273  1.00  0.00     0.339 C 
HETATM   24  N   UNL     1     -40.672  54.737 -54.379  1.00  0.00    -0.308 N 
HETATM   25  O   UNL     1     -42.621  53.893 -55.348  1.00  0.00    -0.245 OA
HETATM   26  H   UNL     1     -39.942  55.407 -54.575  1.00  0.00     0.170 HD
HETATM   27  H   UNL     1     -41.218  56.655 -55.882  1.00  0.00     0.192 HD
BRANCH  24  28
HETATM   28  C   UNL     1     -40.434  53.839 -53.320  1.00  0.00     0.037 A 
HETATM   29  C   UNL     1     -40.613  54.159 -51.972  1.00  0.00     0.045 A 
HETATM   30  C   UNL     1     -40.364  53.210 -50.964  1.00  0.00     0.050 A 
HETATM   31  C   UNL     1     -39.914  51.933 -51.327  1.00  0.00     0.016 A 
HETATM   32  C   UNL     1     -39.727  51.608 -52.669  1.00  0.00     0.003 A 
HETATM   33  C   UNL     1     -39.985  52.557 -53.658  1.00  0.00     0.029 A 
BRANCH  30  34
HETATM   34  C   UNL     1     -40.541  53.566 -49.509  1.00  0.00     0.417 C 
HETATM   35  F   UNL     1     -39.546  54.350 -49.010  1.00  0.00    -0.166 F 
HETATM   36  F   UNL     1     -41.699  54.245 -49.272  1.00  0.00    -0.166 F 
HETATM   37  F   UNL     1     -40.588  52.464 -48.710  1.00  0.00    -0.166 F 
ENDBRANCH  30  34
ENDBRANCH  24  28
ENDBRANCH   2  22
TORSDOF 7
ENDMDL
MODEL 9
REMARK VINA RESULT:      -8.8      5.052      6.779
REMARK  7 active torsions:
REMARK  status: ('A' for Active; 'I' for Inactive)
REMARK    1  A    between atoms: C_4  and  C_5 
REMARK    2  A    between atoms: C_5  and  C_6 
REMARK    3  A    between atoms: C_8  and  C_9 
REMARK    4  A    between atoms: C_9  and  C_10 
REMARK       I    between atoms: C_10  and  N_11 
REMARK    5  A    between atoms: N_11  and  N_12 
REMARK       I    between atoms: N_12  and  C_13 
REMARK       I    between atoms: C_13  and  N_14 
REMARK    6  A    between atoms: N_14  and  C_15 
REMARK    7  A    between atoms: C_17  and  C_18 
ROOT
HETATM    1  C   UNL     1     -40.793  52.820 -54.662  1.00  0.00     0.238 C 
HETATM    2  N   UNL     1     -40.097  53.872 -55.216  1.00  0.00    -0.266 N 
HETATM    3  O   UNL     1     -41.971  52.905 -54.320  1.00  0.00    -0.272 OA
HETATM    4  H   UNL     1     -39.100  53.853 -55.435  1.00  0.00     0.190 HD
ENDROOT
BRANCH   1   5
HETATM    5  C   UNL     1     -39.962  51.569 -54.534  1.00  0.00     0.139 C 
BRANCH   5   6
HETATM    6  C   UNL     1     -39.333  51.439 -53.149  1.00  0.00     0.185 C 
HETATM    7  N   UNL     1     -39.922  52.415 -52.235  1.00  0.00    -0.363 N 
HETATM    8  C   UNL     1     -40.083  52.090 -50.908  1.00  0.00     0.125 C 
HETATM    9  H   UNL     1     -39.619  53.370 -52.424  1.00  0.00     0.161 HD
HETATM   10  N   UNL     1     -40.057  50.878 -50.436  1.00  0.00    -0.159 NA
HETATM   11  N   UNL     1     -39.832  49.863 -51.315  1.00  0.00    -0.244 N 
HETATM   12  C   UNL     1     -39.531  50.005 -52.649  1.00  0.00     0.261 C 
HETATM   13  H   UNL     1     -39.918  48.920 -50.949  1.00  0.00     0.192 HD
HETATM   14  O   UNL     1     -39.378  49.021 -53.372  1.00  0.00    -0.269 OA
BRANCH   8  15
HETATM   15  C   UNL     1     -40.311  53.229 -49.920  1.00  0.00     0.118 C 
BRANCH  15  16
HETATM   16  C   UNL     1     -41.458  54.120 -50.331  1.00  0.00    -0.051 A 
HETATM   17  C   UNL     1     -41.484  55.473 -49.973  1.00  0.00     0.007 A 
HETATM   18  C   UNL     1     -42.550  56.286 -50.364  1.00  0.00     0.001 A 
HETATM   19  C   UNL     1     -43.598  55.755 -51.113  1.00  0.00     0.000 A 
HETATM   20  C   UNL     1     -43.583  54.409 -51.472  1.00  0.00     0.001 A 
HETATM   21  C   UNL     1     -42.520  53.595 -51.083  1.00  0.00     0.007 A 
ENDBRANCH  15  16
ENDBRANCH   8  15
ENDBRANCH   5   6
ENDBRANCH   1   5
BRANCH   2  22
HETATM   22  N   UNL     1     -40.753  55.096 -55.408  1.00  0.00    -0.249 N 
HETATM   23  C   UNL     1     -40.973  55.866 -54.275  1.00  0.00     0.339 C 
HETATM   24  N   UNL     1     -41.689  57.005 -54.568  1.00  0.00    -0.308 N 
HETATM   25  O   UNL     1     -40.522  55.532 -53.183  1.00  0.00    -0.245 OA
HETATM   26  H   UNL     1     -41.834  57.187 -55.551  1.00  0.00     0.170 HD
HETATM   27  H   UNL     1     -41.437  55.098 -56.160  1.00  0.00     0.192 HD
BRANCH  24  28
HETATM   28  C   UNL     1     -42.110  58.008 -53.673  1.00  0.00     0.037 A 
HETATM   29  C   UNL     1     -41.342  58.470 -52.602  1.00  0.00     0.045 A 
HETATM   30  C   UNL     1     -41.821  59.483 -51.750  1.00  0.00     0.050 A 
HETATM   31  C   UNL     1     -43.097  60.018 -51.979  1.00  0.00     0.016 A 
HETATM   32  C   UNL     1     -43.873  59.558 -53.041  1.00  0.00     0.003 A 
HETATM   33  C   UNL     1     -43.381  58.559 -53.882  1.00  0.00     0.029 A 
BRANCH  30  34
HETATM   34  C   UNL     1     -40.995  59.965 -50.584  1.00  0.00     0.417 C 
HETATM   35  F   UNL     1     -41.154  59.222 -49.454  1.00  0.00    -0.166 F 
HETATM   36  F   UNL     1     -39.658  59.953 -50.848  1.00  0.00    -0.166 F 
HETATM   37  F   UNL     1     -41.292  61.248 -50.236  1.00  0.00    -0.166 F 
ENDBRANCH  30  34
ENDBRANCH  24  28
ENDBRANCH   2  22
TORSDOF 7
ENDMDL
MODEL 10
REMARK VINA RESULT:      -8.7      3.442      7.946
REMARK  7 active torsions:
REMARK  status: ('A' for Active; 'I' for Inactive)
REMARK    1  A    between atoms: C_4  and  C_5 
REMARK    2  A    between atoms: C_5  and  C_6 
REMARK    3  A    between atoms: C_8  and  C_9 
REMARK    4  A    between atoms: C_9  and  C_10 
REMARK       I    between atoms: C_10  and  N_11 
REMARK    5  A    between atoms: N_11  and  N_12 
REMARK       I    between atoms: N_12  and  C_13 
REMARK       I    between atoms: C_13  and  N_14 
REMARK    6  A    between atoms: N_14  and  C_15 
REMARK    7  A    between atoms: C_17  and  C_18 
ROOT
HETATM    1  C   UNL     1     -41.941  59.566 -52.066  1.00  0.00     0.238 C 
HETATM    2  N   UNL     1     -42.568  58.686 -51.212  1.00  0.00    -0.266 N 
HETATM    3  O   UNL     1     -40.735  59.524 -52.300  1.00  0.00    -0.272 OA
HETATM    4  H   UNL     1     -43.550  58.748 -50.939  1.00  0.00     0.190 HD
ENDROOT
BRANCH   1   5
HETATM    5  C   UNL     1     -42.888  60.564 -52.681  1.00  0.00     0.139 C 
BRANCH   5   6
HETATM    6  C   UNL     1     -43.315  60.155 -54.089  1.00  0.00     0.185 C 
HETATM    7  N   UNL     1     -42.872  58.792 -54.374  1.00  0.00    -0.363 N 
HETATM    8  C   UNL     1     -43.649  57.979 -55.166  1.00  0.00     0.125 C 
HETATM    9  H   UNL     1     -41.865  58.723 -54.521  1.00  0.00     0.161 HD
HETATM   10  N   UNL     1     -44.905  58.191 -55.435  1.00  0.00    -0.159 NA
HETATM   11  N   UNL     1     -45.483  59.308 -54.912  1.00  0.00    -0.244 N 
HETATM   12  C   UNL     1     -44.835  60.292 -54.203  1.00  0.00     0.261 C 
HETATM   13  H   UNL     1     -46.484  59.403 -55.045  1.00  0.00     0.192 HD
HETATM   14  O   UNL     1     -45.454  61.250 -53.741  1.00  0.00    -0.269 OA
BRANCH   8  15
HETATM   15  C   UNL     1     -42.996  56.740 -55.770  1.00  0.00     0.118 C 
BRANCH  15  16
HETATM   16  C   UNL     1     -42.766  56.884 -57.255  1.00  0.00    -0.051 A 
HETATM   17  C   UNL     1     -43.106  55.853 -58.140  1.00  0.00     0.007 A 
HETATM   18  C   UNL     1     -42.891  56.001 -59.511  1.00  0.00     0.001 A 
HETATM   19  C   UNL     1     -42.333  57.177 -60.010  1.00  0.00     0.000 A 
HETATM   20  C   UNL     1     -41.990  58.207 -59.138  1.00  0.00     0.001 A 
HETATM   21  C   UNL     1     -42.204  58.062 -57.767  1.00  0.00     0.007 A 
ENDBRANCH  15  16
ENDBRANCH   8  15
ENDBRANCH   5   6
ENDBRANCH   1   5
BRANCH   2  22
HETATM   22  N   UNL     1     -41.808  57.692 -50.580  1.00  0.00    -0.249 N 
HETATM   23  C   UNL     1     -41.679  56.486 -51.256  1.00  0.00     0.339 C 
HETATM   24  N   UNL     1     -40.981  55.561 -50.512  1.00  0.00    -0.308 N 
HETATM   25  O   UNL     1     -42.124  56.345 -52.391  1.00  0.00    -0.245 OA
HETATM   26  H   UNL     1     -40.557  55.913 -49.666  1.00  0.00     0.170 HD
HETATM   27  H   UNL     1     -41.861  57.697 -49.565  1.00  0.00     0.192 HD
BRANCH  24  28
HETATM   28  C   UNL     1     -40.672  54.233 -50.865  1.00  0.00     0.037 A 
HETATM   29  C   UNL     1     -40.496  53.796 -52.181  1.00  0.00     0.045 A 
HETATM   30  C   UNL     1     -40.179  52.455 -52.462  1.00  0.00     0.050 A 
HETATM   31  C   UNL     1     -40.059  51.546 -51.401  1.00  0.00     0.016 A 
HETATM   32  C   UNL     1     -40.240  51.971 -50.087  1.00  0.00     0.003 A 
HETATM   33  C   UNL     1     -40.545  53.307 -49.822  1.00  0.00     0.029 A 
BRANCH  30  34
HETATM   34  C   UNL     1     -40.008  51.985 -53.885  1.00  0.00     0.417 C 
HETATM   35  F   UNL     1     -41.120  51.397 -54.407  1.00  0.00    -0.166 F 
HETATM   36  F   UNL     1     -39.693  53.000 -54.739  1.00  0.00    -0.166 F 
HETATM   37  F   UNL     1     -39.006  51.072 -54.010  1.00  0.00    -0.166 F 
ENDBRANCH  30  34
ENDBRANCH  24  28
ENDBRANCH   2  22
TORSDOF 7
ENDMDL
