MODEL 1
REMARK VINA RESULT:      -8.4      0.000      0.000
REMARK  6 active torsions:
REMARK  status: ('A' for Active; 'I' for Inactive)
REMARK    1  A    between atoms: C_4  and  N_5 
REMARK    2  A    between atoms: C_6  and  S_7 
REMARK    3  A    between atoms: S_7  and  C_8 
REMARK    4  A    between atoms: C_8  and  C_9 
REMARK       I    between atoms: C_9  and  N_10 
REMARK    5  A    between atoms: N_10  and  C_11 
REMARK    6  A    between atoms: C_24  and  C_25 
ROOT
HETATM    1  N   UNL     1     -41.805  56.135 -52.275  1.00  0.00    -0.271 N 
HETATM    2  C   UNL     1     -42.017  57.428 -51.816  1.00  0.00     0.197 A 
HETATM    3  N   UNL     1     -41.431  57.603 -50.656  1.00  0.00    -0.122 NA
HETATM    4  N   UNL     1     -40.817  56.436 -50.313  1.00  0.00    -0.128 NA
HETATM    5  C   UNL     1     -41.060  55.538 -51.252  1.00  0.00     0.169 A 
ENDROOT
BRANCH   2   6
HETATM    6  S   UNL     1     -42.774  58.718 -52.701  1.00  0.00    -0.080 SA
BRANCH   6   7
HETATM    7  C   UNL     1     -41.393  59.222 -53.774  1.00  0.00     0.185 C 
BRANCH   7   8
HETATM    8  C   UNL     1     -41.850  59.337 -55.219  1.00  0.00     0.231 C 
HETATM    9  N   UNL     1     -42.393  58.159 -55.712  1.00  0.00    -0.326 N 
HETATM   10  H   UNL     1     -42.285  57.342 -55.122  1.00  0.00     0.169 HD
HETATM   11  O   UNL     1     -41.772  60.404 -55.823  1.00  0.00    -0.272 OA
BRANCH   9  12
HETATM   12  C   UNL     1     -43.013  57.954 -56.963  1.00  0.00     0.037 A 
HETATM   13  C   UNL     1     -44.369  57.639 -57.111  1.00  0.00     0.061 A 
HETATM   14  C   UNL     1     -44.832  57.443 -58.394  1.00  0.00     0.065 A 
HETATM   15  C   UNL     1     -44.008  57.550 -59.510  1.00  0.00     0.063 A 
HETATM   16  N   UNL     1     -46.109  57.114 -58.835  1.00  0.00    -0.306 N 
HETATM   17  N   UNL     1     -44.778  57.291 -60.638  1.00  0.00    -0.307 N 
HETATM   18  C   UNL     1     -42.676  57.860 -59.406  1.00  0.00     0.034 A 
HETATM   19  C   UNL     1     -46.092  57.015 -60.233  1.00  0.00     0.325 A 
HETATM   20  H   UNL     1     -44.478  57.287 -61.599  1.00  0.00     0.170 HD
HETATM   21  O   UNL     1     -47.032  56.741 -60.957  1.00  0.00    -0.247 OA
HETATM   22  C   UNL     1     -42.179  58.059 -58.109  1.00  0.00     0.032 A 
HETATM   23  H   UNL     1     -46.929  56.964 -58.268  1.00  0.00     0.170 HD
ENDBRANCH   9  12
ENDBRANCH   7   8
ENDBRANCH   6   7
ENDBRANCH   2   6
BRANCH   1  24
HETATM   24  C   UNL     1     -42.209  55.544 -53.507  1.00  0.00     0.043 A 
HETATM   25  C   UNL     1     -41.269  55.339 -54.527  1.00  0.00     0.030 A 
HETATM   26  C   UNL     1     -41.655  54.738 -55.727  1.00  0.00     0.002 A 
HETATM   27  C   UNL     1     -42.976  54.340 -55.917  1.00  0.00     0.000 A 
HETATM   28  C   UNL     1     -43.915  54.542 -54.907  1.00  0.00     0.002 A 
HETATM   29  C   UNL     1     -43.537  55.142 -53.704  1.00  0.00     0.030 A 
ENDBRANCH   1  24
BRANCH   5  30
HETATM   30  C   UNL     1     -40.663  54.132 -51.135  1.00  0.00     0.012 A 
HETATM   31  C   UNL     1     -40.161  53.411 -52.229  1.00  0.00     0.017 A 
HETATM   32  C   UNL     1     -39.808  52.066 -52.090  1.00  0.00     0.025 A 
HETATM   33  C   UNL     1     -39.968  51.429 -50.862  1.00  0.00     0.034 A 
HETATM   34 CL   UNL     1     -39.532  49.774 -50.692  1.00  0.00    -0.084 Cl
HETATM   35  C   UNL     1     -40.485  52.124 -49.771  1.00  0.00     0.025 A 
HETATM   36  C   UNL     1     -40.837  53.469 -49.910  1.00  0.00     0.017 A 
ENDBRANCH   5  30
TORSDOF 6
ENDMDL
MODEL 2
REMARK VINA RESULT:      -8.4      2.305      3.505
REMARK  6 active torsions:
REMARK  status: ('A' for Active; 'I' for Inactive)
REMARK    1  A    between atoms: C_4  and  N_5 
REMARK    2  A    between atoms: C_6  and  S_7 
REMARK    3  A    between atoms: S_7  and  C_8 
REMARK    4  A    between atoms: C_8  and  C_9 
REMARK       I    between atoms: C_9  and  N_10 
REMARK    5  A    between atoms: N_10  and  C_11 
REMARK    6  A    between atoms: C_24  and  C_25 
ROOT
HETATM    1  N   UNL     1     -42.960  57.570 -51.137  1.00  0.00    -0.271 N 
HETATM    2  C   UNL     1     -44.209  58.158 -50.986  1.00  0.00     0.197 A 
HETATM    3  N   UNL     1     -45.117  57.244 -50.738  1.00  0.00    -0.122 NA
HETATM    4  N   UNL     1     -44.498  56.030 -50.718  1.00  0.00    -0.128 NA
HETATM    5  C   UNL     1     -43.216  56.203 -50.991  1.00  0.00     0.169 A 
ENDROOT
BRANCH   2   6
HETATM    6  S   UNL     1     -44.540  59.862 -50.932  1.00  0.00    -0.080 SA
BRANCH   6   7
HETATM    7  C   UNL     1     -45.438  60.064 -52.502  1.00  0.00     0.185 C 
BRANCH   7   8
HETATM    8  C   UNL     1     -44.565  59.651 -53.676  1.00  0.00     0.231 C 
HETATM    9  N   UNL     1     -44.816  58.357 -54.111  1.00  0.00    -0.326 N 
HETATM   10  H   UNL     1     -45.422  57.801 -53.518  1.00  0.00     0.169 HD
HETATM   11  O   UNL     1     -43.773  60.441 -54.182  1.00  0.00    -0.272 OA
BRANCH   9  12
HETATM   12  C   UNL     1     -44.272  57.707 -55.238  1.00  0.00     0.037 A 
HETATM   13  C   UNL     1     -44.611  58.033 -56.557  1.00  0.00     0.061 A 
HETATM   14  C   UNL     1     -44.017  57.296 -57.559  1.00  0.00     0.065 A 
HETATM   15  C   UNL     1     -43.114  56.270 -57.298  1.00  0.00     0.063 A 
HETATM   16  N   UNL     1     -44.172  57.390 -58.938  1.00  0.00    -0.306 N 
HETATM   17  N   UNL     1     -42.711  55.734 -58.515  1.00  0.00    -0.307 N 
HETATM   18  C   UNL     1     -42.755  55.923 -56.020  1.00  0.00     0.034 A 
HETATM   19  C   UNL     1     -43.363  56.421 -59.549  1.00  0.00     0.325 A 
HETATM   20  H   UNL     1     -42.065  54.976 -58.669  1.00  0.00     0.170 HD
HETATM   21  O   UNL     1     -43.249  56.212 -60.743  1.00  0.00    -0.247 OA
HETATM   22  C   UNL     1     -43.350  56.655 -54.982  1.00  0.00     0.032 A 
HETATM   23  H   UNL     1     -44.759  58.034 -59.442  1.00  0.00     0.170 HD
ENDBRANCH   9  12
ENDBRANCH   7   8
ENDBRANCH   6   7
ENDBRANCH   2   6
BRANCH   1  24
HETATM   24  C   UNL     1     -41.698  58.193 -51.356  1.00  0.00     0.043 A 
HETATM   25  C   UNL     1     -40.999  58.759 -50.279  1.00  0.00     0.030 A 
HETATM   26  C   UNL     1     -39.751  59.350 -50.484  1.00  0.00     0.002 A 
HETATM   27  C   UNL     1     -39.193  59.381 -51.760  1.00  0.00     0.000 A 
HETATM   28  C   UNL     1     -39.882  58.822 -52.835  1.00  0.00     0.002 A 
HETATM   29  C   UNL     1     -41.131  58.229 -52.638  1.00  0.00     0.030 A 
ENDBRANCH   1  24
BRANCH   5  30
HETATM   30  C   UNL     1     -42.283  55.089 -51.184  1.00  0.00     0.012 A 
HETATM   31  C   UNL     1     -42.150  54.443 -52.422  1.00  0.00     0.017 A 
HETATM   32  C   UNL     1     -41.265  53.370 -52.571  1.00  0.00     0.025 A 
HETATM   33  C   UNL     1     -40.520  52.929 -51.480  1.00  0.00     0.034 A 
HETATM   34 CL   UNL     1     -39.432  51.610 -51.664  1.00  0.00    -0.084 Cl
HETATM   35  C   UNL     1     -40.658  53.545 -50.238  1.00  0.00     0.025 A 
HETATM   36  C   UNL     1     -41.541  54.617 -50.091  1.00  0.00     0.017 A 
ENDBRANCH   5  30
TORSDOF 6
ENDMDL
MODEL 3
REMARK VINA RESULT:      -8.4      2.066      3.610
REMARK  6 active torsions:
REMARK  status: ('A' for Active; 'I' for Inactive)
REMARK    1  A    between atoms: C_4  and  N_5 
REMARK    2  A    between atoms: C_6  and  S_7 
REMARK    3  A    between atoms: S_7  and  C_8 
REMARK    4  A    between atoms: C_8  and  C_9 
REMARK       I    between atoms: C_9  and  N_10 
REMARK    5  A    between atoms: N_10  and  C_11 
REMARK    6  A    between atoms: C_24  and  C_25 
ROOT
HETATM    1  N   UNL     1     -42.832  57.665 -53.017  1.00  0.00    -0.271 N 
HETATM    2  C   UNL     1     -43.949  58.319 -53.520  1.00  0.00     0.197 A 
HETATM    3  N   UNL     1     -44.825  57.450 -53.966  1.00  0.00    -0.122 NA
HETATM    4  N   UNL     1     -44.316  56.201 -53.771  1.00  0.00    -0.128 NA
HETATM    5  C   UNL     1     -43.111  56.312 -53.238  1.00  0.00     0.169 A 
ENDROOT
BRANCH   2   6
HETATM    6  S   UNL     1     -44.270  60.024 -53.422  1.00  0.00    -0.080 SA
BRANCH   6   7
HETATM    7  C   UNL     1     -43.651  60.560 -55.047  1.00  0.00     0.185 C 
BRANCH   7   8
HETATM    8  C   UNL     1     -44.180  59.655 -56.148  1.00  0.00     0.231 C 
HETATM    9  N   UNL     1     -43.260  58.698 -56.553  1.00  0.00    -0.326 N 
HETATM   10  H   UNL     1     -42.321  58.806 -56.189  1.00  0.00     0.169 HD
HETATM   11  O   UNL     1     -45.330  59.772 -56.562  1.00  0.00    -0.272 OA
BRANCH   9  12
HETATM   12  C   UNL     1     -43.465  57.638 -57.462  1.00  0.00     0.037 A 
HETATM   13  C   UNL     1     -44.051  57.802 -58.722  1.00  0.00     0.061 A 
HETATM   14  C   UNL     1     -44.209  56.673 -59.494  1.00  0.00     0.065 A 
HETATM   15  C   UNL     1     -43.808  55.411 -59.064  1.00  0.00     0.063 A 
HETATM   16  N   UNL     1     -44.762  56.537 -60.763  1.00  0.00    -0.306 N 
HETATM   17  N   UNL     1     -44.111  54.499 -60.068  1.00  0.00    -0.307 N 
HETATM   18  C   UNL     1     -43.227  55.210 -57.838  1.00  0.00     0.034 A 
HETATM   19  C   UNL     1     -44.708  55.186 -61.136  1.00  0.00     0.325 A 
HETATM   20  H   UNL     1     -43.949  53.505 -60.065  1.00  0.00     0.170 HD
HETATM   21  O   UNL     1     -45.105  54.700 -62.180  1.00  0.00    -0.247 OA
HETATM   22  C   UNL     1     -43.060  56.345 -57.031  1.00  0.00     0.032 A 
HETATM   23  H   UNL     1     -45.146  57.267 -61.341  1.00  0.00     0.170 HD
ENDBRANCH   9  12
ENDBRANCH   7   8
ENDBRANCH   6   7
ENDBRANCH   2   6
BRANCH   1  24
HETATM   24  C   UNL     1     -41.679  58.217 -52.388  1.00  0.00     0.043 A 
HETATM   25  C   UNL     1     -41.682  58.455 -51.006  1.00  0.00     0.030 A 
HETATM   26  C   UNL     1     -40.546  58.974 -50.380  1.00  0.00     0.002 A 
HETATM   27  C   UNL     1     -39.404  59.258 -51.126  1.00  0.00     0.000 A 
HETATM   28  C   UNL     1     -39.396  59.024 -52.500  1.00  0.00     0.002 A 
HETATM   29  C   UNL     1     -40.528  58.506 -53.133  1.00  0.00     0.030 A 
ENDBRANCH   1  24
BRANCH   5  30
HETATM   30  C   UNL     1     -42.224  55.166 -53.024  1.00  0.00     0.012 A 
HETATM   31  C   UNL     1     -42.110  54.543 -51.772  1.00  0.00     0.017 A 
HETATM   32  C   UNL     1     -41.240  53.463 -51.593  1.00  0.00     0.025 A 
HETATM   33  C   UNL     1     -40.469  53.009 -52.661  1.00  0.00     0.034 A 
HETATM   34 CL   UNL     1     -39.400  51.681 -52.440  1.00  0.00    -0.084 Cl
HETATM   35  C   UNL     1     -40.553  53.631 -53.905  1.00  0.00     0.025 A 
HETATM   36  C   UNL     1     -41.424  54.710 -54.082  1.00  0.00     0.017 A 
ENDBRANCH   5  30
TORSDOF 6
ENDMDL
MODEL 4
REMARK VINA RESULT:      -8.1      2.034      3.518
REMARK  6 active torsions:
REMARK  status: ('A' for Active; 'I' for Inactive)
REMARK    1  A    between atoms: C_4  and  N_5 
REMARK    2  A    between atoms: C_6  and  S_7 
REMARK    3  A    between atoms: S_7  and  C_8 
REMARK    4  A    between atoms: C_8  and  C_9 
REMARK       I    between atoms: C_9  and  N_10 
REMARK    5  A    between atoms: N_10  and  C_11 
REMARK    6  A    between atoms: C_24  and  C_25 
ROOT
HETATM    1  N   UNL     1     -42.963  57.261 -53.279  1.00  0.00    -0.271 N 
HETATM    2  C   UNL     1     -44.132  57.868 -53.720  1.00  0.00     0.197 A 
HETATM    3  N   UNL     1     -44.914  56.989 -54.299  1.00  0.00    -0.122 NA
HETATM    4  N   UNL     1     -44.289  55.779 -54.260  1.00  0.00    -0.128 NA
HETATM    5  C   UNL     1     -43.107  55.930 -53.687  1.00  0.00     0.169 A 
ENDROOT
BRANCH   2   6
HETATM    6  S   UNL     1     -44.618  59.506 -53.402  1.00  0.00    -0.080 SA
BRANCH   6   7
HETATM    7  C   UNL     1     -43.881  60.342 -54.841  1.00  0.00     0.185 C 
BRANCH   7   8
HETATM    8  C   UNL     1     -43.824  59.405 -56.036  1.00  0.00     0.231 C 
HETATM    9  N   UNL     1     -45.078  59.098 -56.545  1.00  0.00    -0.326 N 
HETATM   10  H   UNL     1     -45.868  59.401 -55.987  1.00  0.00     0.169 HD
HETATM   11  O   UNL     1     -42.748  59.031 -56.493  1.00  0.00    -0.272 OA
BRANCH   9  12
HETATM   12  C   UNL     1     -45.377  58.358 -57.709  1.00  0.00     0.037 A 
HETATM   13  C   UNL     1     -44.552  57.347 -58.215  1.00  0.00     0.061 A 
HETATM   14  C   UNL     1     -44.959  56.725 -59.374  1.00  0.00     0.065 A 
HETATM   15  C   UNL     1     -46.138  57.065 -60.031  1.00  0.00     0.063 A 
HETATM   16  N   UNL     1     -44.344  55.709 -60.099  1.00  0.00    -0.306 N 
HETATM   17  N   UNL     1     -46.250  56.259 -61.158  1.00  0.00    -0.307 N 
HETATM   18  C   UNL     1     -46.974  58.048 -59.565  1.00  0.00     0.034 A 
HETATM   19  C   UNL     1     -45.137  55.407 -61.215  1.00  0.00     0.325 A 
HETATM   20  H   UNL     1     -46.988  56.260 -61.843  1.00  0.00     0.170 HD
HETATM   21  O   UNL     1     -44.905  54.573 -62.071  1.00  0.00    -0.247 OA
HETATM   22  C   UNL     1     -46.578  58.700 -58.388  1.00  0.00     0.032 A 
HETATM   23  H   UNL     1     -43.474  55.249 -59.884  1.00  0.00     0.170 HD
ENDBRANCH   9  12
ENDBRANCH   7   8
ENDBRANCH   6   7
ENDBRANCH   2   6
BRANCH   1  24
HETATM   24  C   UNL     1     -41.877  57.828 -52.553  1.00  0.00     0.043 A 
HETATM   25  C   UNL     1     -40.820  58.442 -53.240  1.00  0.00     0.030 A 
HETATM   26  C   UNL     1     -39.764  59.021 -52.532  1.00  0.00     0.002 A 
HETATM   27  C   UNL     1     -39.756  58.991 -51.140  1.00  0.00     0.000 A 
HETATM   28  C   UNL     1     -40.804  58.382 -50.451  1.00  0.00     0.002 A 
HETATM   29  C   UNL     1     -41.863  57.801 -51.152  1.00  0.00     0.030 A 
ENDBRANCH   1  24
BRANCH   5  30
HETATM   30  C   UNL     1     -42.115  54.854 -53.605  1.00  0.00     0.012 A 
HETATM   31  C   UNL     1     -41.349  54.469 -54.715  1.00  0.00     0.017 A 
HETATM   32  C   UNL     1     -40.423  53.426 -54.611  1.00  0.00     0.025 A 
HETATM   33  C   UNL     1     -40.271  52.752 -53.401  1.00  0.00     0.034 A 
HETATM   34 CL   UNL     1     -39.132  51.470 -53.274  1.00  0.00    -0.084 Cl
HETATM   35  C   UNL     1     -41.040  53.107 -52.296  1.00  0.00     0.025 A 
HETATM   36  C   UNL     1     -41.964  54.151 -52.401  1.00  0.00     0.017 A 
ENDBRANCH   5  30
TORSDOF 6
ENDMDL
MODEL 5
REMARK VINA RESULT:      -8.0      3.802      8.264
REMARK  6 active torsions:
REMARK  status: ('A' for Active; 'I' for Inactive)
REMARK    1  A    between atoms: C_4  and  N_5 
REMARK    2  A    between atoms: C_6  and  S_7 
REMARK    3  A    between atoms: S_7  and  C_8 
REMARK    4  A    between atoms: C_8  and  C_9 
REMARK       I    between atoms: C_9  and  N_10 
REMARK    5  A    between atoms: N_10  and  C_11 
REMARK    6  A    between atoms: C_24  and  C_25 
ROOT
HETATM    1  N   UNL     1     -43.084  58.169 -55.231  1.00  0.00    -0.271 N 
HETATM    2  C   UNL     1     -42.470  59.195 -54.525  1.00  0.00     0.197 A 
HETATM    3  N   UNL     1     -42.935  60.359 -54.914  1.00  0.00    -0.122 NA
HETATM    4  N   UNL     1     -43.865  60.138 -55.884  1.00  0.00    -0.128 NA
HETATM    5  C   UNL     1     -43.941  58.838 -56.112  1.00  0.00     0.169 A 
ENDROOT
BRANCH   2   6
HETATM    6  S   UNL     1     -41.384  59.008 -53.182  1.00  0.00    -0.080 SA
BRANCH   6   7
HETATM    7  C   UNL     1     -42.583  58.769 -51.833  1.00  0.00     0.185 C 
BRANCH   7   8
HETATM    8  C   UNL     1     -42.639  57.308 -51.418  1.00  0.00     0.231 C 
HETATM    9  N   UNL     1     -41.400  56.684 -51.459  1.00  0.00    -0.326 N 
HETATM   10  H   UNL     1     -40.653  57.213 -51.893  1.00  0.00     0.169 HD
HETATM   11  O   UNL     1     -43.692  56.799 -51.043  1.00  0.00    -0.272 OA
BRANCH   9  12
HETATM   12  C   UNL     1     -41.080  55.378 -51.030  1.00  0.00     0.037 A 
HETATM   13  C   UNL     1     -40.652  54.364 -51.895  1.00  0.00     0.061 A 
HETATM   14  C   UNL     1     -40.397  53.130 -51.339  1.00  0.00     0.065 A 
HETATM   15  C   UNL     1     -40.547  52.877 -49.979  1.00  0.00     0.063 A 
HETATM   16  N   UNL     1     -39.977  51.953 -51.949  1.00  0.00    -0.306 N 
HETATM   17  N   UNL     1     -40.217  51.547 -49.750  1.00  0.00    -0.307 N 
HETATM   18  C   UNL     1     -40.961  53.845 -49.100  1.00  0.00     0.034 A 
HETATM   19  C   UNL     1     -39.860  50.955 -50.971  1.00  0.00     0.325 A 
HETATM   20  H   UNL     1     -40.226  51.054 -48.872  1.00  0.00     0.170 HD
HETATM   21  O   UNL     1     -39.519  49.799 -51.144  1.00  0.00    -0.247 OA
HETATM   22  C   UNL     1     -41.232  55.110 -49.643  1.00  0.00     0.032 A 
HETATM   23  H   UNL     1     -39.782  51.809 -52.927  1.00  0.00     0.170 HD
ENDBRANCH   9  12
ENDBRANCH   7   8
ENDBRANCH   6   7
ENDBRANCH   2   6
BRANCH   1  24
HETATM   24  C   UNL     1     -42.922  56.761 -55.087  1.00  0.00     0.043 A 
HETATM   25  C   UNL     1     -41.773  56.133 -55.589  1.00  0.00     0.030 A 
HETATM   26  C   UNL     1     -41.598  54.757 -55.430  1.00  0.00     0.002 A 
HETATM   27  C   UNL     1     -42.565  54.000 -54.773  1.00  0.00     0.000 A 
HETATM   28  C   UNL     1     -43.710  54.618 -54.273  1.00  0.00     0.002 A 
HETATM   29  C   UNL     1     -43.892  55.994 -54.428  1.00  0.00     0.030 A 
ENDBRANCH   1  24
BRANCH   5  30
HETATM   30  C   UNL     1     -44.746  58.262 -57.192  1.00  0.00     0.012 A 
HETATM   31  C   UNL     1     -44.157  57.645 -58.306  1.00  0.00     0.017 A 
HETATM   32  C   UNL     1     -44.952  57.121 -59.330  1.00  0.00     0.025 A 
HETATM   33  C   UNL     1     -46.339  57.224 -59.253  1.00  0.00     0.034 A 
HETATM   34 CL   UNL     1     -47.316  56.579 -60.513  1.00  0.00    -0.084 Cl
HETATM   35  C   UNL     1     -46.939  57.854 -58.165  1.00  0.00     0.025 A 
HETATM   36  C   UNL     1     -46.144  58.376 -57.142  1.00  0.00     0.017 A 
ENDBRANCH   5  30
TORSDOF 6
ENDMDL
MODEL 6
REMARK VINA RESULT:      -7.9      2.630      4.402
REMARK  6 active torsions:
REMARK  status: ('A' for Active; 'I' for Inactive)
REMARK    1  A    between atoms: C_4  and  N_5 
REMARK    2  A    between atoms: C_6  and  S_7 
REMARK    3  A    between atoms: S_7  and  C_8 
REMARK    4  A    between atoms: C_8  and  C_9 
REMARK       I    between atoms: C_9  and  N_10 
REMARK    5  A    between atoms: N_10  and  C_11 
REMARK    6  A    between atoms: C_24  and  C_25 
ROOT
HETATM    1  N   UNL     1     -42.385  55.908 -54.169  1.00  0.00    -0.271 N 
HETATM    2  C   UNL     1     -42.769  55.524 -55.447  1.00  0.00     0.197 A 
HETATM    3  N   UNL     1     -42.914  54.222 -55.509  1.00  0.00    -0.122 NA
HETATM    4  N   UNL     1     -42.631  53.707 -54.279  1.00  0.00    -0.128 NA
HETATM    5  C   UNL     1     -42.278  54.697 -53.477  1.00  0.00     0.169 A 
ENDROOT
BRANCH   2   6
HETATM    6  S   UNL     1     -43.196  56.588 -56.752  1.00  0.00    -0.080 SA
BRANCH   6   7
HETATM    7  C   UNL     1     -43.096  55.431 -58.154  1.00  0.00     0.185 C 
BRANCH   7   8
HETATM    8  C   UNL     1     -43.898  55.949 -59.336  1.00  0.00     0.231 C 
HETATM    9  N   UNL     1     -45.154  56.418 -58.976  1.00  0.00    -0.326 N 
HETATM   10  H   UNL     1     -45.441  56.226 -58.023  1.00  0.00     0.169 HD
HETATM   11  O   UNL     1     -43.415  55.974 -60.465  1.00  0.00    -0.272 OA
BRANCH   9  12
HETATM   12  C   UNL     1     -46.099  57.066 -59.799  1.00  0.00     0.037 A 
HETATM   13  C   UNL     1     -46.933  56.391 -60.698  1.00  0.00     0.061 A 
HETATM   14  C   UNL     1     -47.792  57.157 -61.456  1.00  0.00     0.065 A 
HETATM   15  C   UNL     1     -47.850  58.543 -61.348  1.00  0.00     0.063 A 
HETATM   16  N   UNL     1     -48.712  56.764 -62.422  1.00  0.00    -0.306 N 
HETATM   17  N   UNL     1     -48.806  59.004 -62.245  1.00  0.00    -0.307 N 
HETATM   18  C   UNL     1     -47.052  59.240 -60.477  1.00  0.00     0.034 A 
HETATM   19  C   UNL     1     -49.353  57.905 -62.924  1.00  0.00     0.325 A 
HETATM   20  H   UNL     1     -49.084  59.957 -62.411  1.00  0.00     0.170 HD
HETATM   21  O   UNL     1     -50.215  57.940 -63.784  1.00  0.00    -0.247 OA
HETATM   22  C   UNL     1     -46.164  58.482 -59.698  1.00  0.00     0.032 A 
HETATM   23  H   UNL     1     -48.907  55.825 -62.731  1.00  0.00     0.170 HD
ENDBRANCH   9  12
ENDBRANCH   7   8
ENDBRANCH   6   7
ENDBRANCH   2   6
BRANCH   1  24
HETATM   24  C   UNL     1     -42.177  57.219 -53.653  1.00  0.00     0.043 A 
HETATM   25  C   UNL     1     -43.269  57.977 -53.205  1.00  0.00     0.030 A 
HETATM   26  C   UNL     1     -43.068  59.254 -52.676  1.00  0.00     0.002 A 
HETATM   27  C   UNL     1     -41.781  59.781 -52.590  1.00  0.00     0.000 A 
HETATM   28  C   UNL     1     -40.692  59.033 -53.034  1.00  0.00     0.002 A 
HETATM   29  C   UNL     1     -40.886  57.756 -53.565  1.00  0.00     0.030 A 
ENDBRANCH   1  24
BRANCH   5  30
HETATM   30  C   UNL     1     -41.777  54.483 -52.116  1.00  0.00     0.012 A 
HETATM   31  C   UNL     1     -40.549  53.849 -51.872  1.00  0.00     0.017 A 
HETATM   32  C   UNL     1     -40.106  53.642 -50.562  1.00  0.00     0.025 A 
HETATM   33  C   UNL     1     -40.895  54.052 -49.490  1.00  0.00     0.034 A 
HETATM   34 CL   UNL     1     -40.349  53.797 -47.879  1.00  0.00    -0.084 Cl
HETATM   35  C   UNL     1     -42.127  54.662 -49.715  1.00  0.00     0.025 A 
HETATM   36  C   UNL     1     -42.568  54.870 -51.024  1.00  0.00     0.017 A 
ENDBRANCH   5  30
TORSDOF 6
ENDMDL
MODEL 7
REMARK VINA RESULT:      -7.8      2.481      4.057
REMARK  6 active torsions:
REMARK  status: ('A' for Active; 'I' for Inactive)
REMARK    1  A    between atoms: C_4  and  N_5 
REMARK    2  A    between atoms: C_6  and  S_7 
REMARK    3  A    between atoms: S_7  and  C_8 
REMARK    4  A    between atoms: C_8  and  C_9 
REMARK       I    between atoms: C_9  and  N_10 
REMARK    5  A    between atoms: N_10  and  C_11 
REMARK    6  A    between atoms: C_24  and  C_25 
ROOT
HETATM    1  N   UNL     1     -42.759  58.527 -52.490  1.00  0.00    -0.271 N 
HETATM    2  C   UNL     1     -43.863  59.361 -52.606  1.00  0.00     0.197 A 
HETATM    3  N   UNL     1     -44.874  58.710 -53.130  1.00  0.00    -0.122 NA
HETATM    4  N   UNL     1     -44.471  57.432 -53.375  1.00  0.00    -0.128 NA
HETATM    5  C   UNL     1     -43.199  57.315 -53.033  1.00  0.00     0.169 A 
ENDROOT
BRANCH   2   6
HETATM    6  S   UNL     1     -43.996  60.978 -51.985  1.00  0.00    -0.080 SA
BRANCH   6   7
HETATM    7  C   UNL     1     -42.963  61.869 -53.190  1.00  0.00     0.185 C 
BRANCH   7   8
HETATM    8  C   UNL     1     -43.283  61.420 -54.606  1.00  0.00     0.231 C 
HETATM    9  N   UNL     1     -42.234  60.739 -55.209  1.00  0.00    -0.326 N 
HETATM   10  H   UNL     1     -41.353  60.753 -54.710  1.00  0.00     0.169 HD
HETATM   11  O   UNL     1     -44.390  61.622 -55.097  1.00  0.00    -0.272 OA
BRANCH   9  12
HETATM   12  C   UNL     1     -42.236  60.093 -56.463  1.00  0.00     0.037 A 
HETATM   13  C   UNL     1     -42.649  58.768 -56.650  1.00  0.00     0.061 A 
HETATM   14  C   UNL     1     -42.574  58.261 -57.928  1.00  0.00     0.065 A 
HETATM   15  C   UNL     1     -42.115  59.013 -59.006  1.00  0.00     0.063 A 
HETATM   16  N   UNL     1     -42.901  56.994 -58.399  1.00  0.00    -0.306 N 
HETATM   17  N   UNL     1     -42.162  58.211 -60.140  1.00  0.00    -0.307 N 
HETATM   18  C   UNL     1     -41.706  60.314 -58.864  1.00  0.00     0.034 A 
HETATM   19  C   UNL     1     -42.650  56.946 -59.778  1.00  0.00     0.325 A 
HETATM   20  H   UNL     1     -41.895  58.458 -61.079  1.00  0.00     0.170 HD
HETATM   21  O   UNL     1     -42.817  55.994 -60.518  1.00  0.00    -0.247 OA
HETATM   22  C   UNL     1     -41.767  60.852 -57.570  1.00  0.00     0.032 A 
HETATM   23  H   UNL     1     -43.259  56.219 -57.864  1.00  0.00     0.170 HD
ENDBRANCH   9  12
ENDBRANCH   7   8
ENDBRANCH   6   7
ENDBRANCH   2   6
BRANCH   1  24
HETATM   24  C   UNL     1     -41.481  58.806 -51.924  1.00  0.00     0.043 A 
HETATM   25  C   UNL     1     -40.344  58.835 -52.744  1.00  0.00     0.030 A 
HETATM   26  C   UNL     1     -39.092  59.132 -52.198  1.00  0.00     0.002 A 
HETATM   27  C   UNL     1     -38.968  59.399 -50.837  1.00  0.00     0.000 A 
HETATM   28  C   UNL     1     -40.095  59.371 -50.017  1.00  0.00     0.002 A 
HETATM   29  C   UNL     1     -41.350  59.075 -50.555  1.00  0.00     0.030 A 
ENDBRANCH   1  24
BRANCH   5  30
HETATM   30  C   UNL     1     -42.409  56.108 -53.292  1.00  0.00     0.012 A 
HETATM   31  C   UNL     1     -42.288  55.085 -52.339  1.00  0.00     0.017 A 
HETATM   32  C   UNL     1     -41.511  53.954 -52.608  1.00  0.00     0.025 A 
HETATM   33  C   UNL     1     -40.840  53.846 -53.824  1.00  0.00     0.034 A 
HETATM   34 CL   UNL     1     -39.886  52.454 -54.153  1.00  0.00    -0.084 Cl
HETATM   35  C   UNL     1     -40.932  54.863 -54.771  1.00  0.00     0.025 A 
HETATM   36  C   UNL     1     -41.709  55.992 -54.502  1.00  0.00     0.017 A 
ENDBRANCH   5  30
TORSDOF 6
ENDMDL
MODEL 8
REMARK VINA RESULT:      -7.7      4.628      7.850
REMARK  6 active torsions:
REMARK  status: ('A' for Active; 'I' for Inactive)
REMARK    1  A    between atoms: C_4  and  N_5 
REMARK    2  A    between atoms: C_6  and  S_7 
REMARK    3  A    between atoms: S_7  and  C_8 
REMARK    4  A    between atoms: C_8  and  C_9 
REMARK       I    between atoms: C_9  and  N_10 
REMARK    5  A    between atoms: N_10  and  C_11 
REMARK    6  A    between atoms: C_24  and  C_25 
ROOT
HETATM    1  N   UNL     1     -42.946  59.150 -53.039  1.00  0.00    -0.271 N 
HETATM    2  C   UNL     1     -42.695  59.208 -54.403  1.00  0.00     0.197 A 
HETATM    3  N   UNL     1     -43.008  60.391 -54.876  1.00  0.00    -0.122 NA
HETATM    4  N   UNL     1     -43.474  61.147 -53.843  1.00  0.00    -0.128 NA
HETATM    5  C   UNL     1     -43.478  60.410 -52.746  1.00  0.00     0.169 A 
ENDROOT
BRANCH   2   6
HETATM    6  S   UNL     1     -41.902  57.987 -55.352  1.00  0.00    -0.080 SA
BRANCH   6   7
HETATM    7  C   UNL     1     -43.298  56.857 -55.649  1.00  0.00     0.185 C 
BRANCH   7   8
HETATM    8  C   UNL     1     -43.054  55.515 -54.979  1.00  0.00     0.231 C 
HETATM    9  N   UNL     1     -41.706  55.218 -54.832  1.00  0.00    -0.326 N 
HETATM   10  H   UNL     1     -41.063  55.838 -55.310  1.00  0.00     0.169 HD
HETATM   11  O   UNL     1     -43.992  54.829 -54.581  1.00  0.00    -0.272 OA
BRANCH   9  12
HETATM   12  C   UNL     1     -41.136  54.120 -54.155  1.00  0.00     0.037 A 
HETATM   13  C   UNL     1     -40.976  52.854 -54.731  1.00  0.00     0.061 A 
HETATM   14  C   UNL     1     -40.424  51.869 -53.942  1.00  0.00     0.065 A 
HETATM   15  C   UNL     1     -40.032  52.098 -52.626  1.00  0.00     0.063 A 
HETATM   16  N   UNL     1     -40.161  50.537 -54.242  1.00  0.00    -0.306 N 
HETATM   17  N   UNL     1     -39.525  50.908 -52.117  1.00  0.00    -0.307 N 
HETATM   18  C   UNL     1     -40.169  53.324 -52.028  1.00  0.00     0.034 A 
HETATM   19  C   UNL     1     -39.600  49.923 -53.113  1.00  0.00     0.325 A 
HETATM   20  H   UNL     1     -39.161  50.741 -51.193  1.00  0.00     0.170 HD
HETATM   21  O   UNL     1     -39.248  48.761 -53.012  1.00  0.00    -0.247 OA
HETATM   22  C   UNL     1     -40.733  54.343 -52.809  1.00  0.00     0.032 A 
HETATM   23  H   UNL     1     -40.335  50.063 -55.113  1.00  0.00     0.170 HD
ENDBRANCH   9  12
ENDBRANCH   7   8
ENDBRANCH   6   7
ENDBRANCH   2   6
BRANCH   1  24
HETATM   24  C   UNL     1     -42.698  58.084 -52.127  1.00  0.00     0.043 A 
HETATM   25  C   UNL     1     -41.461  57.995 -51.473  1.00  0.00     0.030 A 
HETATM   26  C   UNL     1     -41.221  56.966 -50.560  1.00  0.00     0.002 A 
HETATM   27  C   UNL     1     -42.210  56.021 -50.295  1.00  0.00     0.000 A 
HETATM   28  C   UNL     1     -43.441  56.103 -50.943  1.00  0.00     0.002 A 
HETATM   29  C   UNL     1     -43.689  57.130 -51.858  1.00  0.00     0.030 A 
ENDBRANCH   1  24
BRANCH   5  30
HETATM   30  C   UNL     1     -44.048  60.870 -51.476  1.00  0.00     0.012 A 
HETATM   31  C   UNL     1     -43.241  61.171 -50.369  1.00  0.00     0.017 A 
HETATM   32  C   UNL     1     -43.815  61.591 -49.165  1.00  0.00     0.025 A 
HETATM   33  C   UNL     1     -45.200  61.696 -49.057  1.00  0.00     0.034 A 
HETATM   34 CL   UNL     1     -45.905  62.212 -47.576  1.00  0.00    -0.084 Cl
HETATM   35  C   UNL     1     -46.017  61.379 -50.140  1.00  0.00     0.025 A 
HETATM   36  C   UNL     1     -45.442  60.962 -51.343  1.00  0.00     0.017 A 
ENDBRANCH   5  30
TORSDOF 6
ENDMDL
MODEL 9
REMARK VINA RESULT:      -7.6      2.293      4.213
REMARK  6 active torsions:
REMARK  status: ('A' for Active; 'I' for Inactive)
REMARK    1  A    between atoms: C_4  and  N_5 
REMARK    2  A    between atoms: C_6  and  S_7 
REMARK    3  A    between atoms: S_7  and  C_8 
REMARK    4  A    between atoms: C_8  and  C_9 
REMARK       I    between atoms: C_9  and  N_10 
REMARK    5  A    between atoms: N_10  and  C_11 
REMARK    6  A    between atoms: C_24  and  C_25 
ROOT
HETATM    1  N   UNL     1     -42.338  56.743 -54.815  1.00  0.00    -0.271 N 
HETATM    2  C   UNL     1     -42.936  57.188 -55.987  1.00  0.00     0.197 A 
HETATM    3  N   UNL     1     -43.192  56.178 -56.783  1.00  0.00    -0.122 NA
HETATM    4  N   UNL     1     -42.771  55.038 -56.166  1.00  0.00    -0.128 NA
HETATM    5  C   UNL     1     -42.226  55.361 -55.005  1.00  0.00     0.169 A 
ENDROOT
BRANCH   2   6
HETATM    6  S   UNL     1     -43.466  58.811 -56.314  1.00  0.00    -0.080 SA
BRANCH   6   7
HETATM    7  C   UNL     1     -42.529  59.151 -57.837  1.00  0.00     0.185 C 
BRANCH   7   8
HETATM    8  C   UNL     1     -43.328  58.739 -59.062  1.00  0.00     0.231 C 
HETATM    9  N   UNL     1     -44.551  58.165 -58.745  1.00  0.00    -0.326 N 
HETATM   10  H   UNL     1     -44.699  57.954 -57.765  1.00  0.00     0.169 HD
HETATM   11  O   UNL     1     -42.907  58.962 -60.194  1.00  0.00    -0.272 OA
BRANCH   9  12
HETATM   12  C   UNL     1     -45.578  57.781 -59.633  1.00  0.00     0.037 A 
HETATM   13  C   UNL     1     -46.477  58.684 -60.213  1.00  0.00     0.061 A 
HETATM   14  C   UNL     1     -47.444  58.163 -61.043  1.00  0.00     0.065 A 
HETATM   15  C   UNL     1     -47.542  56.801 -61.314  1.00  0.00     0.063 A 
HETATM   16  N   UNL     1     -48.461  58.811 -61.737  1.00  0.00    -0.306 N 
HETATM   17  N   UNL     1     -48.616  56.611 -62.175  1.00  0.00    -0.307 N 
HETATM   18  C   UNL     1     -46.679  55.886 -60.768  1.00  0.00     0.034 A 
HETATM   19  C   UNL     1     -49.201  57.857 -62.448  1.00  0.00     0.325 A 
HETATM   20  H   UNL     1     -48.952  55.741 -62.556  1.00  0.00     0.170 HD
HETATM   21  O   UNL     1     -50.167  58.064 -63.161  1.00  0.00    -0.247 OA
HETATM   22  C   UNL     1     -45.687  56.392 -59.914  1.00  0.00     0.032 A 
HETATM   23  H   UNL     1     -48.658  59.799 -61.745  1.00  0.00     0.170 HD
ENDBRANCH   9  12
ENDBRANCH   7   8
ENDBRANCH   6   7
ENDBRANCH   2   6
BRANCH   1  24
HETATM   24  C   UNL     1     -41.953  57.490 -53.666  1.00  0.00     0.043 A 
HETATM   25  C   UNL     1     -42.869  57.696 -52.624  1.00  0.00     0.030 A 
HETATM   26  C   UNL     1     -42.489  58.407 -51.484  1.00  0.00     0.002 A 
HETATM   27  C   UNL     1     -41.198  58.918 -51.377  1.00  0.00     0.000 A 
HETATM   28  C   UNL     1     -40.283  58.718 -52.409  1.00  0.00     0.002 A 
HETATM   29  C   UNL     1     -40.656  58.007 -53.552  1.00  0.00     0.030 A 
ENDBRANCH   1  24
BRANCH   5  30
HETATM   30  C   UNL     1     -41.548  54.389 -54.143  1.00  0.00     0.012 A 
HETATM   31  C   UNL     1     -41.792  54.327 -52.763  1.00  0.00     0.017 A 
HETATM   32  C   UNL     1     -41.115  53.401 -51.963  1.00  0.00     0.025 A 
HETATM   33  C   UNL     1     -40.180  52.542 -52.536  1.00  0.00     0.034 A 
HETATM   34 CL   UNL     1     -39.349  51.404 -51.552  1.00  0.00    -0.084 Cl
HETATM   35  C   UNL     1     -39.910  52.606 -53.901  1.00  0.00     0.025 A 
HETATM   36  C   UNL     1     -40.588  53.531 -54.700  1.00  0.00     0.017 A 
ENDBRANCH   5  30
TORSDOF 6
ENDMDL
MODEL 10
REMARK VINA RESULT:      -7.5      4.016      8.713
REMARK  6 active torsions:
REMARK  status: ('A' for Active; 'I' for Inactive)
REMARK    1  A    between atoms: C_4  and  N_5 
REMARK    2  A    between atoms: C_6  and  S_7 
REMARK    3  A    between atoms: S_7  and  C_8 
REMARK    4  A    between atoms: C_8  and  C_9 
REMARK       I    between atoms: C_9  and  N_10 
REMARK    5  A    between atoms: N_10  and  C_11 
REMARK    6  A    between atoms: C_24  and  C_25 
ROOT
HETATM    1  N   UNL     1     -43.873  59.035 -57.757  1.00  0.00    -0.271 N 
HETATM    2  C   UNL     1     -43.573  59.195 -56.410  1.00  0.00     0.197 A 
HETATM    3  N   UNL     1     -44.447  58.557 -55.668  1.00  0.00    -0.122 NA
HETATM    4  N   UNL     1     -45.348  57.960 -56.498  1.00  0.00    -0.128 NA
HETATM    5  C   UNL     1     -45.041  58.265 -57.747  1.00  0.00     0.169 A 
ENDROOT
BRANCH   2   6
HETATM    6  S   UNL     1     -42.152  59.954 -55.760  1.00  0.00    -0.080 SA
BRANCH   6   7
HETATM    7  C   UNL     1     -42.269  59.417 -54.025  1.00  0.00     0.185 C 
BRANCH   7   8
HETATM    8  C   UNL     1     -41.347  58.238 -53.764  1.00  0.00     0.231 C 
HETATM    9  N   UNL     1     -41.986  57.011 -53.887  1.00  0.00    -0.326 N 
HETATM   10  H   UNL     1     -42.994  57.046 -53.981  1.00  0.00     0.169 HD
HETATM   11  O   UNL     1     -40.154  58.410 -53.526  1.00  0.00    -0.272 OA
BRANCH   9  12
HETATM   12  C   UNL     1     -41.403  55.728 -53.826  1.00  0.00     0.037 A 
HETATM   13  C   UNL     1     -41.266  54.996 -52.640  1.00  0.00     0.061 A 
HETATM   14  C   UNL     1     -40.656  53.765 -52.728  1.00  0.00     0.065 A 
HETATM   15  C   UNL     1     -40.190  53.246 -53.933  1.00  0.00     0.063 A 
HETATM   16  N   UNL     1     -40.379  52.839 -51.728  1.00  0.00    -0.306 N 
HETATM   17  N   UNL     1     -39.629  52.000 -53.675  1.00  0.00    -0.307 N 
HETATM   18  C   UNL     1     -40.308  53.930 -55.115  1.00  0.00     0.034 A 
HETATM   19  C   UNL     1     -39.738  51.732 -52.302  1.00  0.00     0.325 A 
HETATM   20  H   UNL     1     -39.203  51.370 -54.335  1.00  0.00     0.170 HD
HETATM   21  O   UNL     1     -39.348  50.733 -51.725  1.00  0.00    -0.247 OA
HETATM   22  C   UNL     1     -40.923  55.190 -55.051  1.00  0.00     0.032 A 
HETATM   23  H   UNL     1     -40.590  52.922 -50.747  1.00  0.00     0.170 HD
ENDBRANCH   9  12
ENDBRANCH   7   8
ENDBRANCH   6   7
ENDBRANCH   2   6
BRANCH   1  24
HETATM   24  C   UNL     1     -43.158  59.506 -58.895  1.00  0.00     0.043 A 
HETATM   25  C   UNL     1     -42.467  58.599 -59.712  1.00  0.00     0.030 A 
HETATM   26  C   UNL     1     -41.784  59.052 -60.843  1.00  0.00     0.002 A 
HETATM   27  C   UNL     1     -41.785  60.407 -61.165  1.00  0.00     0.000 A 
HETATM   28  C   UNL     1     -42.470  61.313 -60.357  1.00  0.00     0.002 A 
HETATM   29  C   UNL     1     -43.155  60.868 -59.224  1.00  0.00     0.030 A 
ENDBRANCH   1  24
BRANCH   5  30
HETATM   30  C   UNL     1     -45.884  57.899 -58.889  1.00  0.00     0.012 A 
HETATM   31  C   UNL     1     -46.760  58.818 -59.486  1.00  0.00     0.017 A 
HETATM   32  C   UNL     1     -47.566  58.433 -60.563  1.00  0.00     0.025 A 
HETATM   33  C   UNL     1     -47.510  57.125 -61.038  1.00  0.00     0.034 A 
HETATM   34 CL   UNL     1     -48.501  56.654 -62.362  1.00  0.00    -0.084 Cl
HETATM   35  C   UNL     1     -46.662  56.195 -60.442  1.00  0.00     0.025 A 
HETATM   36  C   UNL     1     -45.857  56.580 -59.368  1.00  0.00     0.017 A 
ENDBRANCH   5  30
TORSDOF 6
ENDMDL
