MODEL 1
REMARK VINA RESULT:      -7.5      0.000      0.000
REMARK  5 active torsions:
REMARK  status: ('A' for Active; 'I' for Inactive)
REMARK    1  A    between atoms: C_2  and  N_3 
REMARK    2  A    between atoms: C_2  and  C_19 
REMARK       I    between atoms: N_3  and  C_4 
REMARK    3  A    between atoms: C_4  and  C_5 
REMARK    4  A    between atoms: C_6  and  O_7 
REMARK    5  A    between atoms: O_7  and  C_8 
ROOT
HETATM    1  C   UNL     1     -40.174  52.410 -53.848  1.00  0.00     0.065 A 
HETATM    2  C   UNL     1     -39.957  52.538 -52.468  1.00  0.00     0.091 A 
HETATM    3  C   UNL     1     -39.753  51.386 -51.694  1.00  0.00     0.038 A 
HETATM    4  C   UNL     1     -39.714  50.127 -52.295  1.00  0.00     0.003 A 
HETATM    5  C   UNL     1     -39.906  50.003 -53.669  1.00  0.00     0.001 A 
HETATM    6  C   UNL     1     -40.146  51.138 -54.444  1.00  0.00     0.020 A 
ENDROOT
BRANCH   1   7
HETATM    7  C   UNL     1     -40.480  53.600 -54.688  1.00  0.00     0.255 C 
HETATM    8  N   UNL     1     -41.819  53.916 -54.805  1.00  0.00    -0.348 N 
HETATM    9  H   UNL     1     -42.515  53.273 -54.455  1.00  0.00     0.163 HD
HETATM   10  O   UNL     1     -39.591  54.251 -55.220  1.00  0.00    -0.268 OA
BRANCH   8  11
HETATM   11  C   UNL     1     -42.266  55.030 -55.626  1.00  0.00     0.115 C 
HETATM   12  C   UNL     1     -43.330  54.573 -56.627  1.00  0.00     0.037 C 
BRANCH  11  13
HETATM   13  C   UNL     1     -42.737  56.158 -54.737  1.00  0.00    -0.018 A 
HETATM   14  C   UNL     1     -41.823  57.096 -54.262  1.00  0.00     0.125 A 
HETATM   15  N   UNL     1     -42.140  58.130 -53.449  1.00  0.00    -0.273 NA
HETATM   16  C   UNL     1     -43.433  58.238 -53.080  1.00  0.00     0.116 A 
HETATM   17  C   UNL     1     -44.420  57.355 -53.482  1.00  0.00     0.020 A 
HETATM   18  C   UNL     1     -44.066  56.301 -54.319  1.00  0.00     0.012 A 
ENDBRANCH  11  13
ENDBRANCH   8  11
ENDBRANCH   1   7
BRANCH   2  19
HETATM   19  O   UNL     1     -40.017  53.795 -51.906  1.00  0.00    -0.310 OA
BRANCH  19  20
HETATM   20  C   UNL     1     -41.233  54.287 -51.495  1.00  0.00     0.076 A 
HETATM   21  C   UNL     1     -42.416  53.545 -51.549  1.00  0.00     0.037 A 
HETATM   22  C   UNL     1     -43.606  54.106 -51.080  1.00  0.00     0.003 A 
HETATM   23  C   UNL     1     -43.607  55.392 -50.537  1.00  0.00     0.000 A 
HETATM   24  C   UNL     1     -42.419  56.117 -50.455  1.00  0.00     0.003 A 
HETATM   25  C   UNL     1     -41.230  55.562 -50.927  1.00  0.00     0.037 A 
ENDBRANCH  19  20
ENDBRANCH   2  19
TORSDOF 5
ENDMDL
MODEL 2
REMARK VINA RESULT:      -7.2      2.715      3.907
REMARK  5 active torsions:
REMARK  status: ('A' for Active; 'I' for Inactive)
REMARK    1  A    between atoms: C_2  and  N_3 
REMARK    2  A    between atoms: C_2  and  C_19 
REMARK       I    between atoms: N_3  and  C_4 
REMARK    3  A    between atoms: C_4  and  C_5 
REMARK    4  A    between atoms: C_6  and  O_7 
REMARK    5  A    between atoms: O_7  and  C_8 
ROOT
HETATM    1  C   UNL     1     -41.900  54.073 -53.826  1.00  0.00     0.065 A 
HETATM    2  C   UNL     1     -41.531  54.558 -52.562  1.00  0.00     0.091 A 
HETATM    3  C   UNL     1     -40.591  53.847 -51.801  1.00  0.00     0.038 A 
HETATM    4  C   UNL     1     -39.988  52.698 -52.315  1.00  0.00     0.003 A 
HETATM    5  C   UNL     1     -40.338  52.230 -53.579  1.00  0.00     0.001 A 
HETATM    6  C   UNL     1     -41.298  52.908 -54.331  1.00  0.00     0.020 A 
ENDROOT
BRANCH   1   7
HETATM    7  C   UNL     1     -42.957  54.750 -54.627  1.00  0.00     0.255 C 
HETATM    8  N   UNL     1     -42.560  55.897 -55.286  1.00  0.00    -0.348 N 
HETATM    9  H   UNL     1     -41.653  56.296 -55.088  1.00  0.00     0.163 HD
HETATM   10  O   UNL     1     -44.092  54.298 -54.699  1.00  0.00    -0.268 OA
BRANCH   8  11
HETATM   11  C   UNL     1     -43.497  56.682 -56.074  1.00  0.00     0.115 C 
HETATM   12  C   UNL     1     -43.747  58.044 -55.421  1.00  0.00     0.037 C 
BRANCH  11  13
HETATM   13  C   UNL     1     -42.995  56.791 -57.495  1.00  0.00    -0.018 A 
HETATM   14  C   UNL     1     -42.305  57.931 -57.903  1.00  0.00     0.125 A 
HETATM   15  N   UNL     1     -41.831  58.133 -59.154  1.00  0.00    -0.273 NA
HETATM   16  C   UNL     1     -42.059  57.154 -60.054  1.00  0.00     0.116 A 
HETATM   17  C   UNL     1     -42.743  55.987 -59.760  1.00  0.00     0.020 A 
HETATM   18  C   UNL     1     -43.219  55.806 -58.464  1.00  0.00     0.012 A 
ENDBRANCH  11  13
ENDBRANCH   8  11
ENDBRANCH   1   7
BRANCH   2  19
HETATM   19  O   UNL     1     -42.158  55.687 -52.081  1.00  0.00    -0.310 OA
BRANCH  19  20
HETATM   20  C   UNL     1     -41.425  56.836 -51.905  1.00  0.00     0.076 A 
HETATM   21  C   UNL     1     -40.905  57.582 -52.966  1.00  0.00     0.037 A 
HETATM   22  C   UNL     1     -40.200  58.759 -52.703  1.00  0.00     0.003 A 
HETATM   23  C   UNL     1     -40.036  59.199 -51.389  1.00  0.00     0.000 A 
HETATM   24  C   UNL     1     -40.585  58.469 -50.334  1.00  0.00     0.003 A 
HETATM   25  C   UNL     1     -41.285  57.291 -50.593  1.00  0.00     0.037 A 
ENDBRANCH  19  20
ENDBRANCH   2  19
TORSDOF 5
ENDMDL
MODEL 3
REMARK VINA RESULT:      -7.2      1.691      3.831
REMARK  5 active torsions:
REMARK  status: ('A' for Active; 'I' for Inactive)
REMARK    1  A    between atoms: C_2  and  N_3 
REMARK    2  A    between atoms: C_2  and  C_19 
REMARK       I    between atoms: N_3  and  C_4 
REMARK    3  A    between atoms: C_4  and  C_5 
REMARK    4  A    between atoms: C_6  and  O_7 
REMARK    5  A    between atoms: O_7  and  C_8 
ROOT
HETATM    1  C   UNL     1     -39.975  51.977 -51.860  1.00  0.00     0.065 A 
HETATM    2  C   UNL     1     -39.772  52.182 -53.234  1.00  0.00     0.091 A 
HETATM    3  C   UNL     1     -39.499  51.081 -54.060  1.00  0.00     0.038 A 
HETATM    4  C   UNL     1     -39.480  49.789 -53.534  1.00  0.00     0.003 A 
HETATM    5  C   UNL     1     -39.705  49.584 -52.175  1.00  0.00     0.001 A 
HETATM    6  C   UNL     1     -39.942  50.673 -51.336  1.00  0.00     0.020 A 
ENDROOT
BRANCH   1   7
HETATM    7  C   UNL     1     -40.181  53.126 -50.937  1.00  0.00     0.255 C 
HETATM    8  N   UNL     1     -41.496  53.489 -50.725  1.00  0.00    -0.348 N 
HETATM    9  H   UNL     1     -42.224  53.078 -51.292  1.00  0.00     0.163 HD
HETATM   10  O   UNL     1     -39.237  53.689 -50.398  1.00  0.00    -0.268 OA
BRANCH   8  11
HETATM   11  C   UNL     1     -41.844  54.618 -49.877  1.00  0.00     0.115 C 
HETATM   12  C   UNL     1     -40.942  54.666 -48.640  1.00  0.00     0.037 C 
BRANCH  11  13
HETATM   13  C   UNL     1     -41.803  55.892 -50.688  1.00  0.00    -0.018 A 
HETATM   14  C   UNL     1     -40.997  56.952 -50.276  1.00  0.00     0.125 A 
HETATM   15  N   UNL     1     -40.903  58.138 -50.920  1.00  0.00    -0.273 NA
HETATM   16  C   UNL     1     -41.652  58.285 -52.032  1.00  0.00     0.116 A 
HETATM   17  C   UNL     1     -42.495  57.303 -52.524  1.00  0.00     0.020 A 
HETATM   18  C   UNL     1     -42.572  56.093 -51.840  1.00  0.00     0.012 A 
ENDBRANCH  11  13
ENDBRANCH   8  11
ENDBRANCH   1   7
BRANCH   2  19
HETATM   19  O   UNL     1     -39.783  53.473 -53.715  1.00  0.00    -0.310 OA
BRANCH  19  20
HETATM   20  C   UNL     1     -40.887  53.924 -54.398  1.00  0.00     0.076 A 
HETATM   21  C   UNL     1     -42.123  53.271 -54.370  1.00  0.00     0.037 A 
HETATM   22  C   UNL     1     -43.207  53.814 -55.064  1.00  0.00     0.003 A 
HETATM   23  C   UNL     1     -43.062  55.014 -55.761  1.00  0.00     0.000 A 
HETATM   24  C   UNL     1     -41.836  55.679 -55.760  1.00  0.00     0.003 A 
HETATM   25  C   UNL     1     -40.751  55.138 -55.072  1.00  0.00     0.037 A 
ENDBRANCH  19  20
ENDBRANCH   2  19
TORSDOF 5
ENDMDL
MODEL 4
REMARK VINA RESULT:      -6.9      1.847      4.175
REMARK  5 active torsions:
REMARK  status: ('A' for Active; 'I' for Inactive)
REMARK    1  A    between atoms: C_2  and  N_3 
REMARK    2  A    between atoms: C_2  and  C_19 
REMARK       I    between atoms: N_3  and  C_4 
REMARK    3  A    between atoms: C_4  and  C_5 
REMARK    4  A    between atoms: C_6  and  O_7 
REMARK    5  A    between atoms: O_7  and  C_8 
ROOT
HETATM    1  C   UNL     1     -41.103  53.671 -52.138  1.00  0.00     0.065 A 
HETATM    2  C   UNL     1     -41.753  53.513 -53.372  1.00  0.00     0.091 A 
HETATM    3  C   UNL     1     -41.279  52.555 -54.281  1.00  0.00     0.038 A 
HETATM    4  C   UNL     1     -40.206  51.730 -53.943  1.00  0.00     0.003 A 
HETATM    5  C   UNL     1     -39.576  51.871 -52.709  1.00  0.00     0.001 A 
HETATM    6  C   UNL     1     -40.015  52.845 -51.811  1.00  0.00     0.020 A 
ENDROOT
BRANCH   1   7
HETATM    7  C   UNL     1     -41.521  54.734 -51.184  1.00  0.00     0.255 C 
HETATM    8  N   UNL     1     -41.263  56.030 -51.587  1.00  0.00    -0.348 N 
HETATM    9  H   UNL     1     -40.694  56.192 -52.406  1.00  0.00     0.163 HD
HETATM   10  O   UNL     1     -42.070  54.461 -50.124  1.00  0.00    -0.268 OA
BRANCH   8  11
HETATM   11  C   UNL     1     -41.582  57.166 -50.738  1.00  0.00     0.115 C 
HETATM   12  C   UNL     1     -40.389  58.119 -50.635  1.00  0.00     0.037 C 
BRANCH  11  13
HETATM   13  C   UNL     1     -42.836  57.841 -51.246  1.00  0.00    -0.018 A 
HETATM   14  C   UNL     1     -42.767  59.131 -51.768  1.00  0.00     0.125 A 
HETATM   15  N   UNL     1     -43.830  59.827 -52.232  1.00  0.00    -0.273 NA
HETATM   16  C   UNL     1     -45.030  59.214 -52.169  1.00  0.00     0.116 A 
HETATM   17  C   UNL     1     -45.215  57.941 -51.659  1.00  0.00     0.020 A 
HETATM   18  C   UNL     1     -44.102  57.248 -51.189  1.00  0.00     0.012 A 
ENDBRANCH  11  13
ENDBRANCH   8  11
ENDBRANCH   1   7
BRANCH   2  19
HETATM   19  O   UNL     1     -42.800  54.356 -53.677  1.00  0.00    -0.310 OA
BRANCH  19  20
HETATM   20  C   UNL     1     -42.725  55.134 -54.807  1.00  0.00     0.076 A 
HETATM   21  C   UNL     1     -43.011  54.653 -56.088  1.00  0.00     0.037 A 
HETATM   22  C   UNL     1     -42.945  55.518 -57.182  1.00  0.00     0.003 A 
HETATM   23  C   UNL     1     -42.619  56.862 -56.994  1.00  0.00     0.000 A 
HETATM   24  C   UNL     1     -42.367  57.346 -55.711  1.00  0.00     0.003 A 
HETATM   25  C   UNL     1     -42.427  56.484 -54.617  1.00  0.00     0.037 A 
ENDBRANCH  19  20
ENDBRANCH   2  19
TORSDOF 5
ENDMDL
MODEL 5
REMARK VINA RESULT:      -6.9      2.300      6.630
REMARK  5 active torsions:
REMARK  status: ('A' for Active; 'I' for Inactive)
REMARK    1  A    between atoms: C_2  and  N_3 
REMARK    2  A    between atoms: C_2  and  C_19 
REMARK       I    between atoms: N_3  and  C_4 
REMARK    3  A    between atoms: C_4  and  C_5 
REMARK    4  A    between atoms: C_6  and  O_7 
REMARK    5  A    between atoms: O_7  and  C_8 
ROOT
HETATM    1  C   UNL     1     -42.711  58.095 -51.372  1.00  0.00     0.065 A 
HETATM    2  C   UNL     1     -43.712  57.493 -52.148  1.00  0.00     0.091 A 
HETATM    3  C   UNL     1     -44.865  58.225 -52.470  1.00  0.00     0.038 A 
HETATM    4  C   UNL     1     -44.994  59.556 -52.069  1.00  0.00     0.003 A 
HETATM    5  C   UNL     1     -43.988  60.160 -51.318  1.00  0.00     0.001 A 
HETATM    6  C   UNL     1     -42.854  59.432 -50.961  1.00  0.00     0.020 A 
ENDROOT
BRANCH   1   7
HETATM    7  C   UNL     1     -41.513  57.326 -50.936  1.00  0.00     0.255 C 
HETATM    8  N   UNL     1     -41.751  56.018 -50.563  1.00  0.00    -0.348 N 
HETATM    9  H   UNL     1     -42.703  55.694 -50.463  1.00  0.00     0.163 HD
HETATM   10  O   UNL     1     -40.398  57.829 -50.931  1.00  0.00    -0.268 OA
BRANCH   8  11
HETATM   11  C   UNL     1     -40.681  55.160 -50.079  1.00  0.00     0.115 C 
HETATM   12  C   UNL     1     -40.975  54.675 -48.657  1.00  0.00     0.037 C 
BRANCH  11  13
HETATM   13  C   UNL     1     -40.459  54.028 -51.056  1.00  0.00    -0.018 A 
HETATM   14  C   UNL     1     -40.060  52.777 -50.590  1.00  0.00     0.125 A 
HETATM   15  N   UNL     1     -39.819  51.706 -51.381  1.00  0.00    -0.273 NA
HETATM   16  C   UNL     1     -39.976  51.886 -52.709  1.00  0.00     0.116 A 
HETATM   17  C   UNL     1     -40.356  53.088 -53.280  1.00  0.00     0.020 A 
HETATM   18  C   UNL     1     -40.597  54.173 -52.441  1.00  0.00     0.012 A 
ENDBRANCH  11  13
ENDBRANCH   8  11
ENDBRANCH   1   7
BRANCH   2  19
HETATM   19  O   UNL     1     -43.558  56.174 -52.514  1.00  0.00    -0.310 OA
BRANCH  19  20
HETATM   20  C   UNL     1     -43.240  55.872 -53.816  1.00  0.00     0.076 A 
HETATM   21  C   UNL     1     -42.460  56.704 -54.625  1.00  0.00     0.037 A 
HETATM   22  C   UNL     1     -42.153  56.308 -55.929  1.00  0.00     0.003 A 
HETATM   23  C   UNL     1     -42.601  55.079 -56.412  1.00  0.00     0.000 A 
HETATM   24  C   UNL     1     -43.352  54.237 -55.591  1.00  0.00     0.003 A 
HETATM   25  C   UNL     1     -43.665  54.631 -54.291  1.00  0.00     0.037 A 
ENDBRANCH  19  20
ENDBRANCH   2  19
TORSDOF 5
ENDMDL
MODEL 6
REMARK VINA RESULT:      -6.9      3.063      5.732
REMARK  5 active torsions:
REMARK  status: ('A' for Active; 'I' for Inactive)
REMARK    1  A    between atoms: C_2  and  N_3 
REMARK    2  A    between atoms: C_2  and  C_19 
REMARK       I    between atoms: N_3  and  C_4 
REMARK    3  A    between atoms: C_4  and  C_5 
REMARK    4  A    between atoms: C_6  and  O_7 
REMARK    5  A    between atoms: O_7  and  C_8 
ROOT
HETATM    1  C   UNL     1     -42.211  58.575 -52.923  1.00  0.00     0.065 A 
HETATM    2  C   UNL     1     -42.121  57.220 -52.570  1.00  0.00     0.091 A 
HETATM    3  C   UNL     1     -41.414  56.856 -51.414  1.00  0.00     0.038 A 
HETATM    4  C   UNL     1     -40.850  57.834 -50.593  1.00  0.00     0.003 A 
HETATM    5  C   UNL     1     -40.960  59.180 -50.932  1.00  0.00     0.001 A 
HETATM    6  C   UNL     1     -41.629  59.552 -52.098  1.00  0.00     0.020 A 
ENDROOT
BRANCH   1   7
HETATM    7  C   UNL     1     -42.876  58.994 -54.187  1.00  0.00     0.255 C 
HETATM    8  N   UNL     1     -42.144  58.790 -55.340  1.00  0.00    -0.348 N 
HETATM    9  H   UNL     1     -41.174  58.517 -55.272  1.00  0.00     0.163 HD
HETATM   10  O   UNL     1     -44.004  59.469 -54.187  1.00  0.00    -0.268 OA
BRANCH   8  11
HETATM   11  C   UNL     1     -42.655  59.188 -56.643  1.00  0.00     0.115 C 
HETATM   12  C   UNL     1     -41.847  60.359 -57.208  1.00  0.00     0.037 C 
BRANCH  11  13
HETATM   13  C   UNL     1     -42.681  57.989 -57.563  1.00  0.00    -0.018 A 
HETATM   14  C   UNL     1     -42.281  58.125 -58.891  1.00  0.00     0.125 A 
HETATM   15  N   UNL     1     -42.283  57.120 -59.798  1.00  0.00    -0.273 NA
HETATM   16  C   UNL     1     -42.712  55.916 -59.367  1.00  0.00     0.116 A 
HETATM   17  C   UNL     1     -43.144  55.673 -58.074  1.00  0.00     0.020 A 
HETATM   18  C   UNL     1     -43.130  56.725 -57.163  1.00  0.00     0.012 A 
ENDBRANCH  11  13
ENDBRANCH   8  11
ENDBRANCH   1   7
BRANCH   2  19
HETATM   19  O   UNL     1     -42.677  56.281 -53.412  1.00  0.00    -0.310 OA
BRANCH  19  20
HETATM   20  C   UNL     1     -41.892  55.258 -53.886  1.00  0.00     0.076 A 
HETATM   21  C   UNL     1     -40.765  55.466 -54.686  1.00  0.00     0.037 A 
HETATM   22  C   UNL     1     -39.999  54.374 -55.098  1.00  0.00     0.003 A 
HETATM   23  C   UNL     1     -40.345  53.083 -54.694  1.00  0.00     0.000 A 
HETATM   24  C   UNL     1     -41.452  52.882 -53.869  1.00  0.00     0.003 A 
HETATM   25  C   UNL     1     -42.221  53.971 -53.460  1.00  0.00     0.037 A 
ENDBRANCH  19  20
ENDBRANCH   2  19
TORSDOF 5
ENDMDL
MODEL 7
REMARK VINA RESULT:      -6.8      2.341      5.804
REMARK  5 active torsions:
REMARK  status: ('A' for Active; 'I' for Inactive)
REMARK    1  A    between atoms: C_2  and  N_3 
REMARK    2  A    between atoms: C_2  and  C_19 
REMARK       I    between atoms: N_3  and  C_4 
REMARK    3  A    between atoms: C_4  and  C_5 
REMARK    4  A    between atoms: C_6  and  O_7 
REMARK    5  A    between atoms: O_7  and  C_8 
ROOT
HETATM    1  C   UNL     1     -42.466  57.820 -55.776  1.00  0.00     0.065 A 
HETATM    2  C   UNL     1     -42.962  56.563 -56.153  1.00  0.00     0.091 A 
HETATM    3  C   UNL     1     -43.247  56.314 -57.505  1.00  0.00     0.038 A 
HETATM    4  C   UNL     1     -42.993  57.287 -58.472  1.00  0.00     0.003 A 
HETATM    5  C   UNL     1     -42.478  58.527 -58.099  1.00  0.00     0.001 A 
HETATM    6  C   UNL     1     -42.224  58.799 -56.755  1.00  0.00     0.020 A 
ENDROOT
BRANCH   1   7
HETATM    7  C   UNL     1     -42.233  58.152 -54.344  1.00  0.00     0.255 C 
HETATM    8  N   UNL     1     -43.284  57.878 -53.491  1.00  0.00    -0.348 N 
HETATM    9  H   UNL     1     -44.180  57.615 -53.875  1.00  0.00     0.163 HD
HETATM   10  O   UNL     1     -41.168  58.621 -53.962  1.00  0.00    -0.268 OA
BRANCH   8  11
HETATM   11  C   UNL     1     -43.210  58.186 -52.072  1.00  0.00     0.115 C 
HETATM   12  C   UNL     1     -44.541  58.750 -51.569  1.00  0.00     0.037 C 
BRANCH  11  13
HETATM   13  C   UNL     1     -42.761  56.961 -51.310  1.00  0.00    -0.018 A 
HETATM   14  C   UNL     1     -43.696  56.003 -50.924  1.00  0.00     0.125 A 
HETATM   15  N   UNL     1     -43.401  54.882 -50.226  1.00  0.00    -0.273 NA
HETATM   16  C   UNL     1     -42.108  54.702 -49.887  1.00  0.00     0.116 A 
HETATM   17  C   UNL     1     -41.100  55.595 -50.208  1.00  0.00     0.020 A 
HETATM   18  C   UNL     1     -41.433  56.740 -50.926  1.00  0.00     0.012 A 
ENDBRANCH  11  13
ENDBRANCH   8  11
ENDBRANCH   1   7
BRANCH   2  19
HETATM   19  O   UNL     1     -43.215  55.632 -55.169  1.00  0.00    -0.310 OA
BRANCH  19  20
HETATM   20  C   UNL     1     -42.223  54.753 -54.807  1.00  0.00     0.076 A 
HETATM   21  C   UNL     1     -41.020  54.628 -55.507  1.00  0.00     0.037 A 
HETATM   22  C   UNL     1     -40.047  53.735 -55.054  1.00  0.00     0.003 A 
HETATM   23  C   UNL     1     -40.266  52.989 -53.895  1.00  0.00     0.000 A 
HETATM   24  C   UNL     1     -41.455  53.140 -53.181  1.00  0.00     0.003 A 
HETATM   25  C   UNL     1     -42.431  54.028 -53.634  1.00  0.00     0.037 A 
ENDBRANCH  19  20
ENDBRANCH   2  19
TORSDOF 5
ENDMDL
MODEL 8
REMARK VINA RESULT:      -6.8      2.684      5.664
REMARK  5 active torsions:
REMARK  status: ('A' for Active; 'I' for Inactive)
REMARK    1  A    between atoms: C_2  and  N_3 
REMARK    2  A    between atoms: C_2  and  C_19 
REMARK       I    between atoms: N_3  and  C_4 
REMARK    3  A    between atoms: C_4  and  C_5 
REMARK    4  A    between atoms: C_6  and  O_7 
REMARK    5  A    between atoms: O_7  and  C_8 
ROOT
HETATM    1  C   UNL     1     -42.807  56.518 -55.013  1.00  0.00     0.065 A 
HETATM    2  C   UNL     1     -43.011  57.722 -54.322  1.00  0.00     0.091 A 
HETATM    3  C   UNL     1     -42.882  58.939 -55.008  1.00  0.00     0.038 A 
HETATM    4  C   UNL     1     -42.605  58.953 -56.376  1.00  0.00     0.003 A 
HETATM    5  C   UNL     1     -42.425  57.757 -57.066  1.00  0.00     0.001 A 
HETATM    6  C   UNL     1     -42.515  56.542 -56.387  1.00  0.00     0.020 A 
ENDROOT
BRANCH   1   7
HETATM    7  C   UNL     1     -42.849  55.210 -54.302  1.00  0.00     0.255 C 
HETATM    8  N   UNL     1     -41.683  54.845 -53.659  1.00  0.00    -0.348 N 
HETATM    9  H   UNL     1     -40.841  55.381 -53.813  1.00  0.00     0.163 HD
HETATM   10  O   UNL     1     -43.864  54.526 -54.285  1.00  0.00    -0.268 OA
BRANCH   8  11
HETATM   11  C   UNL     1     -41.569  53.577 -52.957  1.00  0.00     0.115 C 
HETATM   12  C   UNL     1     -40.539  52.671 -53.638  1.00  0.00     0.037 C 
BRANCH  11  13
HETATM   13  C   UNL     1     -41.261  53.831 -51.500  1.00  0.00    -0.018 A 
HETATM   14  C   UNL     1     -42.256  54.320 -50.655  1.00  0.00     0.125 A 
HETATM   15  N   UNL     1     -42.078  54.596 -49.342  1.00  0.00    -0.273 NA
HETATM   16  C   UNL     1     -40.845  54.380 -48.839  1.00  0.00     0.116 A 
HETATM   17  C   UNL     1     -39.782  53.909 -49.590  1.00  0.00     0.020 A 
HETATM   18  C   UNL     1     -39.994  53.633 -50.938  1.00  0.00     0.012 A 
ENDBRANCH  11  13
ENDBRANCH   8  11
ENDBRANCH   1   7
BRANCH   2  19
HETATM   19  O   UNL     1     -43.268  57.669 -52.969  1.00  0.00    -0.310 OA
BRANCH  19  20
HETATM   20  C   UNL     1     -42.398  58.278 -52.098  1.00  0.00     0.076 A 
HETATM   21  C   UNL     1     -41.086  57.839 -51.895  1.00  0.00     0.037 A 
HETATM   22  C   UNL     1     -40.252  58.534 -51.017  1.00  0.00     0.003 A 
HETATM   23  C   UNL     1     -40.719  59.676 -50.363  1.00  0.00     0.000 A 
HETATM   24  C   UNL     1     -42.019  60.130 -50.593  1.00  0.00     0.003 A 
HETATM   25  C   UNL     1     -42.855  59.435 -51.465  1.00  0.00     0.037 A 
ENDBRANCH  19  20
ENDBRANCH   2  19
TORSDOF 5
ENDMDL
MODEL 9
REMARK VINA RESULT:      -6.6      3.366      5.023
REMARK  5 active torsions:
REMARK  status: ('A' for Active; 'I' for Inactive)
REMARK    1  A    between atoms: C_2  and  N_3 
REMARK    2  A    between atoms: C_2  and  C_19 
REMARK       I    between atoms: N_3  and  C_4 
REMARK    3  A    between atoms: C_4  and  C_5 
REMARK    4  A    between atoms: C_6  and  O_7 
REMARK    5  A    between atoms: O_7  and  C_8 
ROOT
HETATM    1  C   UNL     1     -42.235  55.504 -55.116  1.00  0.00     0.065 A 
HETATM    2  C   UNL     1     -41.303  56.006 -54.195  1.00  0.00     0.091 A 
HETATM    3  C   UNL     1     -40.696  55.128 -53.284  1.00  0.00     0.038 A 
HETATM    4  C   UNL     1     -40.973  53.761 -53.326  1.00  0.00     0.003 A 
HETATM    5  C   UNL     1     -41.881  53.260 -54.256  1.00  0.00     0.001 A 
HETATM    6  C   UNL     1     -42.519  54.128 -55.143  1.00  0.00     0.020 A 
ENDROOT
BRANCH   1   7
HETATM    7  C   UNL     1     -42.966  56.414 -56.040  1.00  0.00     0.255 C 
HETATM    8  N   UNL     1     -42.379  56.603 -57.275  1.00  0.00    -0.348 N 
HETATM    9  H   UNL     1     -41.446  56.252 -57.442  1.00  0.00     0.163 HD
HETATM   10  O   UNL     1     -44.023  56.939 -55.715  1.00  0.00    -0.268 OA
BRANCH   8  11
HETATM   11  C   UNL     1     -42.962  57.496 -58.263  1.00  0.00     0.115 C 
HETATM   12  C   UNL     1     -41.869  58.160 -59.107  1.00  0.00     0.037 C 
BRANCH  11  13
HETATM   13  C   UNL     1     -43.973  56.741 -59.094  1.00  0.00    -0.018 A 
HETATM   14  C   UNL     1     -45.290  57.190 -59.163  1.00  0.00     0.125 A 
HETATM   15  N   UNL     1     -46.273  56.578 -59.864  1.00  0.00    -0.273 NA
HETATM   16  C   UNL     1     -45.933  55.454 -60.528  1.00  0.00     0.116 A 
HETATM   17  C   UNL     1     -44.659  54.913 -60.519  1.00  0.00     0.020 A 
HETATM   18  C   UNL     1     -43.668  55.564 -59.790  1.00  0.00     0.012 A 
ENDBRANCH  11  13
ENDBRANCH   8  11
ENDBRANCH   1   7
BRANCH   2  19
HETATM   19  O   UNL     1     -41.065  57.363 -54.173  1.00  0.00    -0.310 OA
BRANCH  19  20
HETATM   20  C   UNL     1     -41.243  58.055 -52.999  1.00  0.00     0.076 A 
HETATM   21  C   UNL     1     -40.199  58.689 -52.320  1.00  0.00     0.037 A 
HETATM   22  C   UNL     1     -40.468  59.403 -51.150  1.00  0.00     0.003 A 
HETATM   23  C   UNL     1     -41.777  59.502 -50.676  1.00  0.00     0.000 A 
HETATM   24  C   UNL     1     -42.821  58.894 -51.374  1.00  0.00     0.003 A 
HETATM   25  C   UNL     1     -42.555  58.177 -52.540  1.00  0.00     0.037 A 
ENDBRANCH  19  20
ENDBRANCH   2  19
TORSDOF 5
ENDMDL
MODEL 10
REMARK VINA RESULT:      -6.5      3.050      7.535
REMARK  5 active torsions:
REMARK  status: ('A' for Active; 'I' for Inactive)
REMARK    1  A    between atoms: C_2  and  N_3 
REMARK    2  A    between atoms: C_2  and  C_19 
REMARK       I    between atoms: N_3  and  C_4 
REMARK    3  A    between atoms: C_4  and  C_5 
REMARK    4  A    between atoms: C_6  and  O_7 
REMARK    5  A    between atoms: O_7  and  C_8 
ROOT
HETATM    1  C   UNL     1     -43.040  59.515 -54.777  1.00  0.00     0.065 A 
HETATM    2  C   UNL     1     -43.073  59.465 -56.179  1.00  0.00     0.091 A 
HETATM    3  C   UNL     1     -44.190  59.974 -56.859  1.00  0.00     0.038 A 
HETATM    4  C   UNL     1     -45.235  60.573 -56.154  1.00  0.00     0.003 A 
HETATM    5  C   UNL     1     -45.191  60.644 -54.764  1.00  0.00     0.001 A 
HETATM    6  C   UNL     1     -44.103  60.109 -54.074  1.00  0.00     0.020 A 
ENDROOT
BRANCH   1   7
HETATM    7  C   UNL     1     -41.915  58.908 -54.015  1.00  0.00     0.255 C 
HETATM    8  N   UNL     1     -42.089  57.588 -53.649  1.00  0.00    -0.348 N 
HETATM    9  H   UNL     1     -42.991  57.151 -53.775  1.00  0.00     0.163 HD
HETATM   10  O   UNL     1     -40.903  59.546 -53.754  1.00  0.00    -0.268 OA
BRANCH   8  11
HETATM   11  C   UNL     1     -41.088  56.879 -52.868  1.00  0.00     0.115 C 
HETATM   12  C   UNL     1     -41.474  56.852 -51.387  1.00  0.00     0.037 C 
BRANCH  11  13
HETATM   13  C   UNL     1     -40.875  55.500 -53.449  1.00  0.00    -0.018 A 
HETATM   14  C   UNL     1     -40.984  54.378 -52.631  1.00  0.00     0.125 A 
HETATM   15  N   UNL     1     -40.796  53.105 -53.050  1.00  0.00    -0.273 NA
HETATM   16  C   UNL     1     -40.478  52.934 -54.349  1.00  0.00     0.116 A 
HETATM   17  C   UNL     1     -40.333  53.978 -55.246  1.00  0.00     0.020 A 
HETATM   18  C   UNL     1     -40.532  55.278 -54.788  1.00  0.00     0.012 A 
ENDBRANCH  11  13
ENDBRANCH   8  11
ENDBRANCH   1   7
BRANCH   2  19
HETATM   19  O   UNL     1     -42.031  58.853 -56.840  1.00  0.00    -0.310 OA
BRANCH  19  20
HETATM   20  C   UNL     1     -42.308  57.900 -57.790  1.00  0.00     0.076 A 
HETATM   21  C   UNL     1     -41.983  58.051 -59.141  1.00  0.00     0.037 A 
HETATM   22  C   UNL     1     -42.268  57.020 -60.040  1.00  0.00     0.003 A 
HETATM   23  C   UNL     1     -42.851  55.836 -59.586  1.00  0.00     0.000 A 
HETATM   24  C   UNL     1     -43.144  55.676 -58.231  1.00  0.00     0.003 A 
HETATM   25  C   UNL     1     -42.866  56.706 -57.333  1.00  0.00     0.037 A 
ENDBRANCH  19  20
ENDBRANCH   2  19
TORSDOF 5
ENDMDL
