MODEL 1
REMARK VINA RESULT:      -9.0      0.000      0.000
REMARK  5 active torsions:
REMARK  status: ('A' for Active; 'I' for Inactive)
REMARK    1  A    between atoms: C_3  and  N_4 
REMARK       I    between atoms: N_4  and  C_5 
REMARK    2  A    between atoms: C_9  and  N_10 
REMARK       I    between atoms: N_10  and  C_11 
REMARK    3  A    between atoms: C_11  and  C_12 
REMARK    4  A    between atoms: C_17  and  C_18 
REMARK    5  A    between atoms: C_24  and  C_25 
ROOT
HETATM    1  C   UNL     1     -42.548  55.591 -56.074  1.00  0.00     0.148 A 
HETATM    2  N   UNL     1     -42.686  55.135 -57.341  1.00  0.00    -0.165 NA
HETATM    3  N   UNL     1     -42.733  56.263 -58.078  1.00  0.00    -0.240 N 
HETATM    4  C   UNL     1     -42.590  57.408 -57.345  1.00  0.00     0.123 A 
HETATM    5  N   UNL     1     -42.562  58.625 -57.926  1.00  0.00    -0.364 N 
HETATM    6  C   UNL     1     -42.895  58.811 -59.338  1.00  0.00     0.143 C 
HETATM    7  C   UNL     1     -42.457  57.575 -60.144  1.00  0.00     0.068 C 
HETATM    8  C   UNL     1     -42.873  56.227 -59.522  1.00  0.00     0.221 C 
HETATM    9  C   UNL     1     -42.477  57.010 -56.040  1.00  0.00     0.089 A 
HETATM   10  H   UNL     1     -42.622  59.471 -57.359  1.00  0.00     0.162 HD
ENDROOT
BRANCH   1  11
HETATM   11  C   UNL     1     -42.485  54.682 -54.916  1.00  0.00     0.276 C 
HETATM   12  N   UNL     1     -41.226  54.139 -54.753  1.00  0.00    -0.322 N 
HETATM   13  H   UNL     1     -40.556  54.451 -55.454  1.00  0.00     0.169 HD
HETATM   14  O   UNL     1     -43.474  54.460 -54.225  1.00  0.00    -0.266 OA
BRANCH  12  15
HETATM   15  C   UNL     1     -40.790  53.215 -53.786  1.00  0.00     0.037 A 
HETATM   16  C   UNL     1     -40.865  53.435 -52.409  1.00  0.00     0.059 A 
HETATM   17  C   UNL     1     -40.437  52.469 -51.474  1.00  0.00     0.042 A 
HETATM   18  C   UNL     1     -39.850  51.282 -51.941  1.00  0.00    -0.035 A 
HETATM   19  C   UNL     1     -39.223  50.230 -51.070  1.00  0.00     0.050 C 
HETATM   20  C   UNL     1     -39.800  51.058 -53.331  1.00  0.00     0.011 A 
HETATM   21  C   UNL     1     -40.262  52.011 -54.241  1.00  0.00     0.030 A 
BRANCH  17  22
HETATM   22  N   UNL     1     -40.611  52.847 -50.121  1.00  0.00    -0.327 N 
HETATM   23  C   UNL     1     -39.941  53.824 -49.411  1.00  0.00     0.218 C 
HETATM   24  C   UNL     1     -40.475  53.982 -48.007  1.00  0.00     0.117 C 
HETATM   25  O   UNL     1     -39.008  54.515 -49.798  1.00  0.00    -0.274 OA
HETATM   26  H   UNL     1     -41.104  52.170 -49.552  1.00  0.00     0.169 HD
ENDBRANCH  17  22
ENDBRANCH  12  15
ENDBRANCH   1  11
BRANCH   8  27
HETATM   27  C   UNL     1     -44.269  55.782 -59.898  1.00  0.00     0.409 C 
HETATM   28  F   UNL     1     -44.383  54.432 -59.895  1.00  0.00    -0.169 F 
HETATM   29  F   UNL     1     -45.231  56.265 -59.090  1.00  0.00    -0.169 F 
HETATM   30  F   UNL     1     -44.565  56.179 -61.162  1.00  0.00    -0.169 F 
ENDBRANCH   8  27
BRANCH   6  31
HETATM   31  C   UNL     1     -44.309  59.218 -59.605  1.00  0.00     0.075 A 
HETATM   32  O   UNL     1     -45.114  59.355 -58.510  1.00  0.00    -0.325 OA
HETATM   33  C   UNL     1     -46.347  59.700 -58.963  1.00  0.00     0.142 A 
HETATM   34  C   UNL     1     -46.350  59.784 -60.335  1.00  0.00     0.027 A 
HETATM   35  C   UNL     1     -45.037  59.464 -60.752  1.00  0.00     0.037 A 
ENDBRANCH   6  31
TORSDOF 5
ENDMDL
MODEL 2
REMARK VINA RESULT:      -8.8      1.217      2.329
REMARK  5 active torsions:
REMARK  status: ('A' for Active; 'I' for Inactive)
REMARK    1  A    between atoms: C_3  and  N_4 
REMARK       I    between atoms: N_4  and  C_5 
REMARK    2  A    between atoms: C_9  and  N_10 
REMARK       I    between atoms: N_10  and  C_11 
REMARK    3  A    between atoms: C_11  and  C_12 
REMARK    4  A    between atoms: C_17  and  C_18 
REMARK    5  A    between atoms: C_24  and  C_25 
ROOT
HETATM    1  C   UNL     1     -42.604  56.092 -55.677  1.00  0.00     0.148 A 
HETATM    2  N   UNL     1     -42.820  55.428 -56.836  1.00  0.00    -0.165 NA
HETATM    3  N   UNL     1     -42.680  56.381 -57.777  1.00  0.00    -0.240 N 
HETATM    4  C   UNL     1     -42.345  57.609 -57.275  1.00  0.00     0.123 A 
HETATM    5  N   UNL     1     -42.116  58.667 -58.079  1.00  0.00    -0.364 N 
HETATM    6  C   UNL     1     -42.418  58.626 -59.509  1.00  0.00     0.143 C 
HETATM    7  C   UNL     1     -42.195  57.202 -60.048  1.00  0.00     0.068 C 
HETATM    8  C   UNL     1     -42.829  56.089 -59.191  1.00  0.00     0.221 C 
HETATM    9  C   UNL     1     -42.297  57.459 -55.915  1.00  0.00     0.089 A 
HETATM   10  H   UNL     1     -42.032  59.605 -57.686  1.00  0.00     0.162 HD
ENDROOT
BRANCH   1  11
HETATM   11  C   UNL     1     -42.691  55.429 -54.364  1.00  0.00     0.276 C 
HETATM   12  N   UNL     1     -41.575  55.673 -53.587  1.00  0.00    -0.322 N 
HETATM   13  H   UNL     1     -40.883  56.262 -54.046  1.00  0.00     0.169 HD
HETATM   14  O   UNL     1     -43.660  54.740 -54.060  1.00  0.00    -0.266 OA
BRANCH  12  15
HETATM   15  C   UNL     1     -41.285  55.191 -52.298  1.00  0.00     0.037 A 
HETATM   16  C   UNL     1     -41.022  53.850 -52.009  1.00  0.00     0.059 A 
HETATM   17  C   UNL     1     -40.711  53.414 -50.703  1.00  0.00     0.042 A 
HETATM   18  C   UNL     1     -40.739  54.343 -49.651  1.00  0.00    -0.035 A 
HETATM   19  C   UNL     1     -40.570  54.002 -48.196  1.00  0.00     0.050 C 
HETATM   20  C   UNL     1     -40.981  55.697 -49.955  1.00  0.00     0.011 A 
HETATM   21  C   UNL     1     -41.251  56.115 -51.259  1.00  0.00     0.030 A 
BRANCH  17  22
HETATM   22  N   UNL     1     -40.447  52.027 -50.597  1.00  0.00    -0.327 N 
HETATM   23  C   UNL     1     -39.662  51.239 -51.415  1.00  0.00     0.218 C 
HETATM   24  C   UNL     1     -39.563  49.816 -50.918  1.00  0.00     0.117 C 
HETATM   25  O   UNL     1     -39.089  51.576 -52.443  1.00  0.00    -0.274 OA
HETATM   26  H   UNL     1     -41.093  51.517 -50.006  1.00  0.00     0.169 HD
ENDBRANCH  17  22
ENDBRANCH  12  15
ENDBRANCH   1  11
BRANCH   8  27
HETATM   27  C   UNL     1     -44.280  55.815 -59.515  1.00  0.00     0.409 C 
HETATM   28  F   UNL     1     -44.591  54.505 -59.359  1.00  0.00    -0.169 F 
HETATM   29  F   UNL     1     -45.148  56.523 -58.769  1.00  0.00    -0.169 F 
HETATM   30  F   UNL     1     -44.535  56.106 -60.817  1.00  0.00    -0.169 F 
ENDBRANCH   8  27
BRANCH   6  31
HETATM   31  C   UNL     1     -43.744  59.201 -59.891  1.00  0.00     0.075 A 
HETATM   32  O   UNL     1     -44.611  59.451 -58.866  1.00  0.00    -0.325 OA
HETATM   33  C   UNL     1     -45.752  59.939 -59.418  1.00  0.00     0.142 A 
HETATM   34  C   UNL     1     -45.635  60.004 -60.786  1.00  0.00     0.027 A 
HETATM   35  C   UNL     1     -44.342  59.519 -61.094  1.00  0.00     0.037 A 
ENDBRANCH   6  31
TORSDOF 5
ENDMDL
MODEL 3
REMARK VINA RESULT:      -8.5      1.727      2.196
REMARK  5 active torsions:
REMARK  status: ('A' for Active; 'I' for Inactive)
REMARK    1  A    between atoms: C_3  and  N_4 
REMARK       I    between atoms: N_4  and  C_5 
REMARK    2  A    between atoms: C_9  and  N_10 
REMARK       I    between atoms: N_10  and  C_11 
REMARK    3  A    between atoms: C_11  and  C_12 
REMARK    4  A    between atoms: C_17  and  C_18 
REMARK    5  A    between atoms: C_24  and  C_25 
ROOT
HETATM    1  C   UNL     1     -42.594  57.011 -55.629  1.00  0.00     0.148 A 
HETATM    2  N   UNL     1     -42.117  57.516 -56.790  1.00  0.00    -0.165 NA
HETATM    3  N   UNL     1     -43.210  58.036 -57.382  1.00  0.00    -0.240 N 
HETATM    4  C   UNL     1     -44.350  57.922 -56.633  1.00  0.00     0.123 A 
HETATM    5  N   UNL     1     -45.527  58.433 -57.049  1.00  0.00    -0.364 N 
HETATM    6  C   UNL     1     -45.706  58.945 -58.407  1.00  0.00     0.143 C 
HETATM    7  C   UNL     1     -44.390  59.568 -58.907  1.00  0.00     0.068 C 
HETATM    8  C   UNL     1     -43.142  58.694 -58.673  1.00  0.00     0.221 C 
HETATM    9  C   UNL     1     -43.988  57.254 -55.494  1.00  0.00     0.089 A 
HETATM   10  H   UNL     1     -46.393  58.197 -56.563  1.00  0.00     0.162 HD
ENDROOT
BRANCH   1  11
HETATM   11  C   UNL     1     -41.730  56.308 -54.665  1.00  0.00     0.276 C 
HETATM   12  N   UNL     1     -41.976  54.948 -54.646  1.00  0.00    -0.322 N 
HETATM   13  H   UNL     1     -42.709  54.661 -55.291  1.00  0.00     0.169 HD
HETATM   14  O   UNL     1     -40.915  56.915 -53.977  1.00  0.00    -0.266 OA
BRANCH  12  15
HETATM   15  C   UNL     1     -41.376  53.962 -53.843  1.00  0.00     0.037 A 
HETATM   16  C   UNL     1     -41.349  54.005 -52.447  1.00  0.00     0.059 A 
HETATM   17  C   UNL     1     -40.756  52.980 -51.679  1.00  0.00     0.042 A 
HETATM   18  C   UNL     1     -40.109  51.923 -52.340  1.00  0.00    -0.035 A 
HETATM   19  C   UNL     1     -39.316  50.840 -51.662  1.00  0.00     0.050 C 
HETATM   20  C   UNL     1     -40.161  51.876 -53.747  1.00  0.00     0.011 A 
HETATM   21  C   UNL     1     -40.785  52.881 -54.488  1.00  0.00     0.030 A 
BRANCH  17  22
HETATM   22  N   UNL     1     -40.843  53.172 -50.279  1.00  0.00    -0.327 N 
HETATM   23  C   UNL     1     -40.000  53.895 -49.459  1.00  0.00     0.218 C 
HETATM   24  C   UNL     1     -40.481  53.928 -48.028  1.00  0.00     0.117 C 
HETATM   25  O   UNL     1     -38.962  54.461 -49.776  1.00  0.00    -0.274 OA
HETATM   26  H   UNL     1     -41.444  52.513 -49.798  1.00  0.00     0.169 HD
ENDBRANCH  17  22
ENDBRANCH  12  15
ENDBRANCH   1  11
BRANCH   8  27
HETATM   27  C   UNL     1     -42.891  57.676 -59.763  1.00  0.00     0.409 C 
HETATM   28  F   UNL     1     -41.597  57.678 -60.163  1.00  0.00    -0.169 F 
HETATM   29  F   UNL     1     -43.198  56.414 -59.410  1.00  0.00    -0.169 F 
HETATM   30  F   UNL     1     -43.623  57.977 -60.866  1.00  0.00    -0.169 F 
ENDBRANCH   8  27
BRANCH   6  31
HETATM   31  C   UNL     1     -46.305  57.975 -59.374  1.00  0.00     0.075 A 
HETATM   32  O   UNL     1     -46.048  56.654 -59.140  1.00  0.00    -0.325 OA
HETATM   33  C   UNL     1     -46.651  55.949 -60.132  1.00  0.00     0.142 A 
HETATM   34  C   UNL     1     -47.291  56.796 -61.004  1.00  0.00     0.027 A 
HETATM   35  C   UNL     1     -47.060  58.106 -60.522  1.00  0.00     0.037 A 
ENDBRANCH   6  31
TORSDOF 5
ENDMDL
MODEL 4
REMARK VINA RESULT:      -8.4      2.132      3.231
REMARK  5 active torsions:
REMARK  status: ('A' for Active; 'I' for Inactive)
REMARK    1  A    between atoms: C_3  and  N_4 
REMARK       I    between atoms: N_4  and  C_5 
REMARK    2  A    between atoms: C_9  and  N_10 
REMARK       I    between atoms: N_10  and  C_11 
REMARK    3  A    between atoms: C_11  and  C_12 
REMARK    4  A    between atoms: C_17  and  C_18 
REMARK    5  A    between atoms: C_24  and  C_25 
ROOT
HETATM    1  C   UNL     1     -42.458  56.602 -55.324  1.00  0.00     0.148 A 
HETATM    2  N   UNL     1     -41.952  57.228 -56.413  1.00  0.00    -0.165 NA
HETATM    3  N   UNL     1     -43.049  57.662 -57.065  1.00  0.00    -0.240 N 
HETATM    4  C   UNL     1     -44.222  57.378 -56.422  1.00  0.00     0.123 A 
HETATM    5  N   UNL     1     -45.414  57.783 -56.907  1.00  0.00    -0.364 N 
HETATM    6  C   UNL     1     -45.545  58.357 -58.246  1.00  0.00     0.143 C 
HETATM    7  C   UNL     1     -44.273  59.149 -58.599  1.00  0.00     0.068 C 
HETATM    8  C   UNL     1     -42.956  58.404 -58.308  1.00  0.00     0.221 C 
HETATM    9  C   UNL     1     -43.876  56.683 -55.294  1.00  0.00     0.089 A 
HETATM   10  H   UNL     1     -46.282  57.424 -56.509  1.00  0.00     0.162 HD
ENDROOT
BRANCH   1  11
HETATM   11  C   UNL     1     -41.596  55.938 -54.330  1.00  0.00     0.276 C 
HETATM   12  N   UNL     1     -42.208  55.846 -53.095  1.00  0.00    -0.322 N 
HETATM   13  H   UNL     1     -43.142  56.252 -53.075  1.00  0.00     0.169 HD
HETATM   14  O   UNL     1     -40.470  55.548 -54.622  1.00  0.00    -0.266 OA
BRANCH  12  15
HETATM   15  C   UNL     1     -41.693  55.308 -51.902  1.00  0.00     0.037 A 
HETATM   16  C   UNL     1     -41.388  53.957 -51.725  1.00  0.00     0.059 A 
HETATM   17  C   UNL     1     -40.850  53.464 -50.517  1.00  0.00     0.042 A 
HETATM   18  C   UNL     1     -40.686  54.346 -49.436  1.00  0.00    -0.035 A 
HETATM   19  C   UNL     1     -40.261  53.941 -48.052  1.00  0.00     0.050 C 
HETATM   20  C   UNL     1     -40.974  55.711 -49.630  1.00  0.00     0.011 A 
HETATM   21  C   UNL     1     -41.472  56.185 -50.845  1.00  0.00     0.030 A 
BRANCH  17  22
HETATM   22  N   UNL     1     -40.576  52.076 -50.521  1.00  0.00    -0.327 N 
HETATM   23  C   UNL     1     -39.708  51.377 -51.337  1.00  0.00     0.218 C 
HETATM   24  C   UNL     1     -39.633  49.912 -50.973  1.00  0.00     0.117 C 
HETATM   25  O   UNL     1     -39.048  51.816 -52.270  1.00  0.00    -0.274 OA
HETATM   26  H   UNL     1     -41.265  51.506 -50.045  1.00  0.00     0.169 HD
ENDBRANCH  17  22
ENDBRANCH  12  15
ENDBRANCH   1  11
BRANCH   8  27
HETATM   27  C   UNL     1     -42.507  57.490 -59.426  1.00  0.00     0.409 C 
HETATM   28  F   UNL     1     -41.195  57.661 -59.720  1.00  0.00    -0.169 F 
HETATM   29  F   UNL     1     -42.690  56.182 -59.167  1.00  0.00    -0.169 F 
HETATM   30  F   UNL     1     -43.185  57.774 -60.568  1.00  0.00    -0.169 F 
ENDBRANCH   8  27
BRANCH   6  31
HETATM   31  C   UNL     1     -45.952  57.390 -59.310  1.00  0.00     0.075 A 
HETATM   32  O   UNL     1     -45.456  56.123 -59.197  1.00  0.00    -0.325 OA
HETATM   33  C   UNL     1     -45.917  55.417 -60.261  1.00  0.00     0.142 A 
HETATM   34  C   UNL     1     -46.702  56.211 -61.062  1.00  0.00     0.027 A 
HETATM   35  C   UNL     1     -46.719  57.489 -60.454  1.00  0.00     0.037 A 
ENDBRANCH   6  31
TORSDOF 5
ENDMDL
MODEL 5
REMARK VINA RESULT:      -8.2      2.534      3.726
REMARK  5 active torsions:
REMARK  status: ('A' for Active; 'I' for Inactive)
REMARK    1  A    between atoms: C_3  and  N_4 
REMARK       I    between atoms: N_4  and  C_5 
REMARK    2  A    between atoms: C_9  and  N_10 
REMARK       I    between atoms: N_10  and  C_11 
REMARK    3  A    between atoms: C_11  and  C_12 
REMARK    4  A    between atoms: C_17  and  C_18 
REMARK    5  A    between atoms: C_24  and  C_25 
ROOT
HETATM    1  C   UNL     1     -42.166  56.166 -55.536  1.00  0.00     0.148 A 
HETATM    2  N   UNL     1     -42.679  57.406 -55.360  1.00  0.00    -0.165 NA
HETATM    3  N   UNL     1     -43.277  57.671 -56.538  1.00  0.00    -0.240 N 
HETATM    4  C   UNL     1     -43.203  56.644 -57.438  1.00  0.00     0.123 A 
HETATM    5  N   UNL     1     -43.791  56.717 -58.650  1.00  0.00    -0.364 N 
HETATM    6  C   UNL     1     -44.354  57.969 -59.157  1.00  0.00     0.143 C 
HETATM    7  C   UNL     1     -44.918  58.797 -57.989  1.00  0.00     0.068 C 
HETATM    8  C   UNL     1     -43.970  58.923 -56.780  1.00  0.00     0.221 C 
HETATM    9  C   UNL     1     -42.482  55.656 -56.824  1.00  0.00     0.089 A 
HETATM   10  H   UNL     1     -43.589  56.019 -59.365  1.00  0.00     0.162 HD
ENDROOT
BRANCH   1  11
HETATM   11  C   UNL     1     -41.387  55.484 -54.489  1.00  0.00     0.276 C 
HETATM   12  N   UNL     1     -41.969  55.616 -53.243  1.00  0.00    -0.322 N 
HETATM   13  H   UNL     1     -42.829  56.161 -53.254  1.00  0.00     0.169 HD
HETATM   14  O   UNL     1     -40.343  54.896 -54.751  1.00  0.00    -0.266 OA
BRANCH  12  15
HETATM   15  C   UNL     1     -41.507  55.131 -52.006  1.00  0.00     0.037 A 
HETATM   16  C   UNL     1     -41.198  53.792 -51.761  1.00  0.00     0.059 A 
HETATM   17  C   UNL     1     -40.714  53.353 -50.510  1.00  0.00     0.042 A 
HETATM   18  C   UNL     1     -40.611  54.278 -49.458  1.00  0.00    -0.035 A 
HETATM   19  C   UNL     1     -40.250  53.933 -48.040  1.00  0.00     0.050 C 
HETATM   20  C   UNL     1     -40.903  55.631 -49.720  1.00  0.00     0.011 A 
HETATM   21  C   UNL     1     -41.346  56.052 -50.976  1.00  0.00     0.030 A 
BRANCH  17  22
HETATM   22  N   UNL     1     -40.426  51.969 -50.446  1.00  0.00    -0.327 N 
HETATM   23  C   UNL     1     -39.661  51.212 -51.312  1.00  0.00     0.218 C 
HETATM   24  C   UNL     1     -39.523  49.779 -50.854  1.00  0.00     0.117 C 
HETATM   25  O   UNL     1     -39.133  51.581 -52.353  1.00  0.00    -0.274 OA
HETATM   26  H   UNL     1     -41.041  51.435 -49.844  1.00  0.00     0.169 HD
ENDBRANCH  17  22
ENDBRANCH  12  15
ENDBRANCH   1  11
BRANCH   8  27
HETATM   27  C   UNL     1     -42.973  60.055 -56.896  1.00  0.00     0.409 C 
HETATM   28  F   UNL     1     -42.758  60.659 -55.702  1.00  0.00    -0.169 F 
HETATM   29  F   UNL     1     -41.773  59.677 -57.374  1.00  0.00    -0.169 F 
HETATM   30  F   UNL     1     -43.452  61.021 -57.721  1.00  0.00    -0.169 F 
ENDBRANCH   8  27
BRANCH   6  31
HETATM   31  C   UNL     1     -43.449  58.751 -60.053  1.00  0.00     0.075 A 
HETATM   32  O   UNL     1     -43.996  59.846 -60.657  1.00  0.00    -0.325 OA
HETATM   33  C   UNL     1     -43.030  60.395 -61.437  1.00  0.00     0.142 A 
HETATM   34  C   UNL     1     -41.867  59.669 -61.348  1.00  0.00     0.027 A 
HETATM   35  C   UNL     1     -42.138  58.600 -60.461  1.00  0.00     0.037 A 
ENDBRANCH   6  31
TORSDOF 5
ENDMDL
MODEL 6
REMARK VINA RESULT:      -8.2      7.732     10.038
REMARK  5 active torsions:
REMARK  status: ('A' for Active; 'I' for Inactive)
REMARK    1  A    between atoms: C_3  and  N_4 
REMARK       I    between atoms: N_4  and  C_5 
REMARK    2  A    between atoms: C_9  and  N_10 
REMARK       I    between atoms: N_10  and  C_11 
REMARK    3  A    between atoms: C_11  and  C_12 
REMARK    4  A    between atoms: C_17  and  C_18 
REMARK    5  A    between atoms: C_24  and  C_25 
ROOT
HETATM    1  C   UNL     1     -44.062  59.760 -51.019  1.00  0.00     0.148 A 
HETATM    2  N   UNL     1     -43.095  59.774 -51.967  1.00  0.00    -0.165 NA
HETATM    3  N   UNL     1     -43.187  58.552 -52.530  1.00  0.00    -0.240 N 
HETATM    4  C   UNL     1     -44.191  57.780 -52.013  1.00  0.00     0.123 A 
HETATM    5  N   UNL     1     -44.459  56.548 -52.493  1.00  0.00    -0.364 N 
HETATM    6  C   UNL     1     -43.565  55.881 -53.439  1.00  0.00     0.143 C 
HETATM    7  C   UNL     1     -42.904  56.925 -54.356  1.00  0.00     0.068 C 
HETATM    8  C   UNL     1     -42.317  58.143 -53.616  1.00  0.00     0.221 C 
HETATM    9  C   UNL     1     -44.773  58.529 -51.026  1.00  0.00     0.089 A 
HETATM   10  H   UNL     1     -45.094  55.926 -51.993  1.00  0.00     0.162 HD
ENDROOT
BRANCH   1  11
HETATM   11  C   UNL     1     -44.299  60.905 -50.124  1.00  0.00     0.276 C 
HETATM   12  N   UNL     1     -45.097  60.565 -49.049  1.00  0.00    -0.322 N 
HETATM   13  H   UNL     1     -45.389  59.589 -49.055  1.00  0.00     0.169 HD
HETATM   14  O   UNL     1     -43.830  62.013 -50.367  1.00  0.00    -0.266 OA
BRANCH  12  15
HETATM   15  C   UNL     1     -45.561  61.389 -48.008  1.00  0.00     0.037 A 
HETATM   16  C   UNL     1     -44.966  61.460 -46.747  1.00  0.00     0.059 A 
HETATM   17  C   UNL     1     -45.451  62.319 -45.739  1.00  0.00     0.042 A 
HETATM   18  C   UNL     1     -46.611  63.071 -45.985  1.00  0.00    -0.035 A 
HETATM   19  C   UNL     1     -47.322  63.917 -44.967  1.00  0.00     0.050 C 
HETATM   20  C   UNL     1     -47.191  63.011 -47.268  1.00  0.00     0.011 A 
HETATM   21  C   UNL     1     -46.675  62.181 -48.264  1.00  0.00     0.030 A 
BRANCH  17  22
HETATM   22  N   UNL     1     -44.710  62.284 -44.533  1.00  0.00    -0.327 N 
HETATM   23  C   UNL     1     -44.098  63.330 -43.872  1.00  0.00     0.218 C 
HETATM   24  C   UNL     1     -43.474  62.898 -42.566  1.00  0.00     0.117 C 
HETATM   25  O   UNL     1     -44.017  64.495 -44.239  1.00  0.00    -0.274 OA
HETATM   26  H   UNL     1     -44.392  61.362 -44.258  1.00  0.00     0.169 HD
ENDBRANCH  17  22
ENDBRANCH  12  15
ENDBRANCH   1  11
BRANCH   8  27
HETATM   27  C   UNL     1     -40.910  57.932 -53.104  1.00  0.00     0.409 C 
HETATM   28  F   UNL     1     -40.263  56.963 -53.796  1.00  0.00    -0.169 F 
HETATM   29  F   UNL     1     -40.142  59.037 -53.151  1.00  0.00    -0.169 F 
HETATM   30  F   UNL     1     -40.936  57.514 -51.812  1.00  0.00    -0.169 F 
ENDBRANCH   8  27
BRANCH   6  31
HETATM   31  C   UNL     1     -42.588  54.933 -52.822  1.00  0.00     0.075 A 
HETATM   32  O   UNL     1     -41.757  54.277 -53.685  1.00  0.00    -0.325 OA
HETATM   33  C   UNL     1     -40.975  53.456 -52.938  1.00  0.00     0.142 A 
HETATM   34  C   UNL     1     -41.291  53.569 -51.605  1.00  0.00     0.027 A 
HETATM   35  C   UNL     1     -42.340  54.517 -51.529  1.00  0.00     0.037 A 
ENDBRANCH   6  31
TORSDOF 5
ENDMDL
MODEL 7
REMARK VINA RESULT:      -7.9      2.974      3.810
REMARK  5 active torsions:
REMARK  status: ('A' for Active; 'I' for Inactive)
REMARK    1  A    between atoms: C_3  and  N_4 
REMARK       I    between atoms: N_4  and  C_5 
REMARK    2  A    between atoms: C_9  and  N_10 
REMARK       I    between atoms: N_10  and  C_11 
REMARK    3  A    between atoms: C_11  and  C_12 
REMARK    4  A    between atoms: C_17  and  C_18 
REMARK    5  A    between atoms: C_24  and  C_25 
ROOT
HETATM    1  C   UNL     1     -43.026  56.579 -56.227  1.00  0.00     0.148 A 
HETATM    2  N   UNL     1     -43.462  57.614 -55.472  1.00  0.00    -0.165 NA
HETATM    3  N   UNL     1     -43.584  58.622 -56.359  1.00  0.00    -0.240 N 
HETATM    4  C   UNL     1     -43.287  58.264 -57.645  1.00  0.00     0.123 A 
HETATM    5  N   UNL     1     -43.404  59.134 -58.669  1.00  0.00    -0.364 N 
HETATM    6  C   UNL     1     -43.647  60.559 -58.444  1.00  0.00     0.143 C 
HETATM    7  C   UNL     1     -44.512  60.748 -57.185  1.00  0.00     0.068 C 
HETATM    8  C   UNL     1     -44.040  59.940 -55.960  1.00  0.00     0.221 C 
HETATM    9  C   UNL     1     -42.913  56.949 -57.594  1.00  0.00     0.089 A 
HETATM   10  H   UNL     1     -43.024  58.906 -59.587  1.00  0.00     0.162 HD
ENDROOT
BRANCH   1  11
HETATM   11  C   UNL     1     -42.724  55.258 -55.648  1.00  0.00     0.276 C 
HETATM   12  N   UNL     1     -41.763  55.335 -54.658  1.00  0.00    -0.322 N 
HETATM   13  H   UNL     1     -41.423  56.282 -54.497  1.00  0.00     0.169 HD
HETATM   14  O   UNL     1     -43.282  54.242 -56.050  1.00  0.00    -0.266 OA
BRANCH  12  15
HETATM   15  C   UNL     1     -41.199  54.292 -53.903  1.00  0.00     0.037 A 
HETATM   16  C   UNL     1     -41.243  54.227 -52.509  1.00  0.00     0.059 A 
HETATM   17  C   UNL     1     -40.684  53.148 -51.792  1.00  0.00     0.042 A 
HETATM   18  C   UNL     1     -39.998  52.146 -52.497  1.00  0.00    -0.035 A 
HETATM   19  C   UNL     1     -39.234  51.016 -51.864  1.00  0.00     0.050 C 
HETATM   20  C   UNL     1     -39.979  52.206 -53.904  1.00  0.00     0.011 A 
HETATM   21  C   UNL     1     -40.569  53.264 -54.598  1.00  0.00     0.030 A 
BRANCH  17  22
HETATM   22  N   UNL     1     -40.844  53.232 -50.388  1.00  0.00    -0.327 N 
HETATM   23  C   UNL     1     -40.035  53.873 -49.470  1.00  0.00     0.218 C 
HETATM   24  C   UNL     1     -40.592  53.804 -48.068  1.00  0.00     0.117 C 
HETATM   25  O   UNL     1     -38.973  54.443 -49.686  1.00  0.00    -0.274 OA
HETATM   26  H   UNL     1     -41.480  52.550 -49.993  1.00  0.00     0.169 HD
ENDBRANCH  17  22
ENDBRANCH  12  15
ENDBRANCH   1  11
BRANCH   8  27
HETATM   27  C   UNL     1     -42.975  60.633 -55.140  1.00  0.00     0.409 C 
HETATM   28  F   UNL     1     -43.150  60.427 -53.812  1.00  0.00    -0.169 F 
HETATM   29  F   UNL     1     -41.721  60.249 -55.441  1.00  0.00    -0.169 F 
HETATM   30  F   UNL     1     -43.040  61.977 -55.321  1.00  0.00    -0.169 F 
ENDBRANCH   8  27
BRANCH   6  31
HETATM   31  C   UNL     1     -42.422  61.416 -58.452  1.00  0.00     0.075 A 
HETATM   32  O   UNL     1     -42.627  62.763 -58.362  1.00  0.00    -0.325 OA
HETATM   33  C   UNL     1     -41.407  63.357 -58.412  1.00  0.00     0.142 A 
HETATM   34  C   UNL     1     -40.417  62.413 -58.537  1.00  0.00     0.027 A 
HETATM   35  C   UNL     1     -41.071  61.158 -58.572  1.00  0.00     0.037 A 
ENDBRANCH   6  31
TORSDOF 5
ENDMDL
MODEL 8
REMARK VINA RESULT:      -7.9     15.550     17.606
REMARK  5 active torsions:
REMARK  status: ('A' for Active; 'I' for Inactive)
REMARK    1  A    between atoms: C_3  and  N_4 
REMARK       I    between atoms: N_4  and  C_5 
REMARK    2  A    between atoms: C_9  and  N_10 
REMARK       I    between atoms: N_10  and  C_11 
REMARK    3  A    between atoms: C_11  and  C_12 
REMARK    4  A    between atoms: C_17  and  C_18 
REMARK    5  A    between atoms: C_24  and  C_25 
ROOT
HETATM    1  C   UNL     1     -38.091  39.361 -51.666  1.00  0.00     0.148 A 
HETATM    2  N   UNL     1     -36.953  38.846 -52.186  1.00  0.00    -0.165 NA
HETATM    3  N   UNL     1     -36.438  39.870 -52.894  1.00  0.00    -0.240 N 
HETATM    4  C   UNL     1     -37.172  41.021 -52.814  1.00  0.00     0.123 A 
HETATM    5  N   UNL     1     -36.777  42.160 -53.420  1.00  0.00    -0.364 N 
HETATM    6  C   UNL     1     -35.663  42.180 -54.368  1.00  0.00     0.143 C 
HETATM    7  C   UNL     1     -34.611  41.134 -53.958  1.00  0.00     0.068 C 
HETATM    8  C   UNL     1     -35.190  39.745 -53.623  1.00  0.00     0.221 C 
HETATM    9  C   UNL     1     -38.256  40.724 -52.033  1.00  0.00     0.089 A 
HETATM   10  H   UNL     1     -37.412  42.955 -53.489  1.00  0.00     0.162 HD
ENDROOT
BRANCH   1  11
HETATM   11  C   UNL     1     -39.005  38.561 -50.831  1.00  0.00     0.276 C 
HETATM   12  N   UNL     1     -40.286  39.076 -50.827  1.00  0.00    -0.322 N 
HETATM   13  H   UNL     1     -40.386  39.917 -51.393  1.00  0.00     0.169 HD
HETATM   14  O   UNL     1     -38.611  37.571 -50.223  1.00  0.00    -0.266 OA
BRANCH  12  15
HETATM   15  C   UNL     1     -41.415  38.608 -50.131  1.00  0.00     0.037 A 
HETATM   16  C   UNL     1     -41.464  38.449 -48.745  1.00  0.00     0.059 A 
HETATM   17  C   UNL     1     -42.627  37.999 -48.084  1.00  0.00     0.042 A 
HETATM   18  C   UNL     1     -43.744  37.629 -48.851  1.00  0.00    -0.035 A 
HETATM   19  C   UNL     1     -44.996  37.003 -48.302  1.00  0.00     0.050 C 
HETATM   20  C   UNL     1     -43.695  37.815 -50.246  1.00  0.00     0.011 A 
HETATM   21  C   UNL     1     -42.547  38.296 -50.878  1.00  0.00     0.030 A 
BRANCH  17  22
HETATM   22  N   UNL     1     -42.508  37.922 -46.676  1.00  0.00    -0.327 N 
HETATM   23  C   UNL     1     -42.481  38.956 -45.761  1.00  0.00     0.218 C 
HETATM   24  C   UNL     1     -42.427  38.460 -44.335  1.00  0.00     0.117 C 
HETATM   25  O   UNL     1     -42.487  40.158 -45.997  1.00  0.00    -0.274 OA
HETATM   26  H   UNL     1     -42.164  37.036 -46.327  1.00  0.00     0.169 HD
ENDBRANCH  17  22
ENDBRANCH  12  15
ENDBRANCH   1  11
BRANCH   8  27
HETATM   27  C   UNL     1     -35.380  38.852 -54.829  1.00  0.00     0.409 C 
HETATM   28  F   UNL     1     -35.190  37.546 -54.522  1.00  0.00    -0.169 F 
HETATM   29  F   UNL     1     -36.595  38.956 -55.398  1.00  0.00    -0.169 F 
HETATM   30  F   UNL     1     -34.460  39.147 -55.784  1.00  0.00    -0.169 F 
ENDBRANCH   8  27
BRANCH   6  31
HETATM   31  C   UNL     1     -36.058  42.088 -55.806  1.00  0.00     0.075 A 
HETATM   32  O   UNL     1     -37.395  41.982 -56.060  1.00  0.00    -0.325 OA
HETATM   33  C   UNL     1     -37.539  41.886 -57.407  1.00  0.00     0.142 A 
HETATM   34  C   UNL     1     -36.314  41.926 -58.027  1.00  0.00     0.027 A 
HETATM   35  C   UNL     1     -35.354  42.048 -56.994  1.00  0.00     0.037 A 
ENDBRANCH   6  31
TORSDOF 5
ENDMDL
MODEL 9
REMARK VINA RESULT:      -7.9      3.612      9.797
REMARK  5 active torsions:
REMARK  status: ('A' for Active; 'I' for Inactive)
REMARK    1  A    between atoms: C_3  and  N_4 
REMARK       I    between atoms: N_4  and  C_5 
REMARK    2  A    between atoms: C_9  and  N_10 
REMARK       I    between atoms: N_10  and  C_11 
REMARK    3  A    between atoms: C_11  and  C_12 
REMARK    4  A    between atoms: C_17  and  C_18 
REMARK    5  A    between atoms: C_24  and  C_25 
ROOT
HETATM    1  C   UNL     1     -43.056  56.554 -57.039  1.00  0.00     0.148 A 
HETATM    2  N   UNL     1     -42.336  55.483 -56.628  1.00  0.00    -0.165 NA
HETATM    3  N   UNL     1     -42.645  55.379 -55.320  1.00  0.00    -0.240 N 
HETATM    4  C   UNL     1     -43.557  56.305 -54.892  1.00  0.00     0.123 A 
HETATM    5  N   UNL     1     -44.018  56.315 -53.625  1.00  0.00    -0.364 N 
HETATM    6  C   UNL     1     -43.419  55.482 -52.582  1.00  0.00     0.143 C 
HETATM    7  C   UNL     1     -42.912  54.164 -53.195  1.00  0.00     0.068 C 
HETATM    8  C   UNL     1     -42.083  54.337 -54.482  1.00  0.00     0.221 C 
HETATM    9  C   UNL     1     -43.838  57.088 -55.979  1.00  0.00     0.089 A 
HETATM   10  H   UNL     1     -44.564  57.104 -53.280  1.00  0.00     0.162 HD
ENDROOT
BRANCH   1  11
HETATM   11  C   UNL     1     -42.995  57.055 -58.423  1.00  0.00     0.276 C 
HETATM   12  N   UNL     1     -43.377  58.380 -58.510  1.00  0.00    -0.322 N 
HETATM   13  H   UNL     1     -43.638  58.786 -57.614  1.00  0.00     0.169 HD
HETATM   14  O   UNL     1     -42.653  56.328 -59.350  1.00  0.00    -0.266 OA
BRANCH  12  15
HETATM   15  C   UNL     1     -43.474  59.188 -59.657  1.00  0.00     0.037 A 
HETATM   16  C   UNL     1     -42.402  59.894 -60.206  1.00  0.00     0.059 A 
HETATM   17  C   UNL     1     -42.540  60.675 -61.373  1.00  0.00     0.042 A 
HETATM   18  C   UNL     1     -43.809  60.806 -61.957  1.00  0.00    -0.035 A 
HETATM   19  C   UNL     1     -44.137  61.712 -63.112  1.00  0.00     0.050 C 
HETATM   20  C   UNL     1     -44.881  60.073 -61.411  1.00  0.00     0.011 A 
HETATM   21  C   UNL     1     -44.717  59.276 -60.277  1.00  0.00     0.030 A 
BRANCH  17  22
HETATM   22  N   UNL     1     -41.344  61.299 -61.804  1.00  0.00    -0.327 N 
HETATM   23  C   UNL     1     -40.885  62.568 -61.510  1.00  0.00     0.218 C 
HETATM   24  C   UNL     1     -39.519  62.834 -62.096  1.00  0.00     0.117 C 
HETATM   25  O   UNL     1     -41.461  63.435 -60.865  1.00  0.00    -0.274 OA
HETATM   26  H   UNL     1     -40.903  60.861 -62.604  1.00  0.00     0.169 HD
ENDBRANCH  17  22
ENDBRANCH  12  15
ENDBRANCH   1  11
BRANCH   8  27
HETATM   27  C   UNL     1     -40.614  54.604 -54.236  1.00  0.00     0.409 C 
HETATM   28  F   UNL     1     -39.833  54.014 -55.173  1.00  0.00    -0.169 F 
HETATM   29  F   UNL     1     -40.295  55.911 -54.215  1.00  0.00    -0.169 F 
HETATM   30  F   UNL     1     -40.232  54.075 -53.045  1.00  0.00    -0.169 F 
ENDBRANCH   8  27
BRANCH   6  31
HETATM   31  C   UNL     1     -42.398  56.170 -51.734  1.00  0.00     0.075 A 
HETATM   32  O   UNL     1     -41.862  55.433 -50.717  1.00  0.00    -0.325 OA
HETATM   33  C   UNL     1     -40.987  56.237 -50.060  1.00  0.00     0.142 A 
HETATM   34  C   UNL     1     -40.952  57.484 -50.637  1.00  0.00     0.027 A 
HETATM   35  C   UNL     1     -41.870  57.446 -51.713  1.00  0.00     0.037 A 
ENDBRANCH   6  31
TORSDOF 5
ENDMDL
MODEL 10
REMARK VINA RESULT:      -7.8      3.669      9.632
REMARK  5 active torsions:
REMARK  status: ('A' for Active; 'I' for Inactive)
REMARK    1  A    between atoms: C_3  and  N_4 
REMARK       I    between atoms: N_4  and  C_5 
REMARK    2  A    between atoms: C_9  and  N_10 
REMARK       I    between atoms: N_10  and  C_11 
REMARK    3  A    between atoms: C_11  and  C_12 
REMARK    4  A    between atoms: C_17  and  C_18 
REMARK    5  A    between atoms: C_24  and  C_25 
ROOT
HETATM    1  C   UNL     1     -43.505  57.608 -54.090  1.00  0.00     0.148 A 
HETATM    2  N   UNL     1     -43.421  56.272 -54.291  1.00  0.00    -0.165 NA
HETATM    3  N   UNL     1     -43.378  55.767 -53.042  1.00  0.00    -0.240 N 
HETATM    4  C   UNL     1     -43.473  56.714 -52.060  1.00  0.00     0.123 A 
HETATM    5  N   UNL     1     -43.498  56.382 -50.752  1.00  0.00    -0.364 N 
HETATM    6  C   UNL     1     -43.211  55.022 -50.299  1.00  0.00     0.143 C 
HETATM    7  C   UNL     1     -43.702  54.008 -51.348  1.00  0.00     0.068 C 
HETATM    8  C   UNL     1     -43.290  54.340 -52.797  1.00  0.00     0.221 C 
HETATM    9  C   UNL     1     -43.547  57.919 -52.704  1.00  0.00     0.089 A 
HETATM   10  H   UNL     1     -43.401  57.101 -50.035  1.00  0.00     0.162 HD
ENDROOT
BRANCH   1  11
HETATM   11  C   UNL     1     -43.544  58.568 -55.207  1.00  0.00     0.276 C 
HETATM   12  N   UNL     1     -42.660  58.227 -56.213  1.00  0.00    -0.322 N 
HETATM   13  H   UNL     1     -42.131  57.379 -56.016  1.00  0.00     0.169 HD
HETATM   14  O   UNL     1     -44.285  59.546 -55.182  1.00  0.00    -0.266 OA
BRANCH  12  15
HETATM   15  C   UNL     1     -42.396  58.910 -57.413  1.00  0.00     0.037 A 
HETATM   16  C   UNL     1     -41.701  60.119 -57.484  1.00  0.00     0.059 A 
HETATM   17  C   UNL     1     -41.437  60.758 -58.714  1.00  0.00     0.042 A 
HETATM   18  C   UNL     1     -41.952  60.200 -59.895  1.00  0.00    -0.035 A 
HETATM   19  C   UNL     1     -41.875  60.837 -61.255  1.00  0.00     0.050 C 
HETATM   20  C   UNL     1     -42.632  58.969 -59.817  1.00  0.00     0.011 A 
HETATM   21  C   UNL     1     -42.852  58.333 -58.594  1.00  0.00     0.030 A 
BRANCH  17  22
HETATM   22  N   UNL     1     -40.698  61.960 -58.603  1.00  0.00    -0.327 N 
HETATM   23  C   UNL     1     -41.173  63.254 -58.521  1.00  0.00     0.218 C 
HETATM   24  C   UNL     1     -40.064  64.262 -58.327  1.00  0.00     0.117 C 
HETATM   25  O   UNL     1     -42.337  63.624 -58.599  1.00  0.00    -0.274 OA
HETATM   26  H   UNL     1     -39.719  61.881 -58.853  1.00  0.00     0.169 HD
ENDBRANCH  17  22
ENDBRANCH  12  15
ENDBRANCH   1  11
BRANCH   8  27
HETATM   27  C   UNL     1     -41.918  53.831 -53.177  1.00  0.00     0.409 C 
HETATM   28  F   UNL     1     -41.929  53.205 -54.379  1.00  0.00    -0.169 F 
HETATM   29  F   UNL     1     -40.977  54.792 -53.236  1.00  0.00    -0.169 F 
HETATM   30  F   UNL     1     -41.493  52.905 -52.279  1.00  0.00    -0.169 F 
ENDBRANCH   8  27
BRANCH   6  31
HETATM   31  C   UNL     1     -41.800  54.785 -49.865  1.00  0.00     0.075 A 
HETATM   32  O   UNL     1     -41.618  53.852 -48.885  1.00  0.00    -0.325 OA
HETATM   33  C   UNL     1     -40.287  53.807 -48.620  1.00  0.00     0.142 A 
HETATM   34  C   UNL     1     -39.607  54.699 -49.413  1.00  0.00     0.027 A 
HETATM   35  C   UNL     1     -40.584  55.339 -50.212  1.00  0.00     0.037 A 
ENDBRANCH   6  31
TORSDOF 5
ENDMDL
