MODEL 1
REMARK VINA RESULT:      -7.4      0.000      0.000
REMARK  7 active torsions:
REMARK  status: ('A' for Active; 'I' for Inactive)
REMARK    1  A    between atoms: C_2  and  N_3 
REMARK    2  A    between atoms: N_3  and  C_5 
REMARK    3  A    between atoms: N_3  and  C_17 
REMARK    4  A    between atoms: C_5  and  C_6 
REMARK       I    between atoms: C_6  and  N_7 
REMARK    5  A    between atoms: N_7  and  C_8 
REMARK    6  A    between atoms: C_17  and  C_18 
REMARK    7  A    between atoms: C_19  and  C_20 
ROOT
HETATM    1  N   UNL     1     -41.942  55.798 -55.029  1.00  0.00    -0.059 N 
HETATM    2  H   UNL     1     -42.827  55.406 -54.689  1.00  0.00     0.280 HD
ENDROOT
BRANCH   1   3
HETATM    3  C   UNL     1     -42.247  56.574 -56.291  1.00  0.00     0.231 C 
HETATM    4  C   UNL     1     -42.959  55.698 -57.306  1.00  0.00     0.034 C 
ENDBRANCH   1   3
BRANCH   1   5
HETATM    5  C   UNL     1     -40.981  54.620 -55.227  1.00  0.00     0.337 C 
BRANCH   5   6
HETATM    6  C   UNL     1     -41.171  53.464 -54.236  1.00  0.00     0.248 C 
HETATM    7  N   UNL     1     -39.988  52.907 -53.786  1.00  0.00    -0.325 N 
HETATM    8  H   UNL     1     -39.161  53.490 -53.813  1.00  0.00     0.169 HD
HETATM    9  O   UNL     1     -42.304  53.148 -53.882  1.00  0.00    -0.271 OA
BRANCH   7  10
HETATM   10  C   UNL     1     -39.893  51.789 -52.913  1.00  0.00     0.046 A 
HETATM   11  C   UNL     1     -39.755  50.460 -53.372  1.00  0.00    -0.035 A 
HETATM   12  C   UNL     1     -39.599  50.060 -54.816  1.00  0.00     0.050 C 
HETATM   13  C   UNL     1     -39.702  49.414 -52.432  1.00  0.00     0.009 A 
HETATM   14  C   UNL     1     -39.721  49.670 -51.066  1.00  0.00     0.001 A 
HETATM   15  C   UNL     1     -39.790  50.981 -50.614  1.00  0.00     0.009 A 
HETATM   16  C   UNL     1     -39.875  52.050 -51.520  1.00  0.00    -0.035 A 
HETATM   17  C   UNL     1     -39.980  53.441 -50.949  1.00  0.00     0.050 C 
ENDBRANCH   7  10
ENDBRANCH   5   6
ENDBRANCH   1   5
BRANCH   1  18
HETATM   18  C   UNL     1     -41.469  56.726 -53.910  1.00  0.00     0.277 C 
BRANCH  18  19
HETATM   19  C   UNL     1     -42.535  56.966 -52.897  1.00  0.00     0.012 A 
HETATM   20  C   UNL     1     -42.758  58.118 -52.069  1.00  0.00     0.071 A 
HETATM   21  N   UNL     1     -43.850  57.943 -51.315  1.00  0.00    -0.178 NA
HETATM   22  N   UNL     1     -44.275  56.707 -51.574  1.00  0.00    -0.288 N 
HETATM   23  H   UNL     1     -45.081  56.359 -51.060  1.00  0.00     0.188 HD
HETATM   24  C   UNL     1     -43.534  56.080 -52.530  1.00  0.00     0.120 A 
BRANCH  20  25
HETATM   25  C   UNL     1     -41.967  59.425 -51.942  1.00  0.00    -0.004 C 
HETATM   26  C   UNL     1     -42.060  60.256 -53.237  1.00  0.00     0.021 C 
HETATM   27  C   UNL     1     -42.511  60.318 -50.797  1.00  0.00     0.021 C 
HETATM   28  C   UNL     1     -40.489  59.131 -51.616  1.00  0.00     0.021 C 
ENDBRANCH  20  25
ENDBRANCH  18  19
ENDBRANCH   1  18
TORSDOF 7
ENDMDL
MODEL 2
REMARK VINA RESULT:      -7.2      1.947      3.376
REMARK  7 active torsions:
REMARK  status: ('A' for Active; 'I' for Inactive)
REMARK    1  A    between atoms: C_2  and  N_3 
REMARK    2  A    between atoms: N_3  and  C_5 
REMARK    3  A    between atoms: N_3  and  C_17 
REMARK    4  A    between atoms: C_5  and  C_6 
REMARK       I    between atoms: C_6  and  N_7 
REMARK    5  A    between atoms: N_7  and  C_8 
REMARK    6  A    between atoms: C_17  and  C_18 
REMARK    7  A    between atoms: C_19  and  C_20 
ROOT
HETATM    1  N   UNL     1     -41.672  56.515 -51.507  1.00  0.00    -0.059 N 
HETATM    2  H   UNL     1     -41.556  56.260 -52.494  1.00  0.00     0.280 HD
ENDROOT
BRANCH   1   3
HETATM    3  C   UNL     1     -40.900  57.796 -51.279  1.00  0.00     0.231 C 
HETATM    4  C   UNL     1     -40.495  58.426 -52.599  1.00  0.00     0.034 C 
ENDBRANCH   1   3
BRANCH   1   5
HETATM    5  C   UNL     1     -41.178  55.323 -50.678  1.00  0.00     0.337 C 
BRANCH   5   6
HETATM    6  C   UNL     1     -41.326  53.959 -51.365  1.00  0.00     0.248 C 
HETATM    7  N   UNL     1     -40.125  53.370 -51.714  1.00  0.00    -0.325 N 
HETATM    8  H   UNL     1     -39.304  53.646 -51.191  1.00  0.00     0.169 HD
HETATM    9  O   UNL     1     -42.444  53.473 -51.514  1.00  0.00    -0.271 OA
BRANCH   7  10
HETATM   10  C   UNL     1     -39.993  52.140 -52.413  1.00  0.00     0.046 A 
HETATM   11  C   UNL     1     -39.879  50.891 -51.763  1.00  0.00    -0.035 A 
HETATM   12  C   UNL     1     -39.972  50.685 -50.274  1.00  0.00     0.050 C 
HETATM   13  C   UNL     1     -39.720  49.728 -52.539  1.00  0.00     0.009 A 
HETATM   14  C   UNL     1     -39.735  49.780 -53.928  1.00  0.00     0.001 A 
HETATM   15  C   UNL     1     -39.913  50.999 -54.568  1.00  0.00     0.009 A 
HETATM   16  C   UNL     1     -40.045  52.185 -53.830  1.00  0.00    -0.035 A 
HETATM   17  C   UNL     1     -40.203  53.472 -54.599  1.00  0.00     0.050 C 
ENDBRANCH   7  10
ENDBRANCH   5   6
ENDBRANCH   1   5
BRANCH   1  18
HETATM   18  C   UNL     1     -43.174  56.735 -51.333  1.00  0.00     0.277 C 
BRANCH  18  19
HETATM   19  C   UNL     1     -43.854  56.996 -52.633  1.00  0.00     0.012 A 
HETATM   20  C   UNL     1     -44.601  58.149 -53.052  1.00  0.00     0.071 A 
HETATM   21  N   UNL     1     -45.020  57.996 -54.314  1.00  0.00    -0.178 NA
HETATM   22  N   UNL     1     -44.638  56.772 -54.677  1.00  0.00    -0.288 N 
HETATM   23  H   UNL     1     -44.904  56.441 -55.602  1.00  0.00     0.188 HD
HETATM   24  C   UNL     1     -43.919  56.132 -53.713  1.00  0.00     0.120 A 
BRANCH  20  25
HETATM   25  C   UNL     1     -44.958  59.436 -52.299  1.00  0.00    -0.004 C 
HETATM   26  C   UNL     1     -45.778  59.125 -51.031  1.00  0.00     0.021 C 
HETATM   27  C   UNL     1     -43.691  60.202 -51.837  1.00  0.00     0.021 C 
HETATM   28  C   UNL     1     -45.752  60.392 -53.212  1.00  0.00     0.021 C 
ENDBRANCH  20  25
ENDBRANCH  18  19
ENDBRANCH   1  18
TORSDOF 7
ENDMDL
MODEL 3
REMARK VINA RESULT:      -7.2      2.309      4.427
REMARK  7 active torsions:
REMARK  status: ('A' for Active; 'I' for Inactive)
REMARK    1  A    between atoms: C_2  and  N_3 
REMARK    2  A    between atoms: N_3  and  C_5 
REMARK    3  A    between atoms: N_3  and  C_17 
REMARK    4  A    between atoms: C_5  and  C_6 
REMARK       I    between atoms: C_6  and  N_7 
REMARK    5  A    between atoms: N_7  and  C_8 
REMARK    6  A    between atoms: C_17  and  C_18 
REMARK    7  A    between atoms: C_19  and  C_20 
ROOT
HETATM    1  N   UNL     1     -42.115  57.849 -54.226  1.00  0.00    -0.059 N 
HETATM    2  H   UNL     1     -41.478  57.197 -54.696  1.00  0.00     0.280 HD
ENDROOT
BRANCH   1   3
HETATM    3  C   UNL     1     -41.322  59.092 -53.889  1.00  0.00     0.231 C 
HETATM    4  C   UNL     1     -40.260  58.791 -52.847  1.00  0.00     0.034 C 
ENDBRANCH   1   3
BRANCH   1   5
HETATM    5  C   UNL     1     -42.685  57.113 -53.007  1.00  0.00     0.337 C 
BRANCH   5   6
HETATM    6  C   UNL     1     -42.427  55.600 -52.993  1.00  0.00     0.248 C 
HETATM    7  N   UNL     1     -41.110  55.255 -52.747  1.00  0.00    -0.325 N 
HETATM    8  H   UNL     1     -40.543  55.923 -52.242  1.00  0.00     0.169 HD
HETATM    9  O   UNL     1     -43.365  54.822 -53.148  1.00  0.00    -0.271 OA
BRANCH   7  10
HETATM   10  C   UNL     1     -40.603  53.927 -52.743  1.00  0.00     0.046 A 
HETATM   11  C   UNL     1     -40.286  53.218 -53.923  1.00  0.00    -0.035 A 
HETATM   12  C   UNL     1     -40.351  53.790 -55.314  1.00  0.00     0.050 C 
HETATM   13  C   UNL     1     -39.819  51.894 -53.820  1.00  0.00     0.009 A 
HETATM   14  C   UNL     1     -39.608  51.297 -52.583  1.00  0.00     0.001 A 
HETATM   15  C   UNL     1     -39.857  52.017 -51.422  1.00  0.00     0.009 A 
HETATM   16  C   UNL     1     -40.351  53.329 -51.482  1.00  0.00    -0.035 A 
HETATM   17  C   UNL     1     -40.627  54.031 -50.177  1.00  0.00     0.050 C 
ENDBRANCH   7  10
ENDBRANCH   5   6
ENDBRANCH   1   5
BRANCH   1  18
HETATM   18  C   UNL     1     -43.202  58.148 -55.258  1.00  0.00     0.277 C 
BRANCH  18  19
HETATM   19  C   UNL     1     -42.965  57.428 -56.541  1.00  0.00     0.012 A 
HETATM   20  C   UNL     1     -42.753  57.962 -57.857  1.00  0.00     0.071 A 
HETATM   21  N   UNL     1     -42.545  56.971 -58.732  1.00  0.00    -0.178 NA
HETATM   22  N   UNL     1     -42.695  55.841 -58.043  1.00  0.00    -0.288 N 
HETATM   23  H   UNL     1     -42.620  54.959 -58.544  1.00  0.00     0.188 HD
HETATM   24  C   UNL     1     -42.931  56.055 -56.718  1.00  0.00     0.120 A 
BRANCH  20  25
HETATM   25  C   UNL     1     -42.736  59.412 -58.355  1.00  0.00    -0.004 C 
HETATM   26  C   UNL     1     -42.538  59.470 -59.882  1.00  0.00     0.021 C 
HETATM   27  C   UNL     1     -44.071  60.141 -58.049  1.00  0.00     0.021 C 
HETATM   28  C   UNL     1     -41.619  60.210 -57.654  1.00  0.00     0.021 C 
ENDBRANCH  20  25
ENDBRANCH  18  19
ENDBRANCH   1  18
TORSDOF 7
ENDMDL
MODEL 4
REMARK VINA RESULT:      -7.1      2.082      4.440
REMARK  7 active torsions:
REMARK  status: ('A' for Active; 'I' for Inactive)
REMARK    1  A    between atoms: C_2  and  N_3 
REMARK    2  A    between atoms: N_3  and  C_5 
REMARK    3  A    between atoms: N_3  and  C_17 
REMARK    4  A    between atoms: C_5  and  C_6 
REMARK       I    between atoms: C_6  and  N_7 
REMARK    5  A    between atoms: N_7  and  C_8 
REMARK    6  A    between atoms: C_17  and  C_18 
REMARK    7  A    between atoms: C_19  and  C_20 
ROOT
HETATM    1  N   UNL     1     -41.986  57.348 -53.829  1.00  0.00    -0.059 N 
HETATM    2  H   UNL     1     -41.478  56.624 -54.349  1.00  0.00     0.280 HD
ENDROOT
BRANCH   1   3
HETATM    3  C   UNL     1     -41.024  58.491 -53.589  1.00  0.00     0.231 C 
HETATM    4  C   UNL     1     -41.680  59.824 -53.900  1.00  0.00     0.034 C 
ENDBRANCH   1   3
BRANCH   1   5
HETATM    5  C   UNL     1     -42.517  56.689 -52.550  1.00  0.00     0.337 C 
BRANCH   5   6
HETATM    6  C   UNL     1     -42.268  55.177 -52.459  1.00  0.00     0.248 C 
HETATM    7  N   UNL     1     -40.935  54.819 -52.544  1.00  0.00    -0.325 N 
HETATM    8  H   UNL     1     -40.251  55.515 -52.279  1.00  0.00     0.169 HD
HETATM    9  O   UNL     1     -43.215  54.416 -52.277  1.00  0.00    -0.271 OA
BRANCH   7  10
HETATM   10  C   UNL     1     -40.449  53.483 -52.546  1.00  0.00     0.046 A 
HETATM   11  C   UNL     1     -40.254  52.730 -51.367  1.00  0.00    -0.035 A 
HETATM   12  C   UNL     1     -40.614  53.195 -49.981  1.00  0.00     0.050 C 
HETATM   13  C   UNL     1     -39.737  51.425 -51.467  1.00  0.00     0.009 A 
HETATM   14  C   UNL     1     -39.475  50.845 -52.702  1.00  0.00     0.001 A 
HETATM   15  C   UNL     1     -39.728  51.561 -53.865  1.00  0.00     0.009 A 
HETATM   16  C   UNL     1     -40.216  52.877 -53.806  1.00  0.00    -0.035 A 
HETATM   17  C   UNL     1     -40.434  53.597 -55.112  1.00  0.00     0.050 C 
ENDBRANCH   7  10
ENDBRANCH   5   6
ENDBRANCH   1   5
BRANCH   1  18
HETATM   18  C   UNL     1     -43.125  57.770 -54.757  1.00  0.00     0.277 C 
BRANCH  18  19
HETATM   19  C   UNL     1     -43.183  56.929 -55.986  1.00  0.00     0.012 A 
HETATM   20  C   UNL     1     -43.202  57.335 -57.364  1.00  0.00     0.071 A 
HETATM   21  N   UNL     1     -43.224  56.261 -58.163  1.00  0.00    -0.178 NA
HETATM   22  N   UNL     1     -43.299  55.206 -57.352  1.00  0.00    -0.288 N 
HETATM   23  H   UNL     1     -43.372  54.283 -57.771  1.00  0.00     0.188 HD
HETATM   24  C   UNL     1     -43.260  55.547 -56.033  1.00  0.00     0.120 A 
BRANCH  20  25
HETATM   25  C   UNL     1     -43.203  58.733 -57.994  1.00  0.00    -0.004 C 
HETATM   26  C   UNL     1     -44.409  59.558 -57.506  1.00  0.00     0.021 C 
HETATM   27  C   UNL     1     -41.929  59.534 -57.616  1.00  0.00     0.021 C 
HETATM   28  C   UNL     1     -43.228  58.630 -59.532  1.00  0.00     0.021 C 
ENDBRANCH  20  25
ENDBRANCH  18  19
ENDBRANCH   1  18
TORSDOF 7
ENDMDL
MODEL 5
REMARK VINA RESULT:      -7.1      1.978      3.183
REMARK  7 active torsions:
REMARK  status: ('A' for Active; 'I' for Inactive)
REMARK    1  A    between atoms: C_2  and  N_3 
REMARK    2  A    between atoms: N_3  and  C_5 
REMARK    3  A    between atoms: N_3  and  C_17 
REMARK    4  A    between atoms: C_5  and  C_6 
REMARK       I    between atoms: C_6  and  N_7 
REMARK    5  A    between atoms: N_7  and  C_8 
REMARK    6  A    between atoms: C_17  and  C_18 
REMARK    7  A    between atoms: C_19  and  C_20 
ROOT
HETATM    1  N   UNL     1     -43.130  57.408 -52.776  1.00  0.00    -0.059 N 
HETATM    2  H   UNL     1     -43.847  58.093 -52.517  1.00  0.00     0.280 HD
ENDROOT
BRANCH   1   3
HETATM    3  C   UNL     1     -43.608  56.705 -54.028  1.00  0.00     0.231 C 
HETATM    4  C   UNL     1     -44.942  57.265 -54.486  1.00  0.00     0.034 C 
ENDBRANCH   1   3
BRANCH   1   5
HETATM    5  C   UNL     1     -42.937  56.484 -51.567  1.00  0.00     0.337 C 
BRANCH   5   6
HETATM    6  C   UNL     1     -42.575  55.035 -51.919  1.00  0.00     0.248 C 
HETATM    7  N   UNL     1     -41.229  54.836 -52.170  1.00  0.00    -0.325 N 
HETATM    8  H   UNL     1     -40.579  55.490 -51.755  1.00  0.00     0.169 HD
HETATM    9  O   UNL     1     -43.448  54.172 -51.911  1.00  0.00    -0.271 OA
BRANCH   7  10
HETATM   10  C   UNL     1     -40.650  53.602 -52.575  1.00  0.00     0.046 A 
HETATM   11  C   UNL     1     -40.499  53.227 -53.928  1.00  0.00    -0.035 A 
HETATM   12  C   UNL     1     -40.839  54.101 -55.106  1.00  0.00     0.050 C 
HETATM   13  C   UNL     1     -39.943  51.970 -54.231  1.00  0.00     0.009 A 
HETATM   14  C   UNL     1     -39.485  51.123 -53.228  1.00  0.00     0.001 A 
HETATM   15  C   UNL     1     -39.572  51.520 -51.901  1.00  0.00     0.009 A 
HETATM   16  C   UNL     1     -40.148  52.753 -51.556  1.00  0.00    -0.035 A 
HETATM   17  C   UNL     1     -40.235  53.096 -50.091  1.00  0.00     0.050 C 
ENDBRANCH   7  10
ENDBRANCH   5   6
ENDBRANCH   1   5
BRANCH   1  18
HETATM   18  C   UNL     1     -41.876  58.238 -53.053  1.00  0.00     0.277 C 
BRANCH  18  19
HETATM   19  C   UNL     1     -42.210  59.638 -53.438  1.00  0.00     0.012 A 
HETATM   20  C   UNL     1     -42.621  60.736 -52.607  1.00  0.00     0.071 A 
HETATM   21  N   UNL     1     -42.791  61.838 -53.346  1.00  0.00    -0.178 NA
HETATM   22  N   UNL     1     -42.584  61.465 -54.608  1.00  0.00    -0.288 N 
HETATM   23  H   UNL     1     -42.711  62.159 -55.341  1.00  0.00     0.188 HD
HETATM   24  C   UNL     1     -42.214  60.158 -54.721  1.00  0.00     0.120 A 
BRANCH  20  25
HETATM   25  C   UNL     1     -42.873  60.805 -51.096  1.00  0.00    -0.004 C 
HETATM   26  C   UNL     1     -41.697  60.192 -50.311  1.00  0.00     0.021 C 
HETATM   27  C   UNL     1     -43.026  62.268 -50.605  1.00  0.00     0.021 C 
HETATM   28  C   UNL     1     -44.180  60.072 -50.734  1.00  0.00     0.021 C 
ENDBRANCH  20  25
ENDBRANCH  18  19
ENDBRANCH   1  18
TORSDOF 7
ENDMDL
MODEL 6
REMARK VINA RESULT:      -7.1      2.698      5.761
REMARK  7 active torsions:
REMARK  status: ('A' for Active; 'I' for Inactive)
REMARK    1  A    between atoms: C_2  and  N_3 
REMARK    2  A    between atoms: N_3  and  C_5 
REMARK    3  A    between atoms: N_3  and  C_17 
REMARK    4  A    between atoms: C_5  and  C_6 
REMARK       I    between atoms: C_6  and  N_7 
REMARK    5  A    between atoms: N_7  and  C_8 
REMARK    6  A    between atoms: C_17  and  C_18 
REMARK    7  A    between atoms: C_19  and  C_20 
ROOT
HETATM    1  N   UNL     1     -42.991  56.992 -56.020  1.00  0.00    -0.059 N 
HETATM    2  H   UNL     1     -42.072  57.410 -56.204  1.00  0.00     0.280 HD
ENDROOT
BRANCH   1   3
HETATM    3  C   UNL     1     -43.531  57.628 -54.758  1.00  0.00     0.231 C 
HETATM    4  C   UNL     1     -44.850  56.995 -54.355  1.00  0.00     0.034 C 
ENDBRANCH   1   3
BRANCH   1   5
HETATM    5  C   UNL     1     -42.779  55.476 -55.922  1.00  0.00     0.337 C 
BRANCH   5   6
HETATM    6  C   UNL     1     -41.761  55.038 -54.861  1.00  0.00     0.248 C 
HETATM    7  N   UNL     1     -42.228  54.061 -54.001  1.00  0.00    -0.325 N 
HETATM    8  H   UNL     1     -42.975  53.468 -54.337  1.00  0.00     0.169 HD
HETATM    9  O   UNL     1     -40.632  55.523 -54.866  1.00  0.00    -0.271 OA
BRANCH   7  10
HETATM   10  C   UNL     1     -41.503  53.531 -52.899  1.00  0.00     0.046 A 
HETATM   11  C   UNL     1     -40.501  52.545 -53.035  1.00  0.00    -0.035 A 
HETATM   12  C   UNL     1     -40.008  51.996 -54.348  1.00  0.00     0.050 C 
HETATM   13  C   UNL     1     -39.860  52.057 -51.881  1.00  0.00     0.009 A 
HETATM   14  C   UNL     1     -40.150  52.571 -50.623  1.00  0.00     0.001 A 
HETATM   15  C   UNL     1     -41.088  53.587 -50.496  1.00  0.00     0.009 A 
HETATM   16  C   UNL     1     -41.771  54.080 -51.619  1.00  0.00    -0.035 A 
HETATM   17  C   UNL     1     -42.796  55.161 -51.392  1.00  0.00     0.050 C 
ENDBRANCH   7  10
ENDBRANCH   5   6
ENDBRANCH   1   5
BRANCH   1  18
HETATM   18  C   UNL     1     -43.842  57.362 -57.234  1.00  0.00     0.277 C 
BRANCH  18  19
HETATM   19  C   UNL     1     -43.088  57.205 -58.511  1.00  0.00     0.012 A 
HETATM   20  C   UNL     1     -43.421  56.429 -59.672  1.00  0.00     0.071 A 
HETATM   21  N   UNL     1     -42.488  56.587 -60.619  1.00  0.00    -0.178 NA
HETATM   22  N   UNL     1     -41.549  57.362 -60.077  1.00  0.00    -0.288 N 
HETATM   23  H   UNL     1     -40.719  57.566 -60.627  1.00  0.00     0.188 HD
HETATM   24  C   UNL     1     -41.865  57.777 -58.818  1.00  0.00     0.120 A 
BRANCH  20  25
HETATM   25  C   UNL     1     -44.616  55.509 -59.950  1.00  0.00    -0.004 C 
HETATM   26  C   UNL     1     -44.528  54.220 -59.110  1.00  0.00     0.021 C 
HETATM   27  C   UNL     1     -45.962  56.189 -59.587  1.00  0.00     0.021 C 
HETATM   28  C   UNL     1     -44.684  55.152 -61.448  1.00  0.00     0.021 C 
ENDBRANCH  20  25
ENDBRANCH  18  19
ENDBRANCH   1  18
TORSDOF 7
ENDMDL
MODEL 7
REMARK VINA RESULT:      -7.0      1.747      3.056
REMARK  7 active torsions:
REMARK  status: ('A' for Active; 'I' for Inactive)
REMARK    1  A    between atoms: C_2  and  N_3 
REMARK    2  A    between atoms: N_3  and  C_5 
REMARK    3  A    between atoms: N_3  and  C_17 
REMARK    4  A    between atoms: C_5  and  C_6 
REMARK       I    between atoms: C_6  and  N_7 
REMARK    5  A    between atoms: N_7  and  C_8 
REMARK    6  A    between atoms: C_17  and  C_18 
REMARK    7  A    between atoms: C_19  and  C_20 
ROOT
HETATM    1  N   UNL     1     -44.057  57.088 -52.746  1.00  0.00    -0.059 N 
HETATM    2  H   UNL     1     -44.921  57.569 -52.476  1.00  0.00     0.280 HD
ENDROOT
BRANCH   1   3
HETATM    3  C   UNL     1     -44.368  56.252 -53.968  1.00  0.00     0.231 C 
HETATM    4  C   UNL     1     -43.785  56.884 -55.219  1.00  0.00     0.034 C 
ENDBRANCH   1   3
BRANCH   1   5
HETATM    5  C   UNL     1     -43.597  56.280 -51.527  1.00  0.00     0.337 C 
BRANCH   5   6
HETATM    6  C   UNL     1     -43.045  54.886 -51.853  1.00  0.00     0.248 C 
HETATM    7  N   UNL     1     -41.709  54.879 -52.213  1.00  0.00    -0.325 N 
HETATM    8  H   UNL     1     -41.136  55.643 -51.880  1.00  0.00     0.169 HD
HETATM    9  O   UNL     1     -43.771  53.902 -51.737  1.00  0.00    -0.271 OA
BRANCH   7  10
HETATM   10  C   UNL     1     -40.981  53.728 -52.619  1.00  0.00     0.046 A 
HETATM   11  C   UNL     1     -40.942  53.270 -53.954  1.00  0.00    -0.035 A 
HETATM   12  C   UNL     1     -41.578  53.973 -55.124  1.00  0.00     0.050 C 
HETATM   13  C   UNL     1     -40.219  52.100 -54.255  1.00  0.00     0.009 A 
HETATM   14  C   UNL     1     -39.496  51.427 -53.278  1.00  0.00     0.001 A 
HETATM   15  C   UNL     1     -39.480  51.914 -51.978  1.00  0.00     0.009 A 
HETATM   16  C   UNL     1     -40.212  53.061 -51.631  1.00  0.00    -0.035 A 
HETATM   17  C   UNL     1     -40.168  53.507 -50.192  1.00  0.00     0.050 C 
ENDBRANCH   7  10
ENDBRANCH   5   6
ENDBRANCH   1   5
BRANCH   1  18
HETATM   18  C   UNL     1     -43.072  58.209 -53.080  1.00  0.00     0.277 C 
BRANCH  18  19
HETATM   19  C   UNL     1     -42.967  59.204 -51.975  1.00  0.00     0.012 A 
HETATM   20  C   UNL     1     -41.836  59.532 -51.153  1.00  0.00     0.071 A 
HETATM   21  N   UNL     1     -42.154  60.508 -50.295  1.00  0.00    -0.178 NA
HETATM   22  N   UNL     1     -43.449  60.753 -50.487  1.00  0.00    -0.288 N 
HETATM   23  H   UNL     1     -43.901  61.443 -49.892  1.00  0.00     0.188 HD
HETATM   24  C   UNL     1     -43.985  60.011 -51.496  1.00  0.00     0.120 A 
BRANCH  20  25
HETATM   25  C   UNL     1     -40.417  58.951 -51.128  1.00  0.00    -0.004 C 
HETATM   26  C   UNL     1     -40.413  57.526 -50.543  1.00  0.00     0.021 C 
HETATM   27  C   UNL     1     -39.811  58.853 -52.553  1.00  0.00     0.021 C 
HETATM   28  C   UNL     1     -39.478  59.856 -50.305  1.00  0.00     0.021 C 
ENDBRANCH  20  25
ENDBRANCH  18  19
ENDBRANCH   1  18
TORSDOF 7
ENDMDL
MODEL 8
REMARK VINA RESULT:      -7.0      1.843      3.011
REMARK  7 active torsions:
REMARK  status: ('A' for Active; 'I' for Inactive)
REMARK    1  A    between atoms: C_2  and  N_3 
REMARK    2  A    between atoms: N_3  and  C_5 
REMARK    3  A    between atoms: N_3  and  C_17 
REMARK    4  A    between atoms: C_5  and  C_6 
REMARK       I    between atoms: C_6  and  N_7 
REMARK    5  A    between atoms: N_7  and  C_8 
REMARK    6  A    between atoms: C_17  and  C_18 
REMARK    7  A    between atoms: C_19  and  C_20 
ROOT
HETATM    1  N   UNL     1     -43.428  57.213 -52.681  1.00  0.00    -0.059 N 
HETATM    2  H   UNL     1     -44.073  57.952 -52.381  1.00  0.00     0.280 HD
ENDROOT
BRANCH   1   3
HETATM    3  C   UNL     1     -44.007  56.588 -53.930  1.00  0.00     0.231 C 
HETATM    4  C   UNL     1     -44.903  57.571 -54.662  1.00  0.00     0.034 C 
ENDBRANCH   1   3
BRANCH   1   5
HETATM    5  C   UNL     1     -43.279  56.246 -51.500  1.00  0.00     0.337 C 
BRANCH   5   6
HETATM    6  C   UNL     1     -42.815  54.834 -51.883  1.00  0.00     0.248 C 
HETATM    7  N   UNL     1     -41.464  54.741 -52.163  1.00  0.00    -0.325 N 
HETATM    8  H   UNL     1     -40.856  55.436 -51.749  1.00  0.00     0.169 HD
HETATM    9  O   UNL     1     -43.621  53.907 -51.874  1.00  0.00    -0.271 OA
BRANCH   7  10
HETATM   10  C   UNL     1     -40.802  53.562 -52.600  1.00  0.00     0.046 A 
HETATM   11  C   UNL     1     -40.669  53.209 -53.961  1.00  0.00    -0.035 A 
HETATM   12  C   UNL     1     -41.121  54.060 -55.118  1.00  0.00     0.050 C 
HETATM   13  C   UNL     1     -40.024  52.003 -54.295  1.00  0.00     0.009 A 
HETATM   14  C   UNL     1     -39.464  51.190 -53.318  1.00  0.00     0.001 A 
HETATM   15  C   UNL     1     -39.536  51.569 -51.984  1.00  0.00     0.009 A 
HETATM   16  C   UNL     1     -40.197  52.749 -51.607  1.00  0.00    -0.035 A 
HETATM   17  C   UNL     1     -40.259  53.074 -50.137  1.00  0.00     0.050 C 
ENDBRANCH   7  10
ENDBRANCH   5   6
ENDBRANCH   1   5
BRANCH   1  18
HETATM   18  C   UNL     1     -42.115  57.937 -52.982  1.00  0.00     0.277 C 
BRANCH  18  19
HETATM   19  C   UNL     1     -41.656  58.760 -51.827  1.00  0.00     0.012 A 
HETATM   20  C   UNL     1     -42.111  60.051 -51.393  1.00  0.00     0.071 A 
HETATM   21  N   UNL     1     -41.456  60.427 -50.289  1.00  0.00    -0.178 NA
HETATM   22  N   UNL     1     -40.558  59.470 -50.056  1.00  0.00    -0.288 N 
HETATM   23  H   UNL     1     -39.920  59.590 -49.273  1.00  0.00     0.188 HD
HETATM   24  C   UNL     1     -40.644  58.435 -50.938  1.00  0.00     0.120 A 
BRANCH  20  25
HETATM   25  C   UNL     1     -43.170  60.987 -51.987  1.00  0.00    -0.004 C 
HETATM   26  C   UNL     1     -42.862  61.306 -53.462  1.00  0.00     0.021 C 
HETATM   27  C   UNL     1     -44.585  60.352 -51.951  1.00  0.00     0.021 C 
HETATM   28  C   UNL     1     -43.247  62.296 -51.175  1.00  0.00     0.021 C 
ENDBRANCH  20  25
ENDBRANCH  18  19
ENDBRANCH   1  18
TORSDOF 7
ENDMDL
MODEL 9
REMARK VINA RESULT:      -6.9      2.389      3.484
REMARK  7 active torsions:
REMARK  status: ('A' for Active; 'I' for Inactive)
REMARK    1  A    between atoms: C_2  and  N_3 
REMARK    2  A    between atoms: N_3  and  C_5 
REMARK    3  A    between atoms: N_3  and  C_17 
REMARK    4  A    between atoms: C_5  and  C_6 
REMARK       I    between atoms: C_6  and  N_7 
REMARK    5  A    between atoms: N_7  and  C_8 
REMARK    6  A    between atoms: C_17  and  C_18 
REMARK    7  A    between atoms: C_19  and  C_20 
ROOT
HETATM    1  N   UNL     1     -42.590  57.311 -52.083  1.00  0.00    -0.059 N 
HETATM    2  H   UNL     1     -42.434  56.909 -53.014  1.00  0.00     0.280 HD
ENDROOT
BRANCH   1   3
HETATM    3  C   UNL     1     -41.543  58.382 -51.873  1.00  0.00     0.231 C 
HETATM    4  C   UNL     1     -40.837  58.712 -53.176  1.00  0.00     0.034 C 
ENDBRANCH   1   3
BRANCH   1   5
HETATM    5  C   UNL     1     -42.521  56.153 -51.080  1.00  0.00     0.337 C 
BRANCH   5   6
HETATM    6  C   UNL     1     -42.304  54.771 -51.711  1.00  0.00     0.248 C 
HETATM    7  N   UNL     1     -40.978  54.467 -51.958  1.00  0.00    -0.325 N 
HETATM    8  H   UNL     1     -40.282  54.941 -51.399  1.00  0.00     0.169 HD
HETATM    9  O   UNL     1     -43.268  54.035 -51.906  1.00  0.00    -0.271 OA
BRANCH   7  10
HETATM   10  C   UNL     1     -40.519  53.279 -52.590  1.00  0.00     0.046 A 
HETATM   11  C   UNL     1     -40.382  53.152 -53.990  1.00  0.00    -0.035 A 
HETATM   12  C   UNL     1     -40.611  54.263 -54.981  1.00  0.00     0.050 C 
HETATM   13  C   UNL     1     -39.950  51.925 -54.526  1.00  0.00     0.009 A 
HETATM   14  C   UNL     1     -39.598  50.862 -53.703  1.00  0.00     0.001 A 
HETATM   15  C   UNL     1     -39.669  51.008 -52.324  1.00  0.00     0.009 A 
HETATM   16  C   UNL     1     -40.124  52.206 -51.751  1.00  0.00    -0.035 A 
HETATM   17  C   UNL     1     -40.202  52.274 -50.247  1.00  0.00     0.050 C 
ENDBRANCH   7  10
ENDBRANCH   5   6
ENDBRANCH   1   5
BRANCH   1  18
HETATM   18  C   UNL     1     -43.994  57.914 -52.148  1.00  0.00     0.277 C 
BRANCH  18  19
HETATM   19  C   UNL     1     -44.526  57.939 -53.539  1.00  0.00     0.012 A 
HETATM   20  C   UNL     1     -45.035  59.047 -54.298  1.00  0.00     0.071 A 
HETATM   21  N   UNL     1     -45.385  58.646 -55.526  1.00  0.00    -0.178 NA
HETATM   22  N   UNL     1     -45.193  57.327 -55.546  1.00  0.00    -0.288 N 
HETATM   23  H   UNL     1     -45.446  56.818 -56.390  1.00  0.00     0.188 HD
HETATM   24  C   UNL     1     -44.662  56.851 -54.386  1.00  0.00     0.120 A 
BRANCH  20  25
HETATM   25  C   UNL     1     -45.220  60.519 -53.914  1.00  0.00    -0.004 C 
HETATM   26  C   UNL     1     -45.894  61.308 -55.053  1.00  0.00     0.021 C 
HETATM   27  C   UNL     1     -46.123  60.679 -52.663  1.00  0.00     0.021 C 
HETATM   28  C   UNL     1     -43.860  61.160 -53.570  1.00  0.00     0.021 C 
ENDBRANCH  20  25
ENDBRANCH  18  19
ENDBRANCH   1  18
TORSDOF 7
ENDMDL
MODEL 10
REMARK VINA RESULT:      -6.8      2.882      5.334
REMARK  7 active torsions:
REMARK  status: ('A' for Active; 'I' for Inactive)
REMARK    1  A    between atoms: C_2  and  N_3 
REMARK    2  A    between atoms: N_3  and  C_5 
REMARK    3  A    between atoms: N_3  and  C_17 
REMARK    4  A    between atoms: C_5  and  C_6 
REMARK       I    between atoms: C_6  and  N_7 
REMARK    5  A    between atoms: N_7  and  C_8 
REMARK    6  A    between atoms: C_17  and  C_18 
REMARK    7  A    between atoms: C_19  and  C_20 
ROOT
HETATM    1  N   UNL     1     -42.895  57.624 -55.685  1.00  0.00    -0.059 N 
HETATM    2  H   UNL     1     -42.204  56.928 -55.983  1.00  0.00     0.280 HD
ENDROOT
BRANCH   1   3
HETATM    3  C   UNL     1     -42.135  58.855 -55.241  1.00  0.00     0.231 C 
HETATM    4  C   UNL     1     -43.007  59.745 -54.374  1.00  0.00     0.034 C 
ENDBRANCH   1   3
BRANCH   1   5
HETATM    5  C   UNL     1     -43.739  56.971 -54.584  1.00  0.00     0.337 C 
BRANCH   5   6
HETATM    6  C   UNL     1     -43.247  55.589 -54.134  1.00  0.00     0.248 C 
HETATM    7  N   UNL     1     -42.052  55.615 -53.438  1.00  0.00    -0.325 N 
HETATM    8  H   UNL     1     -41.812  56.476 -52.964  1.00  0.00     0.169 HD
HETATM    9  O   UNL     1     -43.931  54.595 -54.367  1.00  0.00    -0.271 OA
BRANCH   7  10
HETATM   10  C   UNL     1     -41.358  54.467 -52.968  1.00  0.00     0.046 A 
HETATM   11  C   UNL     1     -40.558  53.654 -53.800  1.00  0.00    -0.035 A 
HETATM   12  C   UNL     1     -40.261  53.936 -55.250  1.00  0.00     0.050 C 
HETATM   13  C   UNL     1     -39.934  52.518 -53.251  1.00  0.00     0.009 A 
HETATM   14  C   UNL     1     -40.040  52.220 -51.898  1.00  0.00     0.001 A 
HETATM   15  C   UNL     1     -40.773  53.056 -51.066  1.00  0.00     0.009 A 
HETATM   16  C   UNL     1     -41.435  54.182 -51.581  1.00  0.00    -0.035 A 
HETATM   17  C   UNL     1     -42.235  55.021 -50.618  1.00  0.00     0.050 C 
ENDBRANCH   7  10
ENDBRANCH   5   6
ENDBRANCH   1   5
BRANCH   1  18
HETATM   18  C   UNL     1     -43.728  57.909 -56.935  1.00  0.00     0.277 C 
BRANCH  18  19
HETATM   19  C   UNL     1     -43.126  57.302 -58.156  1.00  0.00     0.012 A 
HETATM   20  C   UNL     1     -42.629  57.945 -59.340  1.00  0.00     0.071 A 
HETATM   21  N   UNL     1     -42.139  57.036 -60.191  1.00  0.00    -0.178 NA
HETATM   22  N   UNL     1     -42.375  55.850 -59.631  1.00  0.00    -0.288 N 
HETATM   23  H   UNL     1     -42.115  55.014 -60.148  1.00  0.00     0.188 HD
HETATM   24  C   UNL     1     -42.951  55.950 -58.399  1.00  0.00     0.120 A 
BRANCH  20  25
HETATM   25  C   UNL     1     -42.592  59.428 -59.730  1.00  0.00    -0.004 C 
HETATM   26  C   UNL     1     -41.812  60.254 -58.689  1.00  0.00     0.021 C 
HETATM   27  C   UNL     1     -41.886  59.645 -61.095  1.00  0.00     0.021 C 
HETATM   28  C   UNL     1     -44.023  59.983 -59.873  1.00  0.00     0.021 C 
ENDBRANCH  20  25
ENDBRANCH  18  19
ENDBRANCH   1  18
TORSDOF 7
ENDMDL
