MODEL 1
REMARK VINA RESULT:      -8.8      0.000      0.000
REMARK  7 active torsions:
REMARK  status: ('A' for Active; 'I' for Inactive)
REMARK    1  A    between atoms: O_2  and  C_3 
REMARK    2  A    between atoms: C_4  and  N_5 
REMARK    3  A    between atoms: N_5  and  C_6 
REMARK    4  A    between atoms: C_6  and  C_7 
REMARK       I    between atoms: C_7  and  N_8 
REMARK    5  A    between atoms: N_8  and  N_9 
REMARK       I    between atoms: N_9  and  C_10 
REMARK    6  A    between atoms: C_10  and  C_11 
REMARK    7  A    between atoms: N_13  and  C_14 
ROOT
HETATM    1  N   UNL     1     -43.086  57.542 -52.473  1.00  0.00    -0.263 N 
HETATM    2  C   UNL     1     -41.905  57.079 -51.910  1.00  0.00     0.273 C 
HETATM    3  O   UNL     1     -41.366  57.550 -50.915  1.00  0.00    -0.266 OA
HETATM    4  H   UNL     1     -43.257  57.338 -53.453  1.00  0.00     0.190 HD
ENDROOT
BRANCH   1   5
HETATM    5  N   UNL     1     -43.633  58.748 -52.008  1.00  0.00    -0.266 N 
HETATM    6  C   UNL     1     -44.738  58.698 -51.164  1.00  0.00     0.249 C 
HETATM    7  O   UNL     1     -45.415  57.694 -50.956  1.00  0.00    -0.270 OA
HETATM    8  H   UNL     1     -42.982  59.512 -51.821  1.00  0.00     0.190 HD
BRANCH   6   9
HETATM    9  C   UNL     1     -44.999  60.050 -50.495  1.00  0.00     0.197 C 
BRANCH   9  10
HETATM   10  N   UNL     1     -45.711  59.848 -49.223  1.00  0.00    -0.282 NA
HETATM   11  H   UNL     1     -45.655  58.896 -48.855  1.00  0.00     0.128 HD
BRANCH  10  12
HETATM   12  C   UNL     1     -45.534  60.755 -48.159  1.00  0.00     0.042 A 
HETATM   13  C   UNL     1     -45.996  60.384 -46.872  1.00  0.00     0.089 A 
HETATM   14  C   UNL     1     -45.896  61.273 -45.796  1.00  0.00     0.038 A 
HETATM   15  C   UNL     1     -45.377  62.552 -45.989  1.00  0.00     0.003 A 
HETATM   16  C   UNL     1     -44.964  62.947 -47.256  1.00  0.00     0.002 A 
HETATM   17  C   UNL     1     -45.053  62.061 -48.332  1.00  0.00     0.026 A 
BRANCH  13  18
HETATM   18  O   UNL     1     -46.498  59.105 -46.770  1.00  0.00    -0.354 OA
HETATM   19  C   UNL     1     -47.237  58.820 -45.588  1.00  0.00     0.210 C 
ENDBRANCH  13  18
ENDBRANCH  10  12
ENDBRANCH   9  10
ENDBRANCH   6   9
ENDBRANCH   1   5
BRANCH   2  20
HETATM   20  C   UNL     1     -41.343  55.957 -52.639  1.00  0.00     0.070 A 
HETATM   21  C   UNL     1     -41.310  54.639 -52.232  1.00  0.00     0.137 A 
HETATM   22  N   UNL     1     -40.669  53.919 -53.218  1.00  0.00    -0.244 N 
HETATM   23  N   UNL     1     -40.342  54.716 -54.271  1.00  0.00    -0.179 NA
HETATM   24  C   UNL     1     -40.741  55.934 -53.909  1.00  0.00     0.157 A 
BRANCH  22  25
HETATM   25  C   UNL     1     -40.323  52.540 -53.221  1.00  0.00     0.059 A 
HETATM   26  C   UNL     1     -39.956  51.880 -52.041  1.00  0.00     0.055 A 
HETATM   27  C   UNL     1     -39.598  50.531 -52.090  1.00  0.00     0.036 A 
HETATM   28 CL   UNL     1     -39.119  49.725 -50.645  1.00  0.00    -0.084 Cl
HETATM   29  C   UNL     1     -39.616  49.828 -53.294  1.00  0.00     0.024 A 
HETATM   30  C   UNL     1     -39.986  50.479 -54.468  1.00  0.00     0.004 A 
HETATM   31  C   UNL     1     -40.334  51.831 -54.435  1.00  0.00     0.031 A 
ENDBRANCH  22  25
ENDBRANCH   2  20
TORSDOF 7
ENDMDL
MODEL 2
REMARK VINA RESULT:      -8.7      6.074      8.537
REMARK  7 active torsions:
REMARK  status: ('A' for Active; 'I' for Inactive)
REMARK    1  A    between atoms: O_2  and  C_3 
REMARK    2  A    between atoms: C_4  and  N_5 
REMARK    3  A    between atoms: N_5  and  C_6 
REMARK    4  A    between atoms: C_6  and  C_7 
REMARK       I    between atoms: C_7  and  N_8 
REMARK    5  A    between atoms: N_8  and  N_9 
REMARK       I    between atoms: N_9  and  C_10 
REMARK    6  A    between atoms: C_10  and  C_11 
REMARK    7  A    between atoms: N_13  and  C_14 
ROOT
HETATM    1  N   UNL     1     -42.078  56.711 -57.458  1.00  0.00    -0.263 N 
HETATM    2  C   UNL     1     -43.012  56.832 -56.439  1.00  0.00     0.273 C 
HETATM    3  O   UNL     1     -43.911  57.665 -56.401  1.00  0.00    -0.266 OA
HETATM    4  H   UNL     1     -41.197  56.255 -57.242  1.00  0.00     0.190 HD
ENDROOT
BRANCH   1   5
HETATM    5  N   UNL     1     -42.009  57.712 -58.439  1.00  0.00    -0.266 N 
HETATM    6  C   UNL     1     -42.122  57.343 -59.776  1.00  0.00     0.249 C 
HETATM    7  O   UNL     1     -42.063  56.189 -60.191  1.00  0.00    -0.270 OA
HETATM    8  H   UNL     1     -42.415  58.620 -58.206  1.00  0.00     0.190 HD
BRANCH   6   9
HETATM    9  C   UNL     1     -42.359  58.557 -60.678  1.00  0.00     0.197 C 
BRANCH   9  10
HETATM   10  N   UNL     1     -42.601  59.752 -59.855  1.00  0.00    -0.282 NA
HETATM   11  H   UNL     1     -42.859  59.551 -58.885  1.00  0.00     0.128 HD
BRANCH  10  12
HETATM   12  C   UNL     1     -41.683  60.820 -59.866  1.00  0.00     0.042 A 
HETATM   13  C   UNL     1     -41.087  61.210 -58.641  1.00  0.00     0.089 A 
HETATM   14  C   UNL     1     -40.212  62.302 -58.591  1.00  0.00     0.038 A 
HETATM   15  C   UNL     1     -39.952  63.046 -59.742  1.00  0.00     0.003 A 
HETATM   16  C   UNL     1     -40.566  62.703 -60.940  1.00  0.00     0.002 A 
HETATM   17  C   UNL     1     -41.433  61.609 -60.998  1.00  0.00     0.026 A 
BRANCH  13  18
HETATM   18  O   UNL     1     -41.401  60.425 -57.554  1.00  0.00    -0.354 OA
HETATM   19  C   UNL     1     -42.295  61.002 -56.609  1.00  0.00     0.210 C 
ENDBRANCH  13  18
ENDBRANCH  10  12
ENDBRANCH   9  10
ENDBRANCH   6   9
ENDBRANCH   1   5
BRANCH   2  20
HETATM   20  C   UNL     1     -42.815  55.857 -55.383  1.00  0.00     0.070 A 
HETATM   21  C   UNL     1     -41.666  55.135 -55.126  1.00  0.00     0.137 A 
HETATM   22  N   UNL     1     -41.927  54.315 -54.049  1.00  0.00    -0.244 N 
HETATM   23  N   UNL     1     -43.180  54.527 -53.565  1.00  0.00    -0.179 NA
HETATM   24  C   UNL     1     -43.705  55.442 -54.376  1.00  0.00     0.157 A 
BRANCH  22  25
HETATM   25  C   UNL     1     -41.083  53.332 -53.463  1.00  0.00     0.059 A 
HETATM   26  C   UNL     1     -40.657  52.213 -54.191  1.00  0.00     0.055 A 
HETATM   27  C   UNL     1     -39.850  51.256 -53.573  1.00  0.00     0.036 A 
HETATM   28 CL   UNL     1     -39.348  49.866 -54.457  1.00  0.00    -0.084 Cl
HETATM   29  C   UNL     1     -39.450  51.405 -52.245  1.00  0.00     0.024 A 
HETATM   30  C   UNL     1     -39.867  52.519 -51.520  1.00  0.00     0.004 A 
HETATM   31  C   UNL     1     -40.684  53.476 -52.123  1.00  0.00     0.031 A 
ENDBRANCH  22  25
ENDBRANCH   2  20
TORSDOF 7
ENDMDL
MODEL 3
REMARK VINA RESULT:      -8.6      6.154      8.469
REMARK  7 active torsions:
REMARK  status: ('A' for Active; 'I' for Inactive)
REMARK    1  A    between atoms: O_2  and  C_3 
REMARK    2  A    between atoms: C_4  and  N_5 
REMARK    3  A    between atoms: N_5  and  C_6 
REMARK    4  A    between atoms: C_6  and  C_7 
REMARK       I    between atoms: C_7  and  N_8 
REMARK    5  A    between atoms: N_8  and  N_9 
REMARK       I    between atoms: N_9  and  C_10 
REMARK    6  A    between atoms: C_10  and  C_11 
REMARK    7  A    between atoms: N_13  and  C_14 
ROOT
HETATM    1  N   UNL     1     -42.049  56.703 -57.368  1.00  0.00    -0.263 N 
HETATM    2  C   UNL     1     -43.110  56.642 -56.475  1.00  0.00     0.273 C 
HETATM    3  O   UNL     1     -44.144  57.295 -56.563  1.00  0.00    -0.266 OA
HETATM    4  H   UNL     1     -41.134  56.416 -57.037  1.00  0.00     0.190 HD
ENDROOT
BRANCH   1   5
HETATM    5  N   UNL     1     -42.044  57.708 -58.348  1.00  0.00    -0.266 N 
HETATM    6  C   UNL     1     -42.226  57.341 -59.679  1.00  0.00     0.249 C 
HETATM    7  O   UNL     1     -42.178  56.189 -60.100  1.00  0.00    -0.270 OA
HETATM    8  H   UNL     1     -42.446  58.611 -58.091  1.00  0.00     0.190 HD
BRANCH   6   9
HETATM    9  C   UNL     1     -42.523  58.555 -60.563  1.00  0.00     0.197 C 
BRANCH   9  10
HETATM   10  N   UNL     1     -43.946  58.566 -60.934  1.00  0.00    -0.282 NA
HETATM   11  H   UNL     1     -44.200  57.886 -61.655  1.00  0.00     0.128 HD
BRANCH  10  12
HETATM   12  C   UNL     1     -44.941  58.557 -59.936  1.00  0.00     0.042 A 
HETATM   13  C   UNL     1     -45.817  57.447 -59.866  1.00  0.00     0.089 A 
HETATM   14  C   UNL     1     -46.857  57.418 -58.929  1.00  0.00     0.038 A 
HETATM   15  C   UNL     1     -47.067  58.504 -58.081  1.00  0.00     0.003 A 
HETATM   16  C   UNL     1     -46.244  59.620 -58.170  1.00  0.00     0.002 A 
HETATM   17  C   UNL     1     -45.199  59.651 -59.097  1.00  0.00     0.026 A 
BRANCH  13  18
HETATM   18  O   UNL     1     -45.542  56.420 -60.742  1.00  0.00    -0.354 OA
HETATM   19  C   UNL     1     -45.444  55.122 -60.167  1.00  0.00     0.210 C 
ENDBRANCH  13  18
ENDBRANCH  10  12
ENDBRANCH   9  10
ENDBRANCH   6   9
ENDBRANCH   1   5
BRANCH   2  20
HETATM   20  C   UNL     1     -42.870  55.712 -55.388  1.00  0.00     0.070 A 
HETATM   21  C   UNL     1     -41.714  54.996 -55.149  1.00  0.00     0.137 A 
HETATM   22  N   UNL     1     -41.930  54.225 -54.029  1.00  0.00    -0.244 N 
HETATM   23  N   UNL     1     -43.161  54.462 -53.501  1.00  0.00    -0.179 NA
HETATM   24  C   UNL     1     -43.718  55.345 -54.328  1.00  0.00     0.157 A 
BRANCH  22  25
HETATM   25  C   UNL     1     -41.065  53.263 -53.438  1.00  0.00     0.059 A 
HETATM   26  C   UNL     1     -40.629  52.140 -54.154  1.00  0.00     0.055 A 
HETATM   27  C   UNL     1     -39.800  51.205 -53.531  1.00  0.00     0.036 A 
HETATM   28 CL   UNL     1     -39.286  49.810 -54.401  1.00  0.00    -0.084 Cl
HETATM   29  C   UNL     1     -39.389  51.380 -52.210  1.00  0.00     0.024 A 
HETATM   30  C   UNL     1     -39.815  52.498 -51.496  1.00  0.00     0.004 A 
HETATM   31  C   UNL     1     -40.654  53.434 -52.104  1.00  0.00     0.031 A 
ENDBRANCH  22  25
ENDBRANCH   2  20
TORSDOF 7
ENDMDL
MODEL 4
REMARK VINA RESULT:      -8.5      6.529      9.054
REMARK  7 active torsions:
REMARK  status: ('A' for Active; 'I' for Inactive)
REMARK    1  A    between atoms: O_2  and  C_3 
REMARK    2  A    between atoms: C_4  and  N_5 
REMARK    3  A    between atoms: N_5  and  C_6 
REMARK    4  A    between atoms: C_6  and  C_7 
REMARK       I    between atoms: C_7  and  N_8 
REMARK    5  A    between atoms: N_8  and  N_9 
REMARK       I    between atoms: N_9  and  C_10 
REMARK    6  A    between atoms: C_10  and  C_11 
REMARK    7  A    between atoms: N_13  and  C_14 
ROOT
HETATM    1  N   UNL     1     -43.556  55.419 -57.557  1.00  0.00    -0.263 N 
HETATM    2  C   UNL     1     -42.999  56.454 -56.819  1.00  0.00     0.273 C 
HETATM    3  O   UNL     1     -43.109  57.646 -57.081  1.00  0.00    -0.266 OA
HETATM    4  H   UNL     1     -43.132  54.500 -57.479  1.00  0.00     0.190 HD
ENDROOT
BRANCH   1   5
HETATM    5  N   UNL     1     -44.135  55.708 -58.802  1.00  0.00    -0.266 N 
HETATM    6  C   UNL     1     -44.623  54.656 -59.570  1.00  0.00     0.249 C 
HETATM    7  O   UNL     1     -44.402  53.468 -59.352  1.00  0.00    -0.270 OA
HETATM    8  H   UNL     1     -44.663  56.579 -58.878  1.00  0.00     0.190 HD
BRANCH   6   9
HETATM    9  C   UNL     1     -45.504  55.156 -60.718  1.00  0.00     0.197 C 
BRANCH   9  10
HETATM   10  N   UNL     1     -46.743  55.738 -60.180  1.00  0.00    -0.282 NA
HETATM   11  H   UNL     1     -46.766  55.813 -59.161  1.00  0.00     0.128 HD
BRANCH  10  12
HETATM   12  C   UNL     1     -47.269  56.923 -60.732  1.00  0.00     0.042 A 
HETATM   13  C   UNL     1     -47.015  58.148 -60.067  1.00  0.00     0.089 A 
HETATM   14  C   UNL     1     -47.563  59.344 -60.543  1.00  0.00     0.038 A 
HETATM   15  C   UNL     1     -48.403  59.337 -61.656  1.00  0.00     0.003 A 
HETATM   16  C   UNL     1     -48.699  58.136 -62.291  1.00  0.00     0.002 A 
HETATM   17  C   UNL     1     -48.148  56.940 -61.825  1.00  0.00     0.026 A 
BRANCH  13  18
HETATM   18  O   UNL     1     -46.179  58.065 -58.974  1.00  0.00    -0.354 OA
HETATM   19  C   UNL     1     -46.820  58.039 -57.703  1.00  0.00     0.210 C 
ENDBRANCH  13  18
ENDBRANCH  10  12
ENDBRANCH   9  10
ENDBRANCH   6   9
ENDBRANCH   1   5
BRANCH   2  20
HETATM   20  C   UNL     1     -42.241  55.979 -55.676  1.00  0.00     0.070 A 
HETATM   21  C   UNL     1     -41.791  54.692 -55.457  1.00  0.00     0.137 A 
HETATM   22  N   UNL     1     -41.138  54.684 -54.244  1.00  0.00    -0.244 N 
HETATM   23  N   UNL     1     -41.097  55.931 -53.702  1.00  0.00    -0.179 NA
HETATM   24  C   UNL     1     -41.769  56.694 -54.561  1.00  0.00     0.157 A 
BRANCH  22  25
HETATM   25  C   UNL     1     -40.572  53.578 -53.553  1.00  0.00     0.059 A 
HETATM   26  C   UNL     1     -40.243  52.392 -54.225  1.00  0.00     0.055 A 
HETATM   27  C   UNL     1     -39.713  51.318 -53.507  1.00  0.00     0.036 A 
HETATM   28 CL   UNL     1     -39.334  49.851 -54.326  1.00  0.00    -0.084 Cl
HETATM   29  C   UNL     1     -39.493  51.414 -52.133  1.00  0.00     0.024 A 
HETATM   30  C   UNL     1     -39.813  52.592 -51.463  1.00  0.00     0.004 A 
HETATM   31  C   UNL     1     -40.355  53.669 -52.168  1.00  0.00     0.031 A 
ENDBRANCH  22  25
ENDBRANCH   2  20
TORSDOF 7
ENDMDL
MODEL 5
REMARK VINA RESULT:      -7.9      5.004      8.119
REMARK  7 active torsions:
REMARK  status: ('A' for Active; 'I' for Inactive)
REMARK    1  A    between atoms: O_2  and  C_3 
REMARK    2  A    between atoms: C_4  and  N_5 
REMARK    3  A    between atoms: N_5  and  C_6 
REMARK    4  A    between atoms: C_6  and  C_7 
REMARK       I    between atoms: C_7  and  N_8 
REMARK    5  A    between atoms: N_8  and  N_9 
REMARK       I    between atoms: N_9  and  C_10 
REMARK    6  A    between atoms: C_10  and  C_11 
REMARK    7  A    between atoms: N_13  and  C_14 
ROOT
HETATM    1  N   UNL     1     -44.151  56.243 -54.837  1.00  0.00    -0.263 N 
HETATM    2  C   UNL     1     -43.755  56.430 -53.520  1.00  0.00     0.273 C 
HETATM    3  O   UNL     1     -44.238  57.251 -52.748  1.00  0.00    -0.266 OA
HETATM    4  H   UNL     1     -43.487  55.817 -55.476  1.00  0.00     0.190 HD
ENDROOT
BRANCH   1   5
HETATM    5  N   UNL     1     -45.033  57.167 -55.418  1.00  0.00    -0.266 N 
HETATM    6  C   UNL     1     -44.501  58.255 -56.104  1.00  0.00     0.249 C 
HETATM    7  O   UNL     1     -43.323  58.598 -56.067  1.00  0.00    -0.270 OA
HETATM    8  H   UNL     1     -45.906  56.800 -55.802  1.00  0.00     0.190 HD
BRANCH   6   9
HETATM    9  C   UNL     1     -45.566  58.967 -56.944  1.00  0.00     0.197 C 
BRANCH   9  10
HETATM   10  N   UNL     1     -45.186  58.933 -58.365  1.00  0.00    -0.282 NA
HETATM   11  H   UNL     1     -44.254  59.305 -58.562  1.00  0.00     0.128 HD
BRANCH  10  12
HETATM   12  C   UNL     1     -45.373  57.759 -59.121  1.00  0.00     0.042 A 
HETATM   13  C   UNL     1     -44.230  57.098 -59.636  1.00  0.00     0.089 A 
HETATM   14  C   UNL     1     -44.367  55.962 -60.441  1.00  0.00     0.038 A 
HETATM   15  C   UNL     1     -45.635  55.491 -60.781  1.00  0.00     0.003 A 
HETATM   16  C   UNL     1     -46.765  56.156 -60.322  1.00  0.00     0.002 A 
HETATM   17  C   UNL     1     -46.635  57.286 -59.511  1.00  0.00     0.026 A 
BRANCH  13  18
HETATM   18  O   UNL     1     -43.018  57.631 -59.256  1.00  0.00    -0.354 OA
HETATM   19  C   UNL     1     -42.078  57.845 -60.303  1.00  0.00     0.210 C 
ENDBRANCH  13  18
ENDBRANCH  10  12
ENDBRANCH   9  10
ENDBRANCH   6   9
ENDBRANCH   1   5
BRANCH   2  20
HETATM   20  C   UNL     1     -42.677  55.541 -53.131  1.00  0.00     0.070 A 
HETATM   21  C   UNL     1     -42.425  54.277 -53.626  1.00  0.00     0.137 A 
HETATM   22  N   UNL     1     -41.320  53.787 -52.965  1.00  0.00    -0.244 N 
HETATM   23  N   UNL     1     -40.814  54.713 -52.106  1.00  0.00    -0.179 NA
HETATM   24  C   UNL     1     -41.639  55.753 -52.206  1.00  0.00     0.157 A 
BRANCH  22  25
HETATM   25  C   UNL     1     -40.725  52.500 -53.072  1.00  0.00     0.059 A 
HETATM   26  C   UNL     1     -40.250  51.823 -51.941  1.00  0.00     0.055 A 
HETATM   27  C   UNL     1     -39.649  50.572 -52.089  1.00  0.00     0.036 A 
HETATM   28 CL   UNL     1     -39.040  49.750 -50.704  1.00  0.00    -0.084 Cl
HETATM   29  C   UNL     1     -39.527  49.980 -53.347  1.00  0.00     0.024 A 
HETATM   30  C   UNL     1     -40.003  50.647 -54.473  1.00  0.00     0.004 A 
HETATM   31  C   UNL     1     -40.595  51.905 -54.338  1.00  0.00     0.031 A 
ENDBRANCH  22  25
ENDBRANCH   2  20
TORSDOF 7
ENDMDL
MODEL 6
REMARK VINA RESULT:      -7.9      5.526      8.222
REMARK  7 active torsions:
REMARK  status: ('A' for Active; 'I' for Inactive)
REMARK    1  A    between atoms: O_2  and  C_3 
REMARK    2  A    between atoms: C_4  and  N_5 
REMARK    3  A    between atoms: N_5  and  C_6 
REMARK    4  A    between atoms: C_6  and  C_7 
REMARK       I    between atoms: C_7  and  N_8 
REMARK    5  A    between atoms: N_8  and  N_9 
REMARK       I    between atoms: N_9  and  C_10 
REMARK    6  A    between atoms: C_10  and  C_11 
REMARK    7  A    between atoms: N_13  and  C_14 
ROOT
HETATM    1  N   UNL     1     -44.808  57.018 -55.553  1.00  0.00    -0.263 N 
HETATM    2  C   UNL     1     -43.460  56.714 -55.690  1.00  0.00     0.273 C 
HETATM    3  O   UNL     1     -42.736  57.110 -56.597  1.00  0.00    -0.266 OA
HETATM    4  H   UNL     1     -45.383  56.386 -55.005  1.00  0.00     0.190 HD
ENDROOT
BRANCH   1   5
HETATM    5  N   UNL     1     -45.468  57.666 -56.609  1.00  0.00    -0.266 N 
HETATM    6  C   UNL     1     -45.577  59.053 -56.574  1.00  0.00     0.249 C 
HETATM    7  O   UNL     1     -45.334  59.751 -55.593  1.00  0.00    -0.270 OA
HETATM    8  H   UNL     1     -45.359  57.266 -57.542  1.00  0.00     0.190 HD
BRANCH   6   9
HETATM    9  C   UNL     1     -46.016  59.619 -57.928  1.00  0.00     0.197 C 
BRANCH   9  10
HETATM   10  N   UNL     1     -45.746  58.638 -58.990  1.00  0.00    -0.282 NA
HETATM   11  H   UNL     1     -46.432  58.638 -59.749  1.00  0.00     0.128 HD
BRANCH  10  12
HETATM   12  C   UNL     1     -44.457  58.530 -59.546  1.00  0.00     0.042 A 
HETATM   13  C   UNL     1     -43.899  57.238 -59.714  1.00  0.00     0.089 A 
HETATM   14  C   UNL     1     -42.599  57.083 -60.209  1.00  0.00     0.038 A 
HETATM   15  C   UNL     1     -41.822  58.202 -60.503  1.00  0.00     0.003 A 
HETATM   16  C   UNL     1     -42.338  59.476 -60.300  1.00  0.00     0.002 A 
HETATM   17  C   UNL     1     -43.638  59.637 -59.814  1.00  0.00     0.026 A 
BRANCH  13  18
HETATM   18  O   UNL     1     -44.733  56.189 -59.395  1.00  0.00    -0.354 OA
HETATM   19  C   UNL     1     -44.213  54.887 -59.641  1.00  0.00     0.210 C 
ENDBRANCH  13  18
ENDBRANCH  10  12
ENDBRANCH   9  10
ENDBRANCH   6   9
ENDBRANCH   1   5
BRANCH   2  20
HETATM   20  C   UNL     1     -42.974  55.850 -54.631  1.00  0.00     0.070 A 
HETATM   21  C   UNL     1     -41.981  54.896 -54.730  1.00  0.00     0.137 A 
HETATM   22  N   UNL     1     -41.858  54.299 -53.494  1.00  0.00    -0.244 N 
HETATM   23  N   UNL     1     -42.693  54.875 -52.587  1.00  0.00    -0.179 NA
HETATM   24  C   UNL     1     -43.362  55.793 -53.281  1.00  0.00     0.157 A 
BRANCH  22  25
HETATM   25  C   UNL     1     -41.025  53.210 -53.118  1.00  0.00     0.059 A 
HETATM   26  C   UNL     1     -40.718  52.184 -54.023  1.00  0.00     0.055 A 
HETATM   27  C   UNL     1     -39.917  51.118 -53.609  1.00  0.00     0.036 A 
HETATM   28 CL   UNL     1     -39.562  49.843 -54.711  1.00  0.00    -0.084 Cl
HETATM   29  C   UNL     1     -39.408  51.066 -52.312  1.00  0.00     0.024 A 
HETATM   30  C   UNL     1     -39.705  52.086 -51.412  1.00  0.00     0.004 A 
HETATM   31  C   UNL     1     -40.515  53.151 -51.810  1.00  0.00     0.031 A 
ENDBRANCH  22  25
ENDBRANCH   2  20
TORSDOF 7
ENDMDL
MODEL 7
REMARK VINA RESULT:      -7.8      6.457      9.011
REMARK  7 active torsions:
REMARK  status: ('A' for Active; 'I' for Inactive)
REMARK    1  A    between atoms: O_2  and  C_3 
REMARK    2  A    between atoms: C_4  and  N_5 
REMARK    3  A    between atoms: N_5  and  C_6 
REMARK    4  A    between atoms: C_6  and  C_7 
REMARK       I    between atoms: C_7  and  N_8 
REMARK    5  A    between atoms: N_8  and  N_9 
REMARK       I    between atoms: N_9  and  C_10 
REMARK    6  A    between atoms: C_10  and  C_11 
REMARK    7  A    between atoms: N_13  and  C_14 
ROOT
HETATM    1  N   UNL     1     -44.198  57.243 -56.545  1.00  0.00    -0.263 N 
HETATM    2  C   UNL     1     -43.346  56.177 -56.796  1.00  0.00     0.273 C 
HETATM    3  O   UNL     1     -42.943  55.842 -57.904  1.00  0.00    -0.266 OA
HETATM    4  H   UNL     1     -44.740  57.225 -55.687  1.00  0.00     0.190 HD
ENDROOT
BRANCH   1   5
HETATM    5  N   UNL     1     -44.813  57.890 -57.628  1.00  0.00    -0.266 N 
HETATM    6  C   UNL     1     -45.521  59.064 -57.389  1.00  0.00     0.249 C 
HETATM    7  O   UNL     1     -45.837  59.476 -56.276  1.00  0.00    -0.270 OA
HETATM    8  H   UNL     1     -44.330  57.853 -58.527  1.00  0.00     0.190 HD
BRANCH   6   9
HETATM    9  C   UNL     1     -45.839  59.807 -58.689  1.00  0.00     0.197 C 
BRANCH   9  10
HETATM   10  N   UNL     1     -45.579  58.930 -59.841  1.00  0.00    -0.282 NA
HETATM   11  H   UNL     1     -44.925  58.167 -59.652  1.00  0.00     0.128 HD
BRANCH  10  12
HETATM   12  C   UNL     1     -46.649  58.428 -60.607  1.00  0.00     0.042 A 
HETATM   13  C   UNL     1     -46.822  57.024 -60.687  1.00  0.00     0.089 A 
HETATM   14  C   UNL     1     -47.836  56.475 -61.481  1.00  0.00     0.038 A 
HETATM   15  C   UNL     1     -48.661  57.306 -62.238  1.00  0.00     0.003 A 
HETATM   16  C   UNL     1     -48.473  58.682 -62.207  1.00  0.00     0.002 A 
HETATM   17  C   UNL     1     -47.469  59.236 -61.409  1.00  0.00     0.026 A 
BRANCH  13  18
HETATM   18  O   UNL     1     -45.963  56.278 -59.911  1.00  0.00    -0.354 OA
HETATM   19  C   UNL     1     -45.224  55.272 -60.596  1.00  0.00     0.210 C 
ENDBRANCH  13  18
ENDBRANCH  10  12
ENDBRANCH   9  10
ENDBRANCH   6   9
ENDBRANCH   1   5
BRANCH   2  20
HETATM   20  C   UNL     1     -42.970  55.468 -55.587  1.00  0.00     0.070 A 
HETATM   21  C   UNL     1     -41.884  54.632 -55.421  1.00  0.00     0.137 A 
HETATM   22  N   UNL     1     -41.922  54.160 -54.127  1.00  0.00    -0.244 N 
HETATM   23  N   UNL     1     -42.957  54.709 -53.436  1.00  0.00    -0.179 NA
HETATM   24  C   UNL     1     -43.582  55.481 -54.322  1.00  0.00     0.157 A 
BRANCH  22  25
HETATM   25  C   UNL     1     -41.064  53.210 -53.507  1.00  0.00     0.059 A 
HETATM   26  C   UNL     1     -40.639  52.062 -54.189  1.00  0.00     0.055 A 
HETATM   27  C   UNL     1     -39.817  51.140 -53.538  1.00  0.00     0.036 A 
HETATM   28 CL   UNL     1     -39.317  49.714 -54.364  1.00  0.00    -0.084 Cl
HETATM   29  C   UNL     1     -39.402  51.352 -52.224  1.00  0.00     0.024 A 
HETATM   30  C   UNL     1     -39.817  52.496 -51.545  1.00  0.00     0.004 A 
HETATM   31  C   UNL     1     -40.649  53.419 -52.181  1.00  0.00     0.031 A 
ENDBRANCH  22  25
ENDBRANCH   2  20
TORSDOF 7
ENDMDL
MODEL 8
REMARK VINA RESULT:      -7.8      6.958     10.782
REMARK  7 active torsions:
REMARK  status: ('A' for Active; 'I' for Inactive)
REMARK    1  A    between atoms: O_2  and  C_3 
REMARK    2  A    between atoms: C_4  and  N_5 
REMARK    3  A    between atoms: N_5  and  C_6 
REMARK    4  A    between atoms: C_6  and  C_7 
REMARK       I    between atoms: C_7  and  N_8 
REMARK    5  A    between atoms: N_8  and  N_9 
REMARK       I    between atoms: N_9  and  C_10 
REMARK    6  A    between atoms: C_10  and  C_11 
REMARK    7  A    between atoms: N_13  and  C_14 
ROOT
HETATM    1  N   UNL     1     -42.082  56.375 -56.944  1.00  0.00    -0.263 N 
HETATM    2  C   UNL     1     -42.911  56.205 -58.044  1.00  0.00     0.273 C 
HETATM    3  O   UNL     1     -43.569  55.199 -58.283  1.00  0.00    -0.266 OA
HETATM    4  H   UNL     1     -41.335  57.059 -57.013  1.00  0.00     0.190 HD
ENDROOT
BRANCH   1   5
HETATM    5  N   UNL     1     -41.807  55.269 -56.124  1.00  0.00    -0.266 N 
HETATM    6  C   UNL     1     -41.938  55.413 -54.746  1.00  0.00     0.249 C 
HETATM    7  O   UNL     1     -42.067  56.486 -54.163  1.00  0.00    -0.270 OA
HETATM    8  H   UNL     1     -42.056  54.348 -56.487  1.00  0.00     0.190 HD
BRANCH   6   9
HETATM    9  C   UNL     1     -41.929  54.057 -54.034  1.00  0.00     0.197 C 
BRANCH   9  10
HETATM   10  N   UNL     1     -40.543  53.610 -53.828  1.00  0.00    -0.282 NA
HETATM   11  H   UNL     1     -39.982  54.231 -53.240  1.00  0.00     0.128 HD
BRANCH  10  12
HETATM   12  C   UNL     1     -40.273  52.276 -53.463  1.00  0.00     0.042 A 
HETATM   13  C   UNL     1     -39.785  52.019 -52.158  1.00  0.00     0.089 A 
HETATM   14  C   UNL     1     -39.449  50.718 -51.767  1.00  0.00     0.038 A 
HETATM   15  C   UNL     1     -39.551  49.664 -52.675  1.00  0.00     0.003 A 
HETATM   16  C   UNL     1     -39.984  49.909 -53.972  1.00  0.00     0.002 A 
HETATM   17  C   UNL     1     -40.330  51.204 -54.365  1.00  0.00     0.026 A 
BRANCH  13  18
HETATM   18  O   UNL     1     -39.711  53.116 -51.328  1.00  0.00    -0.354 OA
HETATM   19  C   UNL     1     -40.562  53.091 -50.188  1.00  0.00     0.210 C 
ENDBRANCH  13  18
ENDBRANCH  10  12
ENDBRANCH   9  10
ENDBRANCH   6   9
ENDBRANCH   1   5
BRANCH   2  20
HETATM   20  C   UNL     1     -42.919  57.363 -58.919  1.00  0.00     0.070 A 
HETATM   21  C   UNL     1     -41.992  58.386 -58.948  1.00  0.00     0.137 A 
HETATM   22  N   UNL     1     -42.398  59.282 -59.913  1.00  0.00    -0.244 N 
HETATM   23  N   UNL     1     -43.517  58.843 -60.549  1.00  0.00    -0.179 NA
HETATM   24  C   UNL     1     -43.825  57.701 -59.939  1.00  0.00     0.157 A 
BRANCH  22  25
HETATM   25  C   UNL     1     -41.814  60.532 -60.258  1.00  0.00     0.059 A 
HETATM   26  C   UNL     1     -41.313  61.396 -59.275  1.00  0.00     0.055 A 
HETATM   27  C   UNL     1     -40.771  62.627 -59.652  1.00  0.00     0.036 A 
HETATM   28 CL   UNL     1     -40.179  63.702 -58.443  1.00  0.00    -0.084 Cl
HETATM   29  C   UNL     1     -40.710  63.002 -60.993  1.00  0.00     0.024 A 
HETATM   30  C   UNL     1     -41.202  62.144 -61.974  1.00  0.00     0.004 A 
HETATM   31  C   UNL     1     -41.758  60.916 -61.609  1.00  0.00     0.031 A 
ENDBRANCH  22  25
ENDBRANCH   2  20
TORSDOF 7
ENDMDL
MODEL 9
REMARK VINA RESULT:      -7.4      6.311      9.077
REMARK  7 active torsions:
REMARK  status: ('A' for Active; 'I' for Inactive)
REMARK    1  A    between atoms: O_2  and  C_3 
REMARK    2  A    between atoms: C_4  and  N_5 
REMARK    3  A    between atoms: N_5  and  C_6 
REMARK    4  A    between atoms: C_6  and  C_7 
REMARK       I    between atoms: C_7  and  N_8 
REMARK    5  A    between atoms: N_8  and  N_9 
REMARK       I    between atoms: N_9  and  C_10 
REMARK    6  A    between atoms: C_10  and  C_11 
REMARK    7  A    between atoms: N_13  and  C_14 
ROOT
HETATM    1  N   UNL     1     -41.790  57.750 -57.254  1.00  0.00    -0.263 N 
HETATM    2  C   UNL     1     -42.634  56.899 -56.553  1.00  0.00     0.273 C 
HETATM    3  O   UNL     1     -43.812  56.695 -56.823  1.00  0.00    -0.266 OA
HETATM    4  H   UNL     1     -40.978  58.117 -56.768  1.00  0.00     0.190 HD
ENDROOT
BRANCH   1   5
HETATM    5  N   UNL     1     -42.338  58.595 -58.231  1.00  0.00    -0.266 N 
HETATM    6  C   UNL     1     -42.354  58.162 -59.553  1.00  0.00     0.249 C 
HETATM    7  O   UNL     1     -41.737  57.190 -59.979  1.00  0.00    -0.270 OA
HETATM    8  H   UNL     1     -43.136  59.170 -57.955  1.00  0.00     0.190 HD
BRANCH   6   9
HETATM    9  C   UNL     1     -43.265  59.035 -60.422  1.00  0.00     0.197 C 
BRANCH   9  10
HETATM   10  N   UNL     1     -44.613  59.086 -59.836  1.00  0.00    -0.282 NA
HETATM   11  H   UNL     1     -44.993  60.030 -59.735  1.00  0.00     0.128 HD
BRANCH  10  12
HETATM   12  C   UNL     1     -45.630  58.239 -60.320  1.00  0.00     0.042 A 
HETATM   13  C   UNL     1     -46.753  58.826 -60.954  1.00  0.00     0.089 A 
HETATM   14  C   UNL     1     -47.815  58.032 -61.399  1.00  0.00     0.038 A 
HETATM   15  C   UNL     1     -47.799  56.654 -61.186  1.00  0.00     0.003 A 
HETATM   16  C   UNL     1     -46.726  56.070 -60.523  1.00  0.00     0.002 A 
HETATM   17  C   UNL     1     -45.659  56.857 -60.084  1.00  0.00     0.026 A 
BRANCH  13  18
HETATM   18  O   UNL     1     -46.690  60.192 -61.121  1.00  0.00    -0.354 OA
HETATM   19  C   UNL     1     -47.832  60.924 -60.689  1.00  0.00     0.210 C 
ENDBRANCH  13  18
ENDBRANCH  10  12
ENDBRANCH   9  10
ENDBRANCH   6   9
ENDBRANCH   1   5
BRANCH   2  20
HETATM   20  C   UNL     1     -41.974  56.261 -55.430  1.00  0.00     0.070 A 
HETATM   21  C   UNL     1     -41.585  54.939 -55.339  1.00  0.00     0.137 A 
HETATM   22  N   UNL     1     -41.018  54.761 -54.096  1.00  0.00    -0.244 N 
HETATM   23  N   UNL     1     -40.971  55.933 -53.407  1.00  0.00    -0.179 NA
HETATM   24  C   UNL     1     -41.555  56.820 -54.209  1.00  0.00     0.157 A 
BRANCH  22  25
HETATM   25  C   UNL     1     -40.539  53.558 -53.508  1.00  0.00     0.059 A 
HETATM   26  C   UNL     1     -40.282  52.421 -54.286  1.00  0.00     0.055 A 
HETATM   27  C   UNL     1     -39.838  51.250 -53.668  1.00  0.00     0.036 A 
HETATM   28 CL   UNL     1     -39.547  49.844 -54.619  1.00  0.00    -0.084 Cl
HETATM   29  C   UNL     1     -39.633  51.201 -52.289  1.00  0.00     0.024 A 
HETATM   30  C   UNL     1     -39.882  52.330 -51.513  1.00  0.00     0.004 A 
HETATM   31  C   UNL     1     -40.339  53.503 -52.118  1.00  0.00     0.031 A 
ENDBRANCH  22  25
ENDBRANCH   2  20
TORSDOF 7
ENDMDL
MODEL 10
REMARK VINA RESULT:      -7.4      3.942     10.459
REMARK  7 active torsions:
REMARK  status: ('A' for Active; 'I' for Inactive)
REMARK    1  A    between atoms: O_2  and  C_3 
REMARK    2  A    between atoms: C_4  and  N_5 
REMARK    3  A    between atoms: N_5  and  C_6 
REMARK    4  A    between atoms: C_6  and  C_7 
REMARK       I    between atoms: C_7  and  N_8 
REMARK    5  A    between atoms: N_8  and  N_9 
REMARK       I    between atoms: N_9  and  C_10 
REMARK    6  A    between atoms: C_10  and  C_11 
REMARK    7  A    between atoms: N_13  and  C_14 
ROOT
HETATM    1  N   UNL     1     -41.651  57.023 -50.552  1.00  0.00    -0.263 N 
HETATM    2  C   UNL     1     -42.077  57.634 -51.723  1.00  0.00     0.273 C 
HETATM    3  O   UNL     1     -41.850  57.223 -52.855  1.00  0.00    -0.266 OA
HETATM    4  H   UNL     1     -41.577  57.597 -49.717  1.00  0.00     0.190 HD
ENDROOT
BRANCH   1   5
HETATM    5  N   UNL     1     -40.736  55.962 -50.633  1.00  0.00    -0.266 N 
HETATM    6  C   UNL     1     -40.600  55.114 -49.538  1.00  0.00     0.249 C 
HETATM    7  O   UNL     1     -41.056  55.336 -48.419  1.00  0.00    -0.270 OA
HETATM    8  H   UNL     1     -40.626  55.511 -51.543  1.00  0.00     0.190 HD
BRANCH   6   9
HETATM    9  C   UNL     1     -39.829  53.842 -49.901  1.00  0.00     0.197 C 
BRANCH   9  10
HETATM   10  N   UNL     1     -40.728  52.886 -50.565  1.00  0.00    -0.282 NA
HETATM   11  H   UNL     1     -41.631  53.278 -50.842  1.00  0.00     0.128 HD
BRANCH  10  12
HETATM   12  C   UNL     1     -40.250  52.070 -51.609  1.00  0.00     0.042 A 
HETATM   13  C   UNL     1     -40.303  52.568 -52.934  1.00  0.00     0.089 A 
HETATM   14  C   UNL     1     -39.893  51.774 -54.011  1.00  0.00     0.038 A 
HETATM   15  C   UNL     1     -39.468  50.464 -53.795  1.00  0.00     0.003 A 
HETATM   16  C   UNL     1     -39.456  49.945 -52.505  1.00  0.00     0.002 A 
HETATM   17  C   UNL     1     -39.855  50.736 -51.426  1.00  0.00     0.026 A 
BRANCH  13  18
HETATM   18  O   UNL     1     -40.739  53.869 -53.059  1.00  0.00    -0.354 OA
HETATM   19  C   UNL     1     -40.473  54.496 -54.309  1.00  0.00     0.210 C 
ENDBRANCH  13  18
ENDBRANCH  10  12
ENDBRANCH   9  10
ENDBRANCH   6   9
ENDBRANCH   1   5
BRANCH   2  20
HETATM   20  C   UNL     1     -42.831  58.848 -51.475  1.00  0.00     0.070 A 
HETATM   21  C   UNL     1     -42.470  59.894 -50.650  1.00  0.00     0.137 A 
HETATM   22  N   UNL     1     -43.484  60.826 -50.697  1.00  0.00    -0.244 N 
HETATM   23  N   UNL     1     -44.457  60.446 -51.569  1.00  0.00    -0.179 NA
HETATM   24  C   UNL     1     -44.061  59.258 -52.020  1.00  0.00     0.157 A 
BRANCH  22  25
HETATM   25  C   UNL     1     -43.608  62.035 -49.959  1.00  0.00     0.059 A 
HETATM   26  C   UNL     1     -44.471  62.129 -48.859  1.00  0.00     0.055 A 
HETATM   27  C   UNL     1     -44.585  63.341 -48.175  1.00  0.00     0.036 A 
HETATM   28 CL   UNL     1     -45.666  63.467 -46.840  1.00  0.00    -0.084 Cl
HETATM   29  C   UNL     1     -43.841  64.455 -48.563  1.00  0.00     0.024 A 
HETATM   30  C   UNL     1     -42.978  64.364 -49.652  1.00  0.00     0.004 A 
HETATM   31  C   UNL     1     -42.865  63.161 -50.352  1.00  0.00     0.031 A 
ENDBRANCH  22  25
ENDBRANCH   2  20
TORSDOF 7
ENDMDL
