MODEL 1
REMARK VINA RESULT:      -7.9      0.000      0.000
REMARK  8 active torsions:
REMARK  status: ('A' for Active; 'I' for Inactive)
REMARK    1  A    between atoms: N_3  and  C_4 
REMARK    2  A    between atoms: C_4  and  C_5 
REMARK    3  A    between atoms: C_5  and  O_6 
REMARK    4  A    between atoms: C_11  and  C_12 
REMARK    5  A    between atoms: C_13  and  C_14 
REMARK    6  A    between atoms: C_22  and  C_23 
REMARK       I    between atoms: C_23  and  N_24 
REMARK    7  A    between atoms: N_24  and  C_25 
REMARK    8  A    between atoms: C_26  and  O_27 
ROOT
HETATM    1  C   UNL     1     -44.335  59.273 -54.078  1.00  0.00     0.069 C 
HETATM    2  C   UNL     1     -43.002  58.655 -53.733  1.00  0.00     0.026 C 
HETATM    3  N   UNL     1     -42.152  59.331 -52.842  1.00  0.00    -0.301 N 
HETATM    4  C   UNL     1     -40.810  58.972 -52.670  1.00  0.00     0.323 C 
HETATM    5  O   UNL     1     -40.000  59.574 -51.968  1.00  0.00    -0.247 OA
HETATM    6  N   UNL     1     -40.374  57.902 -53.390  1.00  0.00    -0.330 N 
HETATM    7  C   UNL     1     -41.239  56.896 -53.944  1.00  0.00     0.161 C 
HETATM    8  C   UNL     1     -42.575  57.490 -54.262  1.00  0.00     0.059 C 
HETATM    9  H   UNL     1     -39.407  57.667 -53.209  1.00  0.00     0.165 HD
ENDROOT
BRANCH   8  10
HETATM   10  C   UNL     1     -43.364  56.772 -55.296  1.00  0.00     0.256 C 
HETATM   11  N   UNL     1     -43.033  57.150 -56.575  1.00  0.00    -0.321 N 
HETATM   12  H   UNL     1     -42.314  57.856 -56.708  1.00  0.00     0.169 HD
HETATM   13  O   UNL     1     -44.201  55.947 -54.951  1.00  0.00    -0.267 OA
BRANCH  11  14
HETATM   14  C   UNL     1     -43.619  56.722 -57.788  1.00  0.00     0.068 A 
HETATM   15  C   UNL     1     -44.623  57.550 -58.336  1.00  0.00     0.095 A 
HETATM   16  C   UNL     1     -45.256  57.178 -59.526  1.00  0.00     0.039 A 
HETATM   17  C   UNL     1     -44.891  55.996 -60.173  1.00  0.00     0.003 A 
HETATM   18  C   UNL     1     -43.897  55.183 -59.635  1.00  0.00     0.002 A 
HETATM   19  C   UNL     1     -43.263  55.543 -58.444  1.00  0.00     0.032 A 
BRANCH  15  20
HETATM   20  O   UNL     1     -44.902  58.690 -57.617  1.00  0.00    -0.354 OA
HETATM   21  C   UNL     1     -46.263  58.918 -57.271  1.00  0.00     0.210 C 
ENDBRANCH  15  20
ENDBRANCH  11  14
ENDBRANCH   8  10
BRANCH   7  22
HETATM   22  C   UNL     1     -41.292  55.694 -52.996  1.00  0.00    -0.016 A 
HETATM   23  C   UNL     1     -40.936  54.387 -53.417  1.00  0.00     0.056 A 
HETATM   24  C   UNL     1     -41.005  53.323 -52.495  1.00  0.00     0.017 A 
HETATM   25  C   UNL     1     -41.399  53.537 -51.175  1.00  0.00     0.001 A 
HETATM   26  C   UNL     1     -41.723  54.818 -50.751  1.00  0.00     0.001 A 
HETATM   27  C   UNL     1     -41.666  55.884 -51.648  1.00  0.00     0.010 A 
BRANCH  23  28
HETATM   28  C   UNL     1     -40.464  54.099 -54.827  1.00  0.00     0.418 C 
HETATM   29  F   UNL     1     -40.063  52.807 -54.981  1.00  0.00    -0.166 F 
HETATM   30  F   UNL     1     -41.415  54.307 -55.779  1.00  0.00    -0.166 F 
HETATM   31  F   UNL     1     -39.402  54.870 -55.185  1.00  0.00    -0.166 F 
ENDBRANCH  23  28
ENDBRANCH   7  22
BRANCH   3  32
HETATM   32  C   UNL     1     -42.616  60.481 -52.051  1.00  0.00     0.160 C 
BRANCH  32  33
HETATM   33  C   UNL     1     -43.207  60.088 -50.689  1.00  0.00     0.187 C 
BRANCH  33  34
HETATM   34  O   UNL     1     -44.590  60.439 -50.608  1.00  0.00    -0.394 OA
HETATM   35  C   UNL     1     -45.424  59.289 -50.572  1.00  0.00     0.201 C 
ENDBRANCH  33  34
ENDBRANCH  32  33
ENDBRANCH   3  32
TORSDOF 8
ENDMDL
MODEL 2
REMARK VINA RESULT:      -7.7      3.410      5.701
REMARK  8 active torsions:
REMARK  status: ('A' for Active; 'I' for Inactive)
REMARK    1  A    between atoms: N_3  and  C_4 
REMARK    2  A    between atoms: C_4  and  C_5 
REMARK    3  A    between atoms: C_5  and  O_6 
REMARK    4  A    between atoms: C_11  and  C_12 
REMARK    5  A    between atoms: C_13  and  C_14 
REMARK    6  A    between atoms: C_22  and  C_23 
REMARK       I    between atoms: C_23  and  N_24 
REMARK    7  A    between atoms: N_24  and  C_25 
REMARK    8  A    between atoms: C_26  and  O_27 
ROOT
HETATM    1  C   UNL     1     -40.904  52.994 -53.547  1.00  0.00     0.069 C 
HETATM    2  C   UNL     1     -41.448  53.833 -52.416  1.00  0.00     0.026 C 
HETATM    3  N   UNL     1     -41.007  53.576 -51.108  1.00  0.00    -0.301 N 
HETATM    4  C   UNL     1     -41.641  54.117 -49.984  1.00  0.00     0.323 C 
HETATM    5  O   UNL     1     -41.351  53.864 -48.816  1.00  0.00    -0.247 OA
HETATM    6  N   UNL     1     -42.697  54.941 -50.224  1.00  0.00    -0.330 N 
HETATM    7  C   UNL     1     -42.925  55.616 -51.474  1.00  0.00     0.161 C 
HETATM    8  C   UNL     1     -42.362  54.808 -52.600  1.00  0.00     0.059 C 
HETATM    9  H   UNL     1     -43.101  55.327 -49.382  1.00  0.00     0.165 HD
ENDROOT
BRANCH   8  10
HETATM   10  C   UNL     1     -42.963  55.066 -53.935  1.00  0.00     0.256 C 
HETATM   11  N   UNL     1     -42.195  55.900 -54.711  1.00  0.00    -0.321 N 
HETATM   12  H   UNL     1     -41.323  56.260 -54.332  1.00  0.00     0.169 HD
HETATM   13  O   UNL     1     -44.033  54.546 -54.225  1.00  0.00    -0.267 OA
BRANCH  11  14
HETATM   14  C   UNL     1     -42.487  56.403 -55.999  1.00  0.00     0.068 A 
HETATM   15  C   UNL     1     -42.432  57.804 -56.163  1.00  0.00     0.095 A 
HETATM   16  C   UNL     1     -42.726  58.370 -57.407  1.00  0.00     0.039 A 
HETATM   17  C   UNL     1     -43.065  57.551 -58.486  1.00  0.00     0.003 A 
HETATM   18  C   UNL     1     -43.113  56.168 -58.326  1.00  0.00     0.002 A 
HETATM   19  C   UNL     1     -42.827  55.595 -57.086  1.00  0.00     0.032 A 
BRANCH  15  20
HETATM   20  O   UNL     1     -42.087  58.515 -55.036  1.00  0.00    -0.354 OA
HETATM   21  C   UNL     1     -42.077  59.933 -55.144  1.00  0.00     0.210 C 
ENDBRANCH  15  20
ENDBRANCH  11  14
ENDBRANCH   8  10
BRANCH   7  22
HETATM   22  C   UNL     1     -42.378  57.044 -51.387  1.00  0.00    -0.016 A 
HETATM   23  C   UNL     1     -43.187  58.178 -51.658  1.00  0.00     0.056 A 
HETATM   24  C   UNL     1     -42.624  59.465 -51.560  1.00  0.00     0.017 A 
HETATM   25  C   UNL     1     -41.294  59.644 -51.183  1.00  0.00     0.001 A 
HETATM   26  C   UNL     1     -40.505  58.540 -50.892  1.00  0.00     0.001 A 
HETATM   27  C   UNL     1     -41.041  57.256 -50.988  1.00  0.00     0.010 A 
BRANCH  23  28
HETATM   28  C   UNL     1     -44.648  58.049 -52.034  1.00  0.00     0.418 C 
HETATM   29  F   UNL     1     -45.275  59.256 -52.084  1.00  0.00    -0.166 F 
HETATM   30  F   UNL     1     -44.856  57.475 -53.252  1.00  0.00    -0.166 F 
HETATM   31  F   UNL     1     -45.348  57.295 -51.143  1.00  0.00    -0.166 F 
ENDBRANCH  23  28
ENDBRANCH   7  22
BRANCH   3  32
HETATM   32  C   UNL     1     -39.860  52.695 -50.837  1.00  0.00     0.160 C 
BRANCH  32  33
HETATM   33  C   UNL     1     -40.259  51.235 -50.573  1.00  0.00     0.187 C 
BRANCH  33  34
HETATM   34  O   UNL     1     -39.255  50.335 -51.045  1.00  0.00    -0.394 OA
HETATM   35  C   UNL     1     -39.651  49.688 -52.247  1.00  0.00     0.201 C 
ENDBRANCH  33  34
ENDBRANCH  32  33
ENDBRANCH   3  32
TORSDOF 8
ENDMDL
MODEL 3
REMARK VINA RESULT:      -7.4      2.434      5.797
REMARK  8 active torsions:
REMARK  status: ('A' for Active; 'I' for Inactive)
REMARK    1  A    between atoms: N_3  and  C_4 
REMARK    2  A    between atoms: C_4  and  C_5 
REMARK    3  A    between atoms: C_5  and  O_6 
REMARK    4  A    between atoms: C_11  and  C_12 
REMARK    5  A    between atoms: C_13  and  C_14 
REMARK    6  A    between atoms: C_22  and  C_23 
REMARK       I    between atoms: C_23  and  N_24 
REMARK    7  A    between atoms: N_24  and  C_25 
REMARK    8  A    between atoms: C_26  and  O_27 
ROOT
HETATM    1  C   UNL     1     -40.967  57.443 -51.154  1.00  0.00     0.069 C 
HETATM    2  C   UNL     1     -42.191  57.471 -52.038  1.00  0.00     0.026 C 
HETATM    3  N   UNL     1     -43.235  58.355 -51.722  1.00  0.00    -0.301 N 
HETATM    4  C   UNL     1     -44.498  58.266 -52.319  1.00  0.00     0.323 C 
HETATM    5  O   UNL     1     -45.470  58.958 -52.027  1.00  0.00    -0.247 OA
HETATM    6  N   UNL     1     -44.655  57.292 -53.257  1.00  0.00    -0.330 N 
HETATM    7  C   UNL     1     -43.567  56.669 -53.963  1.00  0.00     0.161 C 
HETATM    8  C   UNL     1     -42.340  56.664 -53.108  1.00  0.00     0.059 C 
HETATM    9  H   UNL     1     -45.574  57.288 -53.678  1.00  0.00     0.165 HD
ENDROOT
BRANCH   8  10
HETATM   10  C   UNL     1     -41.332  55.624 -53.442  1.00  0.00     0.256 C 
HETATM   11  N   UNL     1     -41.695  54.373 -53.005  1.00  0.00    -0.321 N 
HETATM   12  H   UNL     1     -42.576  54.261 -52.510  1.00  0.00     0.169 HD
HETATM   13  O   UNL     1     -40.315  55.941 -54.046  1.00  0.00    -0.267 OA
BRANCH  11  14
HETATM   14  C   UNL     1     -40.956  53.171 -53.094  1.00  0.00     0.068 A 
HETATM   15  C   UNL     1     -40.157  52.831 -51.980  1.00  0.00     0.095 A 
HETATM   16  C   UNL     1     -39.387  51.665 -52.008  1.00  0.00     0.039 A 
HETATM   17  C   UNL     1     -39.414  50.836 -53.131  1.00  0.00     0.003 A 
HETATM   18  C   UNL     1     -40.205  51.168 -54.227  1.00  0.00     0.002 A 
HETATM   19  C   UNL     1     -40.973  52.334 -54.211  1.00  0.00     0.032 A 
BRANCH  15  20
HETATM   20  O   UNL     1     -40.207  53.718 -50.928  1.00  0.00    -0.354 OA
HETATM   21  C   UNL     1     -40.433  53.173 -49.634  1.00  0.00     0.210 C 
ENDBRANCH  15  20
ENDBRANCH  11  14
ENDBRANCH   8  10
BRANCH   7  22
HETATM   22  C   UNL     1     -43.387  57.353 -55.322  1.00  0.00    -0.016 A 
HETATM   23  C   UNL     1     -43.130  56.617 -56.507  1.00  0.00     0.056 A 
HETATM   24  C   UNL     1     -42.975  57.305 -57.727  1.00  0.00     0.017 A 
HETATM   25  C   UNL     1     -43.088  58.693 -57.791  1.00  0.00     0.001 A 
HETATM   26  C   UNL     1     -43.365  59.416 -56.639  1.00  0.00     0.001 A 
HETATM   27  C   UNL     1     -43.517  58.755 -55.421  1.00  0.00     0.010 A 
BRANCH  23  28
HETATM   28  C   UNL     1     -43.035  55.105 -56.508  1.00  0.00     0.418 C 
HETATM   29  F   UNL     1     -41.752  54.670 -56.372  1.00  0.00    -0.166 F 
HETATM   30  F   UNL     1     -43.735  54.509 -55.502  1.00  0.00    -0.166 F 
HETATM   31  F   UNL     1     -43.501  54.557 -57.662  1.00  0.00    -0.166 F 
ENDBRANCH  23  28
ENDBRANCH   7  22
BRANCH   3  32
HETATM   32  C   UNL     1     -43.073  59.418 -50.719  1.00  0.00     0.160 C 
BRANCH  32  33
HETATM   33  C   UNL     1     -42.617  60.758 -51.315  1.00  0.00     0.187 C 
BRANCH  33  34
HETATM   34  O   UNL     1     -43.497  61.817 -50.934  1.00  0.00    -0.394 OA
HETATM   35  C   UNL     1     -44.212  61.506 -49.746  1.00  0.00     0.201 C 
ENDBRANCH  33  34
ENDBRANCH  32  33
ENDBRANCH   3  32
TORSDOF 8
ENDMDL
MODEL 4
REMARK VINA RESULT:      -6.9      3.242      5.514
REMARK  8 active torsions:
REMARK  status: ('A' for Active; 'I' for Inactive)
REMARK    1  A    between atoms: N_3  and  C_4 
REMARK    2  A    between atoms: C_4  and  C_5 
REMARK    3  A    between atoms: C_5  and  O_6 
REMARK    4  A    between atoms: C_11  and  C_12 
REMARK    5  A    between atoms: C_13  and  C_14 
REMARK    6  A    between atoms: C_22  and  C_23 
REMARK       I    between atoms: C_23  and  N_24 
REMARK    7  A    between atoms: N_24  and  C_25 
REMARK    8  A    between atoms: C_26  and  O_27 
ROOT
HETATM    1  C   UNL     1     -41.636  54.798 -55.747  1.00  0.00     0.069 C 
HETATM    2  C   UNL     1     -42.335  55.262 -54.492  1.00  0.00     0.026 C 
HETATM    3  N   UNL     1     -42.387  54.398 -53.385  1.00  0.00    -0.301 N 
HETATM    4  C   UNL     1     -43.226  54.634 -52.290  1.00  0.00     0.323 C 
HETATM    5  O   UNL     1     -43.373  53.875 -51.334  1.00  0.00    -0.247 OA
HETATM    6  N   UNL     1     -43.972  55.772 -52.335  1.00  0.00    -0.330 N 
HETATM    7  C   UNL     1     -43.660  56.909 -53.158  1.00  0.00     0.161 C 
HETATM    8  C   UNL     1     -42.938  56.464 -54.391  1.00  0.00     0.059 C 
HETATM    9  H   UNL     1     -44.539  55.909 -51.509  1.00  0.00     0.165 HD
ENDROOT
BRANCH   8  10
HETATM   10  C   UNL     1     -43.026  57.388 -55.551  1.00  0.00     0.256 C 
HETATM   11  N   UNL     1     -44.119  57.141 -56.346  1.00  0.00    -0.321 N 
HETATM   12  H   UNL     1     -44.749  56.383 -56.094  1.00  0.00     0.169 HD
HETATM   13  O   UNL     1     -42.169  58.250 -55.703  1.00  0.00    -0.267 OA
BRANCH  11  14
HETATM   14  C   UNL     1     -44.478  57.779 -57.555  1.00  0.00     0.068 A 
HETATM   15  C   UNL     1     -44.274  57.047 -58.746  1.00  0.00     0.095 A 
HETATM   16  C   UNL     1     -44.592  57.625 -59.979  1.00  0.00     0.039 A 
HETATM   17  C   UNL     1     -45.117  58.918 -60.031  1.00  0.00     0.003 A 
HETATM   18  C   UNL     1     -45.324  59.637 -58.856  1.00  0.00     0.002 A 
HETATM   19  C   UNL     1     -45.004  59.070 -57.621  1.00  0.00     0.032 A 
BRANCH  15  20
HETATM   20  O   UNL     1     -43.753  55.785 -58.578  1.00  0.00    -0.354 OA
HETATM   21  C   UNL     1     -44.153  54.791 -59.514  1.00  0.00     0.210 C 
ENDBRANCH  15  20
ENDBRANCH  11  14
ENDBRANCH   8  10
BRANCH   7  22
HETATM   22  C   UNL     1     -42.903  57.947 -52.323  1.00  0.00    -0.016 A 
HETATM   23  C   UNL     1     -43.567  59.015 -51.668  1.00  0.00     0.056 A 
HETATM   24  C   UNL     1     -42.814  59.937 -50.914  1.00  0.00     0.017 A 
HETATM   25  C   UNL     1     -41.432  59.806 -50.787  1.00  0.00     0.001 A 
HETATM   26  C   UNL     1     -40.780  58.748 -51.405  1.00  0.00     0.001 A 
HETATM   27  C   UNL     1     -41.506  57.827 -52.160  1.00  0.00     0.010 A 
BRANCH  23  28
HETATM   28  C   UNL     1     -45.071  59.187 -51.736  1.00  0.00     0.418 C 
HETATM   29  F   UNL     1     -45.486  60.334 -51.130  1.00  0.00    -0.166 F 
HETATM   30  F   UNL     1     -45.561  59.243 -53.006  1.00  0.00    -0.166 F 
HETATM   31  F   UNL     1     -45.737  58.172 -51.124  1.00  0.00    -0.166 F 
ENDBRANCH  23  28
ENDBRANCH   7  22
BRANCH   3  32
HETATM   32  C   UNL     1     -41.577  53.172 -53.322  1.00  0.00     0.160 C 
BRANCH  32  33
HETATM   33  C   UNL     1     -40.272  53.340 -52.529  1.00  0.00     0.187 C 
BRANCH  33  34
HETATM   34  O   UNL     1     -39.685  52.073 -52.230  1.00  0.00    -0.394 OA
HETATM   35  C   UNL     1     -39.468  51.303 -53.405  1.00  0.00     0.201 C 
ENDBRANCH  33  34
ENDBRANCH  32  33
ENDBRANCH   3  32
TORSDOF 8
ENDMDL
MODEL 5
REMARK VINA RESULT:      -6.9      3.302      5.201
REMARK  8 active torsions:
REMARK  status: ('A' for Active; 'I' for Inactive)
REMARK    1  A    between atoms: N_3  and  C_4 
REMARK    2  A    between atoms: C_4  and  C_5 
REMARK    3  A    between atoms: C_5  and  O_6 
REMARK    4  A    between atoms: C_11  and  C_12 
REMARK    5  A    between atoms: C_13  and  C_14 
REMARK    6  A    between atoms: C_22  and  C_23 
REMARK       I    between atoms: C_23  and  N_24 
REMARK    7  A    between atoms: N_24  and  C_25 
REMARK    8  A    between atoms: C_26  and  O_27 
ROOT
HETATM    1  C   UNL     1     -41.159  54.392 -54.069  1.00  0.00     0.069 C 
HETATM    2  C   UNL     1     -42.060  55.089 -53.078  1.00  0.00     0.026 C 
HETATM    3  N   UNL     1     -42.281  54.491 -51.826  1.00  0.00    -0.301 N 
HETATM    4  C   UNL     1     -43.290  54.923 -50.958  1.00  0.00     0.323 C 
HETATM    5  O   UNL     1     -43.581  54.390 -49.890  1.00  0.00    -0.247 OA
HETATM    6  N   UNL     1     -44.033  55.984 -51.376  1.00  0.00    -0.330 N 
HETATM    7  C   UNL     1     -43.605  56.923 -52.378  1.00  0.00     0.161 C 
HETATM    8  C   UNL     1     -42.687  56.252 -53.349  1.00  0.00     0.059 C 
HETATM    9  H   UNL     1     -44.729  56.274 -50.703  1.00  0.00     0.165 HD
ENDROOT
BRANCH   8  10
HETATM   10  C   UNL     1     -42.596  56.889 -54.689  1.00  0.00     0.256 C 
HETATM   11  N   UNL     1     -43.477  56.349 -55.594  1.00  0.00    -0.321 N 
HETATM   12  H   UNL     1     -44.089  55.595 -55.295  1.00  0.00     0.169 HD
HETATM   13  O   UNL     1     -41.790  57.792 -54.873  1.00  0.00    -0.267 OA
BRANCH  11  14
HETATM   14  C   UNL     1     -43.619  56.667 -56.964  1.00  0.00     0.068 A 
HETATM   15  C   UNL     1     -44.471  57.747 -57.282  1.00  0.00     0.095 A 
HETATM   16  C   UNL     1     -44.671  58.104 -58.619  1.00  0.00     0.039 A 
HETATM   17  C   UNL     1     -44.024  57.399 -59.635  1.00  0.00     0.003 A 
HETATM   18  C   UNL     1     -43.179  56.337 -59.322  1.00  0.00     0.002 A 
HETATM   19  C   UNL     1     -42.978  55.969 -57.990  1.00  0.00     0.032 A 
BRANCH  15  20
HETATM   20  O   UNL     1     -45.055  58.371 -56.203  1.00  0.00    -0.354 OA
HETATM   21  C   UNL     1     -44.963  59.790 -56.150  1.00  0.00     0.210 C 
ENDBRANCH  15  20
ENDBRANCH  11  14
ENDBRANCH   8  10
BRANCH   7  22
HETATM   22  C   UNL     1     -43.008  58.157 -51.694  1.00  0.00    -0.016 A 
HETATM   23  C   UNL     1     -43.791  59.299 -51.385  1.00  0.00     0.056 A 
HETATM   24  C   UNL     1     -43.182  60.403 -50.755  1.00  0.00     0.017 A 
HETATM   25  C   UNL     1     -41.831  60.383 -50.413  1.00  0.00     0.001 A 
HETATM   26  C   UNL     1     -41.066  59.257 -50.689  1.00  0.00     0.001 A 
HETATM   27  C   UNL     1     -41.648  58.157 -51.317  1.00  0.00     0.010 A 
BRANCH  23  28
HETATM   28  C   UNL     1     -45.272  59.365 -51.696  1.00  0.00     0.418 C 
HETATM   29  F   UNL     1     -45.534  59.110 -53.008  1.00  0.00    -0.166 F 
HETATM   30  F   UNL     1     -46.023  58.475 -50.991  1.00  0.00    -0.166 F 
HETATM   31  F   UNL     1     -45.803  60.590 -51.435  1.00  0.00    -0.166 F 
ENDBRANCH  23  28
ENDBRANCH   7  22
BRANCH   3  32
HETATM   32  C   UNL     1     -41.477  53.351 -51.360  1.00  0.00     0.160 C 
BRANCH  32  33
HETATM   33  C   UNL     1     -40.268  53.763 -50.506  1.00  0.00     0.187 C 
BRANCH  33  34
HETATM   34  O   UNL     1     -40.337  53.183 -49.202  1.00  0.00    -0.394 OA
HETATM   35  C   UNL     1     -40.461  54.174 -48.191  1.00  0.00     0.201 C 
ENDBRANCH  33  34
ENDBRANCH  32  33
ENDBRANCH   3  32
TORSDOF 8
ENDMDL
MODEL 6
REMARK VINA RESULT:      -6.5      3.269      5.756
REMARK  8 active torsions:
REMARK  status: ('A' for Active; 'I' for Inactive)
REMARK    1  A    between atoms: N_3  and  C_4 
REMARK    2  A    between atoms: C_4  and  C_5 
REMARK    3  A    between atoms: C_5  and  O_6 
REMARK    4  A    between atoms: C_11  and  C_12 
REMARK    5  A    between atoms: C_13  and  C_14 
REMARK    6  A    between atoms: C_22  and  C_23 
REMARK       I    between atoms: C_23  and  N_24 
REMARK    7  A    between atoms: N_24  and  C_25 
REMARK    8  A    between atoms: C_26  and  O_27 
ROOT
HETATM    1  C   UNL     1     -41.226  53.668 -54.695  1.00  0.00     0.069 C 
HETATM    2  C   UNL     1     -41.510  54.187 -53.307  1.00  0.00     0.026 C 
HETATM    3  N   UNL     1     -40.745  53.704 -52.232  1.00  0.00    -0.301 N 
HETATM    4  C   UNL     1     -41.103  53.926 -50.898  1.00  0.00     0.323 C 
HETATM    5  O   UNL     1     -40.520  53.462 -49.921  1.00  0.00    -0.247 OA
HETATM    6  N   UNL     1     -42.223  54.671 -50.690  1.00  0.00    -0.330 N 
HETATM    7  C   UNL     1     -42.787  55.569 -51.662  1.00  0.00     0.161 C 
HETATM    8  C   UNL     1     -42.485  55.081 -53.043  1.00  0.00     0.059 C 
HETATM    9  H   UNL     1     -42.423  54.826 -49.711  1.00  0.00     0.165 HD
ENDROOT
BRANCH   8  10
HETATM   10  C   UNL     1     -43.411  55.554 -54.105  1.00  0.00     0.256 C 
HETATM   11  N   UNL     1     -43.057  56.782 -54.610  1.00  0.00    -0.321 N 
HETATM   12  H   UNL     1     -42.234  57.248 -54.237  1.00  0.00     0.169 HD
HETATM   13  O   UNL     1     -44.363  54.856 -54.430  1.00  0.00    -0.267 OA
BRANCH  11  14
HETATM   14  C   UNL     1     -43.738  57.554 -55.578  1.00  0.00     0.068 A 
HETATM   15  C   UNL     1     -43.596  57.156 -56.926  1.00  0.00     0.095 A 
HETATM   16  C   UNL     1     -44.230  57.886 -57.936  1.00  0.00     0.039 A 
HETATM   17  C   UNL     1     -45.007  59.000 -57.612  1.00  0.00     0.003 A 
HETATM   18  C   UNL     1     -45.151  59.389 -56.283  1.00  0.00     0.002 A 
HETATM   19  C   UNL     1     -44.518  58.670 -55.268  1.00  0.00     0.032 A 
BRANCH  15  20
HETATM   20  O   UNL     1     -42.810  56.045 -57.130  1.00  0.00    -0.354 OA
HETATM   21  C   UNL     1     -43.016  55.322 -58.338  1.00  0.00     0.210 C 
ENDBRANCH  15  20
ENDBRANCH  11  14
ENDBRANCH   8  10
BRANCH   7  22
HETATM   22  C   UNL     1     -42.303  56.994 -51.377  1.00  0.00    -0.016 A 
HETATM   23  C   UNL     1     -43.205  58.067 -51.158  1.00  0.00     0.056 A 
HETATM   24  C   UNL     1     -42.697  59.355 -50.900  1.00  0.00     0.017 A 
HETATM   25  C   UNL     1     -41.324  59.589 -50.837  1.00  0.00     0.001 A 
HETATM   26  C   UNL     1     -40.436  58.538 -51.024  1.00  0.00     0.001 A 
HETATM   27  C   UNL     1     -40.918  57.257 -51.286  1.00  0.00     0.010 A 
BRANCH  23  28
HETATM   28  C   UNL     1     -44.707  57.867 -51.176  1.00  0.00     0.418 C 
HETATM   29  F   UNL     1     -45.087  56.758 -50.483  1.00  0.00    -0.166 F 
HETATM   30  F   UNL     1     -45.406  58.900 -50.629  1.00  0.00    -0.166 F 
HETATM   31  F   UNL     1     -45.194  57.712 -52.436  1.00  0.00    -0.166 F 
ENDBRANCH  23  28
ENDBRANCH   7  22
BRANCH   3  32
HETATM   32  C   UNL     1     -39.527  52.907 -52.446  1.00  0.00     0.160 C 
BRANCH  32  33
HETATM   33  C   UNL     1     -39.790  51.395 -52.520  1.00  0.00     0.187 C 
BRANCH  33  34
HETATM   34  O   UNL     1     -39.248  50.837 -53.718  1.00  0.00    -0.394 OA
HETATM   35  C   UNL     1     -40.171  49.966 -54.357  1.00  0.00     0.201 C 
ENDBRANCH  33  34
ENDBRANCH  32  33
ENDBRANCH   3  32
TORSDOF 8
ENDMDL
MODEL 7
REMARK VINA RESULT:      -6.5      2.809      7.012
REMARK  8 active torsions:
REMARK  status: ('A' for Active; 'I' for Inactive)
REMARK    1  A    between atoms: N_3  and  C_4 
REMARK    2  A    between atoms: C_4  and  C_5 
REMARK    3  A    between atoms: C_5  and  O_6 
REMARK    4  A    between atoms: C_11  and  C_12 
REMARK    5  A    between atoms: C_13  and  C_14 
REMARK    6  A    between atoms: C_22  and  C_23 
REMARK       I    between atoms: C_23  and  N_24 
REMARK    7  A    between atoms: N_24  and  C_25 
REMARK    8  A    between atoms: C_26  and  O_27 
ROOT
HETATM    1  C   UNL     1     -43.237  54.397 -52.105  1.00  0.00     0.069 C 
HETATM    2  C   UNL     1     -42.472  54.948 -53.284  1.00  0.00     0.026 C 
HETATM    3  N   UNL     1     -41.451  54.168 -53.853  1.00  0.00    -0.301 N 
HETATM    4  C   UNL     1     -40.528  54.693 -54.764  1.00  0.00     0.323 C 
HETATM    5  O   UNL     1     -39.569  54.083 -55.232  1.00  0.00    -0.247 OA
HETATM    6  N   UNL     1     -40.691  56.001 -55.103  1.00  0.00    -0.330 N 
HETATM    7  C   UNL     1     -41.924  56.726 -54.952  1.00  0.00     0.161 C 
HETATM    8  C   UNL     1     -42.706  56.169 -53.805  1.00  0.00     0.059 C 
HETATM    9  H   UNL     1     -40.017  56.324 -55.784  1.00  0.00     0.165 HD
ENDROOT
BRANCH   8  10
HETATM   10  C   UNL     1     -43.689  57.099 -53.190  1.00  0.00     0.256 C 
HETATM   11  N   UNL     1     -43.129  57.906 -52.229  1.00  0.00    -0.321 N 
HETATM   12  H   UNL     1     -42.138  57.809 -52.022  1.00  0.00     0.169 HD
HETATM   13  O   UNL     1     -44.855  57.077 -53.563  1.00  0.00    -0.267 OA
BRANCH  11  14
HETATM   14  C   UNL     1     -43.775  58.856 -51.406  1.00  0.00     0.068 A 
HETATM   15  C   UNL     1     -42.992  59.937 -50.946  1.00  0.00     0.095 A 
HETATM   16  C   UNL     1     -43.564  60.904 -50.114  1.00  0.00     0.039 A 
HETATM   17  C   UNL     1     -44.906  60.804 -49.745  1.00  0.00     0.003 A 
HETATM   18  C   UNL     1     -45.680  59.740 -50.203  1.00  0.00     0.002 A 
HETATM   19  C   UNL     1     -45.117  58.767 -51.029  1.00  0.00     0.032 A 
BRANCH  15  20
HETATM   20  O   UNL     1     -41.683  59.938 -51.372  1.00  0.00    -0.354 OA
HETATM   21  C   UNL     1     -40.682  59.733 -50.382  1.00  0.00     0.210 C 
ENDBRANCH  15  20
ENDBRANCH  11  14
ENDBRANCH   8  10
BRANCH   7  22
HETATM   22  C   UNL     1     -42.676  56.730 -56.286  1.00  0.00    -0.016 A 
HETATM   23  C   UNL     1     -43.148  57.929 -56.881  1.00  0.00     0.056 A 
HETATM   24  C   UNL     1     -43.833  57.865 -58.110  1.00  0.00     0.017 A 
HETATM   25  C   UNL     1     -44.038  56.649 -58.760  1.00  0.00     0.001 A 
HETATM   26  C   UNL     1     -43.556  55.476 -58.195  1.00  0.00     0.001 A 
HETATM   27  C   UNL     1     -42.880  55.516 -56.977  1.00  0.00     0.010 A 
BRANCH  23  28
HETATM   28  C   UNL     1     -42.921  59.284 -56.243  1.00  0.00     0.418 C 
HETATM   29  F   UNL     1     -41.659  59.415 -55.749  1.00  0.00    -0.166 F 
HETATM   30  F   UNL     1     -43.094  60.331 -57.097  1.00  0.00    -0.166 F 
HETATM   31  F   UNL     1     -43.763  59.512 -55.199  1.00  0.00    -0.166 F 
ENDBRANCH  23  28
ENDBRANCH   7  22
BRANCH   3  32
HETATM   32  C   UNL     1     -41.273  52.751 -53.503  1.00  0.00     0.160 C 
BRANCH  32  33
HETATM   33  C   UNL     1     -40.231  52.519 -52.397  1.00  0.00     0.187 C 
BRANCH  33  34
HETATM   34  O   UNL     1     -39.585  51.255 -52.556  1.00  0.00    -0.394 OA
HETATM   35  C   UNL     1     -39.681  50.779 -53.892  1.00  0.00     0.201 C 
ENDBRANCH  33  34
ENDBRANCH  32  33
ENDBRANCH   3  32
TORSDOF 8
ENDMDL
MODEL 8
REMARK VINA RESULT:      -6.4      3.555      5.688
REMARK  8 active torsions:
REMARK  status: ('A' for Active; 'I' for Inactive)
REMARK    1  A    between atoms: N_3  and  C_4 
REMARK    2  A    between atoms: C_4  and  C_5 
REMARK    3  A    between atoms: C_5  and  O_6 
REMARK    4  A    between atoms: C_11  and  C_12 
REMARK    5  A    between atoms: C_13  and  C_14 
REMARK    6  A    between atoms: C_22  and  C_23 
REMARK       I    between atoms: C_23  and  N_24 
REMARK    7  A    between atoms: N_24  and  C_25 
REMARK    8  A    between atoms: C_26  and  O_27 
ROOT
HETATM    1  C   UNL     1     -41.033  55.891 -53.591  1.00  0.00     0.069 C 
HETATM    2  C   UNL     1     -42.221  56.571 -52.956  1.00  0.00     0.026 C 
HETATM    3  N   UNL     1     -42.844  55.959 -51.855  1.00  0.00    -0.301 N 
HETATM    4  C   UNL     1     -44.090  56.375 -51.373  1.00  0.00     0.323 C 
HETATM    5  O   UNL     1     -44.718  55.829 -50.469  1.00  0.00    -0.247 OA
HETATM    6  N   UNL     1     -44.660  57.435 -52.009  1.00  0.00    -0.330 N 
HETATM    7  C   UNL     1     -43.931  58.388 -52.802  1.00  0.00     0.161 C 
HETATM    8  C   UNL     1     -42.732  57.733 -53.412  1.00  0.00     0.059 C 
HETATM    9  H   UNL     1     -45.545  57.713 -51.606  1.00  0.00     0.165 HD
ENDROOT
BRANCH   8  10
HETATM   10  C   UNL     1     -42.203  58.384 -54.639  1.00  0.00     0.256 C 
HETATM   11  N   UNL     1     -42.875  58.003 -55.775  1.00  0.00    -0.321 N 
HETATM   12  H   UNL     1     -43.640  57.338 -55.694  1.00  0.00     0.169 HD
HETATM   13  O   UNL     1     -41.264  59.165 -54.550  1.00  0.00    -0.267 OA
BRANCH  11  14
HETATM   14  C   UNL     1     -42.603  58.373 -57.112  1.00  0.00     0.068 A 
HETATM   15  C   UNL     1     -42.650  57.345 -58.079  1.00  0.00     0.095 A 
HETATM   16  C   UNL     1     -42.375  57.638 -59.418  1.00  0.00     0.039 A 
HETATM   17  C   UNL     1     -42.063  58.944 -59.798  1.00  0.00     0.003 A 
HETATM   18  C   UNL     1     -42.023  59.960 -58.845  1.00  0.00     0.002 A 
HETATM   19  C   UNL     1     -42.290  59.675 -57.505  1.00  0.00     0.032 A 
BRANCH  15  20
HETATM   20  O   UNL     1     -42.969  56.096 -57.595  1.00  0.00    -0.354 OA
HETATM   21  C   UNL     1     -43.645  55.213 -58.481  1.00  0.00     0.210 C 
ENDBRANCH  15  20
ENDBRANCH  11  14
ENDBRANCH   8  10
BRANCH   7  22
HETATM   22  C   UNL     1     -43.611  59.619 -51.948  1.00  0.00    -0.016 A 
HETATM   23  C   UNL     1     -44.493  60.726 -51.864  1.00  0.00     0.056 A 
HETATM   24  C   UNL     1     -44.141  61.829 -51.060  1.00  0.00     0.017 A 
HETATM   25  C   UNL     1     -42.952  61.841 -50.334  1.00  0.00     0.001 A 
HETATM   26  C   UNL     1     -42.097  60.749 -50.392  1.00  0.00     0.001 A 
HETATM   27  C   UNL     1     -42.423  59.650 -51.185  1.00  0.00     0.010 A 
BRANCH  23  28
HETATM   28  C   UNL     1     -45.817  60.755 -52.599  1.00  0.00     0.418 C 
HETATM   29  F   UNL     1     -46.751  59.959 -52.008  1.00  0.00    -0.166 F 
HETATM   30  F   UNL     1     -46.380  61.993 -52.672  1.00  0.00    -0.166 F 
HETATM   31  F   UNL     1     -45.706  60.320 -53.883  1.00  0.00    -0.166 F 
ENDBRANCH  23  28
ENDBRANCH   7  22
BRANCH   3  32
HETATM   32  C   UNL     1     -42.232  54.821 -51.153  1.00  0.00     0.160 C 
BRANCH  32  33
HETATM   33  C   UNL     1     -41.416  55.229 -49.918  1.00  0.00     0.187 C 
BRANCH  33  34
HETATM   34  O   UNL     1     -41.594  54.295 -48.852  1.00  0.00    -0.394 OA
HETATM   35  C   UNL     1     -40.380  54.059 -48.151  1.00  0.00     0.201 C 
ENDBRANCH  33  34
ENDBRANCH  32  33
ENDBRANCH   3  32
TORSDOF 8
ENDMDL
MODEL 9
REMARK VINA RESULT:      -6.4      3.877      6.117
REMARK  8 active torsions:
REMARK  status: ('A' for Active; 'I' for Inactive)
REMARK    1  A    between atoms: N_3  and  C_4 
REMARK    2  A    between atoms: C_4  and  C_5 
REMARK    3  A    between atoms: C_5  and  O_6 
REMARK    4  A    between atoms: C_11  and  C_12 
REMARK    5  A    between atoms: C_13  and  C_14 
REMARK    6  A    between atoms: C_22  and  C_23 
REMARK       I    between atoms: C_23  and  N_24 
REMARK    7  A    between atoms: N_24  and  C_25 
REMARK    8  A    between atoms: C_26  and  O_27 
ROOT
HETATM    1  C   UNL     1     -41.804  59.836 -54.454  1.00  0.00     0.069 C 
HETATM    2  C   UNL     1     -42.183  58.707 -55.382  1.00  0.00     0.026 C 
HETATM    3  N   UNL     1     -42.221  57.397 -54.876  1.00  0.00    -0.301 N 
HETATM    4  C   UNL     1     -42.304  56.275 -55.708  1.00  0.00     0.323 C 
HETATM    5  O   UNL     1     -42.260  55.107 -55.329  1.00  0.00    -0.247 OA
HETATM    6  N   UNL     1     -42.383  56.520 -57.045  1.00  0.00    -0.330 N 
HETATM    7  C   UNL     1     -42.809  57.771 -57.612  1.00  0.00     0.161 C 
HETATM    8  C   UNL     1     -42.466  58.894 -56.687  1.00  0.00     0.059 C 
HETATM    9  H   UNL     1     -42.469  55.679 -57.600  1.00  0.00     0.165 HD
ENDROOT
BRANCH   8  10
HETATM   10  C   UNL     1     -42.338  60.231 -57.324  1.00  0.00     0.256 C 
HETATM   11  N   UNL     1     -41.407  60.251 -58.335  1.00  0.00    -0.321 N 
HETATM   12  H   UNL     1     -40.903  59.396 -58.556  1.00  0.00     0.169 HD
HETATM   13  O   UNL     1     -43.030  61.159 -56.924  1.00  0.00    -0.267 OA
BRANCH  11  14
HETATM   14  C   UNL     1     -40.987  61.357 -59.109  1.00  0.00     0.068 A 
HETATM   15  C   UNL     1     -41.431  61.401 -60.449  1.00  0.00     0.095 A 
HETATM   16  C   UNL     1     -41.038  62.459 -61.275  1.00  0.00     0.039 A 
HETATM   17  C   UNL     1     -40.216  63.470 -60.774  1.00  0.00     0.003 A 
HETATM   18  C   UNL     1     -39.784  63.429 -59.451  1.00  0.00     0.002 A 
HETATM   19  C   UNL     1     -40.165  62.374 -58.620  1.00  0.00     0.032 A 
BRANCH  15  20
HETATM   20  O   UNL     1     -42.236  60.355 -60.836  1.00  0.00    -0.354 OA
HETATM   21  C   UNL     1     -43.249  60.640 -61.793  1.00  0.00     0.210 C 
ENDBRANCH  15  20
ENDBRANCH  11  14
ENDBRANCH   8  10
BRANCH   7  22
HETATM   22  C   UNL     1     -44.295  57.683 -57.975  1.00  0.00    -0.016 A 
HETATM   23  C   UNL     1     -44.744  57.052 -59.163  1.00  0.00     0.056 A 
HETATM   24  C   UNL     1     -46.125  57.004 -59.440  1.00  0.00     0.017 A 
HETATM   25  C   UNL     1     -47.056  57.548 -58.557  1.00  0.00     0.001 A 
HETATM   26  C   UNL     1     -46.624  58.144 -57.379  1.00  0.00     0.001 A 
HETATM   27  C   UNL     1     -45.262  58.207 -57.089  1.00  0.00     0.010 A 
BRANCH  23  28
HETATM   28  C   UNL     1     -43.783  56.408 -60.142  1.00  0.00     0.418 C 
HETATM   29  F   UNL     1     -42.846  57.286 -60.596  1.00  0.00    -0.166 F 
HETATM   30  F   UNL     1     -43.086  55.361 -59.621  1.00  0.00    -0.166 F 
HETATM   31  F   UNL     1     -44.414  55.924 -61.245  1.00  0.00    -0.166 F 
ENDBRANCH  23  28
ENDBRANCH   7  22
BRANCH   3  32
HETATM   32  C   UNL     1     -42.148  57.122 -53.432  1.00  0.00     0.160 C 
BRANCH  32  33
HETATM   33  C   UNL     1     -43.524  56.933 -52.775  1.00  0.00     0.187 C 
BRANCH  33  34
HETATM   34  O   UNL     1     -43.433  56.092 -51.624  1.00  0.00    -0.394 OA
HETATM   35  C   UNL     1     -43.203  54.736 -51.980  1.00  0.00     0.201 C 
ENDBRANCH  33  34
ENDBRANCH  32  33
ENDBRANCH   3  32
TORSDOF 8
ENDMDL
MODEL 10
REMARK VINA RESULT:      -6.3      2.577      5.614
REMARK  8 active torsions:
REMARK  status: ('A' for Active; 'I' for Inactive)
REMARK    1  A    between atoms: N_3  and  C_4 
REMARK    2  A    between atoms: C_4  and  C_5 
REMARK    3  A    between atoms: C_5  and  O_6 
REMARK    4  A    between atoms: C_11  and  C_12 
REMARK    5  A    between atoms: C_13  and  C_14 
REMARK    6  A    between atoms: C_22  and  C_23 
REMARK       I    between atoms: C_23  and  N_24 
REMARK    7  A    between atoms: N_24  and  C_25 
REMARK    8  A    between atoms: C_26  and  O_27 
ROOT
HETATM    1  C   UNL     1     -44.018  58.255 -51.725  1.00  0.00     0.069 C 
HETATM    2  C   UNL     1     -44.403  58.800 -53.080  1.00  0.00     0.026 C 
HETATM    3  N   UNL     1     -44.951  60.091 -53.160  1.00  0.00    -0.301 N 
HETATM    4  C   UNL     1     -45.570  60.570 -54.320  1.00  0.00     0.323 C 
HETATM    5  O   UNL     1     -46.136  61.656 -54.424  1.00  0.00    -0.247 OA
HETATM    6  N   UNL     1     -45.585  59.728 -55.389  1.00  0.00    -0.330 N 
HETATM    7  C   UNL     1     -44.681  58.622 -55.557  1.00  0.00     0.161 C 
HETATM    8  C   UNL     1     -44.268  58.093 -54.220  1.00  0.00     0.059 C 
HETATM    9  H   UNL     1     -46.018  60.131 -56.209  1.00  0.00     0.165 HD
ENDROOT
BRANCH   8  10
HETATM   10  C   UNL     1     -43.803  56.681 -54.207  1.00  0.00     0.256 C 
HETATM   11  N   UNL     1     -42.444  56.571 -54.040  1.00  0.00    -0.321 N 
HETATM   12  H   UNL     1     -41.890  57.418 -53.946  1.00  0.00     0.169 HD
HETATM   13  O   UNL     1     -44.618  55.777 -54.338  1.00  0.00    -0.267 OA
BRANCH  11  14
HETATM   14  C   UNL     1     -41.660  55.395 -54.041  1.00  0.00     0.068 A 
HETATM   15  C   UNL     1     -41.548  54.703 -52.814  1.00  0.00     0.095 A 
HETATM   16  C   UNL     1     -40.774  53.541 -52.741  1.00  0.00     0.039 A 
HETATM   17  C   UNL     1     -40.120  53.063 -53.877  1.00  0.00     0.003 A 
HETATM   18  C   UNL     1     -40.235  53.742 -55.088  1.00  0.00     0.002 A 
HETATM   19  C   UNL     1     -41.000  54.906 -55.170  1.00  0.00     0.032 A 
BRANCH  15  20
HETATM   20  O   UNL     1     -42.234  55.262 -51.760  1.00  0.00    -0.354 OA
HETATM   21  C   UNL     1     -43.234  54.460 -51.143  1.00  0.00     0.210 C 
ENDBRANCH  15  20
ENDBRANCH  11  14
ENDBRANCH   8  10
BRANCH   7  22
HETATM   22  C   UNL     1     -43.515  59.051 -56.453  1.00  0.00    -0.016 A 
HETATM   23  C   UNL     1     -43.149  58.321 -57.613  1.00  0.00     0.056 A 
HETATM   24  C   UNL     1     -42.067  58.769 -58.396  1.00  0.00     0.017 A 
HETATM   25  C   UNL     1     -41.364  59.925 -58.062  1.00  0.00     0.001 A 
HETATM   26  C   UNL     1     -41.735  60.658 -56.942  1.00  0.00     0.001 A 
HETATM   27  C   UNL     1     -42.799  60.230 -56.151  1.00  0.00     0.010 A 
BRANCH  23  28
HETATM   28  C   UNL     1     -43.899  57.080 -58.049  1.00  0.00     0.418 C 
HETATM   29  F   UNL     1     -43.607  56.726 -59.332  1.00  0.00    -0.166 F 
HETATM   30  F   UNL     1     -43.630  55.979 -57.293  1.00  0.00    -0.166 F 
HETATM   31  F   UNL     1     -45.248  57.245 -58.000  1.00  0.00    -0.166 F 
ENDBRANCH  23  28
ENDBRANCH   7  22
BRANCH   3  32
HETATM   32  C   UNL     1     -44.931  61.014 -52.015  1.00  0.00     0.160 C 
BRANCH  32  33
HETATM   33  C   UNL     1     -46.223  60.986 -51.184  1.00  0.00     0.187 C 
BRANCH  33  34
HETATM   34  O   UNL     1     -45.959  60.595 -49.835  1.00  0.00    -0.394 OA
HETATM   35  C   UNL     1     -44.702  61.080 -49.383  1.00  0.00     0.201 C 
ENDBRANCH  33  34
ENDBRANCH  32  33
ENDBRANCH   3  32
TORSDOF 8
ENDMDL
