MODEL 1
REMARK VINA RESULT:      -9.0      0.000      0.000
REMARK  6 active torsions:
REMARK  status: ('A' for Active; 'I' for Inactive)
REMARK    1  A    between atoms: C_4  and  C_5 
REMARK    2  A    between atoms: C_5  and  O_6 
REMARK    3  A    between atoms: O_6  and  C_7 
REMARK    4  A    between atoms: C_10  and  C_11 
REMARK    5  A    between atoms: C_17  and  C_18 
REMARK    6  A    between atoms: C_27  and  N_28 
ROOT
HETATM    1  C   UNL     1     -43.693  57.303 -51.286  1.00  0.00     0.072 A 
HETATM    2  N   UNL     1     -44.872  57.639 -50.656  1.00  0.00    -0.274 N 
HETATM    3  H   UNL     1     -45.273  57.215 -49.826  1.00  0.00     0.189 HD
HETATM    4  N   UNL     1     -45.541  58.650 -51.249  1.00  0.00    -0.148 NA
HETATM    5  C   UNL     1     -44.751  58.954 -52.271  1.00  0.00     0.199 A 
HETATM    6  C   UNL     1     -43.601  58.168 -52.364  1.00  0.00     0.040 A 
HETATM    7  C   UNL     1     -42.629  58.367 -53.474  1.00  0.00     0.107 A 
HETATM    8  C   UNL     1     -43.080  59.496 -54.395  1.00  0.00     0.081 A 
HETATM    9  C   UNL     1     -42.201  59.836 -55.466  1.00  0.00     0.100 C 
HETATM   10  N   UNL     1     -41.485  60.107 -56.337  1.00  0.00    -0.191 NA
HETATM   11  C   UNL     1     -44.229  60.196 -54.199  1.00  0.00     0.140 A 
HETATM   12  O   UNL     1     -45.098  59.925 -53.133  1.00  0.00    -0.277 OA
ENDROOT
BRANCH   7  13
HETATM   13  C   UNL     1     -42.497  57.027 -54.173  1.00  0.00    -0.027 A 
HETATM   14  C   UNL     1     -43.620  56.431 -54.746  1.00  0.00     0.124 A 
HETATM   15  N   UNL     1     -43.612  55.249 -55.401  1.00  0.00    -0.273 NA
HETATM   16  C   UNL     1     -42.426  54.614 -55.490  1.00  0.00     0.116 A 
HETATM   17  C   UNL     1     -41.249  55.106 -54.950  1.00  0.00     0.020 A 
HETATM   18  C   UNL     1     -41.288  56.326 -54.280  1.00  0.00     0.011 A 
ENDBRANCH   7  13
BRANCH  11  19
HETATM   19  N   UNL     1     -44.671  61.232 -54.994  1.00  0.00    -0.282 NA
HETATM   20  H   UNL     1     -44.105  62.076 -54.984  1.00  0.00     0.126 HD
HETATM   21  H   UNL     1     -44.908  60.918 -55.932  1.00  0.00     0.126 HD
ENDBRANCH  11  19
BRANCH   1  22
HETATM   22  C   UNL     1     -42.845  56.196 -50.873  1.00  0.00    -0.007 A 
HETATM   23  C   UNL     1     -43.227  54.877 -51.150  1.00  0.00     0.016 A 
HETATM   24  C   UNL     1     -42.349  53.824 -50.895  1.00  0.00     0.037 A 
HETATM   25  C   UNL     1     -41.080  54.087 -50.384  1.00  0.00     0.069 A 
HETATM   26  C   UNL     1     -40.717  55.387 -50.034  1.00  0.00     0.037 A 
HETATM   27  C   UNL     1     -41.600  56.441 -50.283  1.00  0.00     0.016 A 
BRANCH  25  28
HETATM   28  O   UNL     1     -40.243  53.015 -50.242  1.00  0.00    -0.347 OA
BRANCH  28  29
HETATM   29  C   UNL     1     -39.236  52.964 -51.263  1.00  0.00     0.214 C 
BRANCH  29  30
HETATM   30  C   UNL     1     -39.569  51.860 -52.238  1.00  0.00    -0.034 A 
HETATM   31  C   UNL     1     -39.982  52.171 -53.543  1.00  0.00     0.009 A 
HETATM   32  C   UNL     1     -40.247  51.158 -54.466  1.00  0.00     0.001 A 
HETATM   33  C   UNL     1     -40.093  49.823 -54.096  1.00  0.00     0.000 A 
HETATM   34  C   UNL     1     -39.676  49.501 -52.806  1.00  0.00     0.001 A 
HETATM   35  C   UNL     1     -39.413  50.514 -51.880  1.00  0.00     0.009 A 
ENDBRANCH  29  30
ENDBRANCH  28  29
ENDBRANCH  25  28
ENDBRANCH   1  22
TORSDOF 6
ENDMDL
MODEL 2
REMARK VINA RESULT:      -8.9      1.634      4.106
REMARK  6 active torsions:
REMARK  status: ('A' for Active; 'I' for Inactive)
REMARK    1  A    between atoms: C_4  and  C_5 
REMARK    2  A    between atoms: C_5  and  O_6 
REMARK    3  A    between atoms: O_6  and  C_7 
REMARK    4  A    between atoms: C_10  and  C_11 
REMARK    5  A    between atoms: C_17  and  C_18 
REMARK    6  A    between atoms: C_27  and  N_28 
ROOT
HETATM    1  C   UNL     1     -42.567  57.950 -54.770  1.00  0.00     0.072 A 
HETATM    2  N   UNL     1     -42.089  58.921 -55.625  1.00  0.00    -0.274 N 
HETATM    3  H   UNL     1     -41.514  58.791 -56.450  1.00  0.00     0.189 HD
HETATM    4  N   UNL     1     -42.448  60.177 -55.283  1.00  0.00    -0.148 NA
HETATM    5  C   UNL     1     -43.173  59.977 -54.189  1.00  0.00     0.199 A 
HETATM    6  C   UNL     1     -43.287  58.639 -53.808  1.00  0.00     0.040 A 
HETATM    7  C   UNL     1     -44.045  58.256 -52.586  1.00  0.00     0.107 A 
HETATM    8  C   UNL     1     -44.629  59.487 -51.901  1.00  0.00     0.081 A 
HETATM    9  C   UNL     1     -45.439  59.253 -50.750  1.00  0.00     0.100 C 
HETATM   10  N   UNL     1     -46.093  59.059 -49.812  1.00  0.00    -0.191 NA
HETATM   11  C   UNL     1     -44.450  60.750 -52.371  1.00  0.00     0.140 A 
HETATM   12  O   UNL     1     -43.701  61.020 -53.525  1.00  0.00    -0.277 OA
ENDROOT
BRANCH   7  13
HETATM   13  C   UNL     1     -43.083  57.473 -51.713  1.00  0.00    -0.027 A 
HETATM   14  C   UNL     1     -41.947  58.100 -51.199  1.00  0.00     0.124 A 
HETATM   15  N   UNL     1     -41.033  57.501 -50.404  1.00  0.00    -0.273 NA
HETATM   16  C   UNL     1     -41.249  56.205 -50.102  1.00  0.00     0.116 A 
HETATM   17  C   UNL     1     -42.335  55.480 -50.564  1.00  0.00     0.020 A 
HETATM   18  C   UNL     1     -43.260  56.122 -51.383  1.00  0.00     0.011 A 
ENDBRANCH   7  13
BRANCH  11  19
HETATM   19  N   UNL     1     -44.969  61.890 -51.797  1.00  0.00    -0.282 NA
HETATM   20  H   UNL     1     -45.670  61.748 -51.074  1.00  0.00     0.126 HD
HETATM   21  H   UNL     1     -44.240  62.547 -51.526  1.00  0.00     0.126 HD
ENDBRANCH  11  19
BRANCH   1  22
HETATM   22  C   UNL     1     -42.245  56.538 -54.895  1.00  0.00    -0.007 A 
HETATM   23  C   UNL     1     -40.962  56.078 -54.570  1.00  0.00     0.016 A 
HETATM   24  C   UNL     1     -40.694  54.710 -54.540  1.00  0.00     0.037 A 
HETATM   25  C   UNL     1     -41.711  53.797 -54.812  1.00  0.00     0.069 A 
HETATM   26  C   UNL     1     -42.970  54.244 -55.210  1.00  0.00     0.037 A 
HETATM   27  C   UNL     1     -43.236  55.615 -55.247  1.00  0.00     0.016 A 
BRANCH  25  28
HETATM   28  O   UNL     1     -41.398  52.473 -54.678  1.00  0.00    -0.347 OA
BRANCH  28  29
HETATM   29  C   UNL     1     -40.018  52.265 -54.345  1.00  0.00     0.214 C 
BRANCH  29  30
HETATM   30  C   UNL     1     -39.926  51.557 -53.014  1.00  0.00    -0.034 A 
HETATM   31  C   UNL     1     -40.157  52.262 -51.822  1.00  0.00     0.009 A 
HETATM   32  C   UNL     1     -40.120  51.607 -50.591  1.00  0.00     0.001 A 
HETATM   33  C   UNL     1     -39.859  50.239 -50.538  1.00  0.00     0.000 A 
HETATM   34  C   UNL     1     -39.636  49.526 -51.715  1.00  0.00     0.001 A 
HETATM   35  C   UNL     1     -39.671  50.181 -52.948  1.00  0.00     0.009 A 
ENDBRANCH  29  30
ENDBRANCH  28  29
ENDBRANCH  25  28
ENDBRANCH   1  22
TORSDOF 6
ENDMDL
MODEL 3
REMARK VINA RESULT:      -8.7      1.849      4.421
REMARK  6 active torsions:
REMARK  status: ('A' for Active; 'I' for Inactive)
REMARK    1  A    between atoms: C_4  and  C_5 
REMARK    2  A    between atoms: C_5  and  O_6 
REMARK    3  A    between atoms: O_6  and  C_7 
REMARK    4  A    between atoms: C_10  and  C_11 
REMARK    5  A    between atoms: C_17  and  C_18 
REMARK    6  A    between atoms: C_27  and  N_28 
ROOT
HETATM    1  C   UNL     1     -43.460  56.643 -55.964  1.00  0.00     0.072 A 
HETATM    2  N   UNL     1     -43.753  56.851 -57.295  1.00  0.00    -0.274 N 
HETATM    3  H   UNL     1     -43.442  56.302 -58.090  1.00  0.00     0.189 HD
HETATM    4  N   UNL     1     -44.544  57.920 -57.523  1.00  0.00    -0.148 NA
HETATM    5  C   UNL     1     -44.751  58.385 -56.297  1.00  0.00     0.199 A 
HETATM    6  C   UNL     1     -44.115  57.659 -55.289  1.00  0.00     0.040 A 
HETATM    7  C   UNL     1     -44.228  58.073 -53.863  1.00  0.00     0.107 A 
HETATM    8  C   UNL     1     -45.100  59.316 -53.726  1.00  0.00     0.081 A 
HETATM    9  C   UNL     1     -45.346  59.780 -52.400  1.00  0.00     0.100 C 
HETATM   10  N   UNL     1     -45.541  60.157 -51.320  1.00  0.00    -0.191 NA
HETATM   11  C   UNL     1     -45.672  59.939 -54.790  1.00  0.00     0.140 A 
HETATM   12  O   UNL     1     -45.494  59.490 -56.106  1.00  0.00    -0.277 OA
ENDROOT
BRANCH   7  13
HETATM   13  C   UNL     1     -42.811  58.265 -53.359  1.00  0.00    -0.027 A 
HETATM   14  C   UNL     1     -41.982  59.211 -53.965  1.00  0.00     0.124 A 
HETATM   15  N   UNL     1     -40.711  59.471 -53.588  1.00  0.00    -0.273 NA
HETATM   16  C   UNL     1     -40.225  58.751 -52.557  1.00  0.00     0.116 A 
HETATM   17  C   UNL     1     -40.952  57.779 -51.889  1.00  0.00     0.020 A 
HETATM   18  C   UNL     1     -42.259  57.532 -52.299  1.00  0.00     0.011 A 
ENDBRANCH   7  13
BRANCH  11  19
HETATM   19  N   UNL     1     -46.478  61.055 -54.716  1.00  0.00    -0.282 NA
HETATM   20  H   UNL     1     -47.473  60.882 -54.595  1.00  0.00     0.126 HD
HETATM   21  H   UNL     1     -46.110  61.750 -54.070  1.00  0.00     0.126 HD
ENDBRANCH  11  19
BRANCH   1  22
HETATM   22  C   UNL     1     -42.565  55.600 -55.489  1.00  0.00    -0.007 A 
HETATM   23  C   UNL     1     -41.208  55.877 -55.285  1.00  0.00     0.016 A 
HETATM   24  C   UNL     1     -40.380  54.928 -54.686  1.00  0.00     0.037 A 
HETATM   25  C   UNL     1     -40.910  53.709 -54.268  1.00  0.00     0.069 A 
HETATM   26  C   UNL     1     -42.242  53.393 -54.534  1.00  0.00     0.037 A 
HETATM   27  C   UNL     1     -43.069  54.341 -55.141  1.00  0.00     0.016 A 
BRANCH  25  28
HETATM   28  O   UNL     1     -40.060  52.864 -53.610  1.00  0.00    -0.347 OA
BRANCH  28  29
HETATM   29  C   UNL     1     -40.687  52.207 -52.500  1.00  0.00     0.214 C 
BRANCH  29  30
HETATM   30  C   UNL     1     -40.805  53.174 -51.346  1.00  0.00    -0.034 A 
HETATM   31  C   UNL     1     -39.660  53.568 -50.636  1.00  0.00     0.009 A 
HETATM   32  C   UNL     1     -39.752  54.497 -49.599  1.00  0.00     0.001 A 
HETATM   33  C   UNL     1     -40.988  55.048 -49.266  1.00  0.00     0.000 A 
HETATM   34  C   UNL     1     -42.131  54.670 -49.969  1.00  0.00     0.001 A 
HETATM   35  C   UNL     1     -42.041  53.739 -51.006  1.00  0.00     0.009 A 
ENDBRANCH  29  30
ENDBRANCH  28  29
ENDBRANCH  25  28
ENDBRANCH   1  22
TORSDOF 6
ENDMDL
MODEL 4
REMARK VINA RESULT:      -8.6      3.467      5.404
REMARK  6 active torsions:
REMARK  status: ('A' for Active; 'I' for Inactive)
REMARK    1  A    between atoms: C_4  and  C_5 
REMARK    2  A    between atoms: C_5  and  O_6 
REMARK    3  A    between atoms: O_6  and  C_7 
REMARK    4  A    between atoms: C_10  and  C_11 
REMARK    5  A    between atoms: C_17  and  C_18 
REMARK    6  A    between atoms: C_27  and  N_28 
ROOT
HETATM    1  C   UNL     1     -43.025  56.301 -58.016  1.00  0.00     0.072 A 
HETATM    2  N   UNL     1     -42.145  56.095 -59.057  1.00  0.00    -0.274 N 
HETATM    3  H   UNL     1     -41.301  55.532 -59.051  1.00  0.00     0.189 HD
HETATM    4  N   UNL     1     -42.481  56.738 -60.195  1.00  0.00    -0.148 NA
HETATM    5  C   UNL     1     -43.605  57.356 -59.850  1.00  0.00     0.199 A 
HETATM    6  C   UNL     1     -44.000  57.140 -58.529  1.00  0.00     0.040 A 
HETATM    7  C   UNL     1     -45.224  57.788 -57.984  1.00  0.00     0.107 A 
HETATM    8  C   UNL     1     -45.908  58.640 -59.048  1.00  0.00     0.081 A 
HETATM    9  C   UNL     1     -47.135  59.265 -58.675  1.00  0.00     0.100 C 
HETATM   10  N   UNL     1     -48.130  59.775 -58.366  1.00  0.00    -0.191 NA
HETATM   11  C   UNL     1     -45.425  58.772 -60.312  1.00  0.00     0.140 A 
HETATM   12  O   UNL     1     -44.248  58.138 -60.734  1.00  0.00    -0.277 OA
ENDROOT
BRANCH   7  13
HETATM   13  C   UNL     1     -44.786  58.575 -56.764  1.00  0.00    -0.027 A 
HETATM   14  C   UNL     1     -43.883  59.629 -56.907  1.00  0.00     0.124 A 
HETATM   15  N   UNL     1     -43.436  60.401 -55.891  1.00  0.00    -0.273 NA
HETATM   16  C   UNL     1     -43.903  60.112 -54.660  1.00  0.00     0.116 A 
HETATM   17  C   UNL     1     -44.793  59.083 -54.398  1.00  0.00     0.020 A 
HETATM   18  C   UNL     1     -45.235  58.304 -55.464  1.00  0.00     0.011 A 
ENDBRANCH   7  13
BRANCH  11  19
HETATM   19  N   UNL     1     -46.014  59.518 -61.312  1.00  0.00    -0.282 NA
HETATM   20  H   UNL     1     -45.864  60.522 -61.267  1.00  0.00     0.126 HD
HETATM   21  H   UNL     1     -45.838  59.126 -62.234  1.00  0.00     0.126 HD
ENDBRANCH  11  19
BRANCH   1  22
HETATM   22  C   UNL     1     -42.827  55.773 -56.676  1.00  0.00    -0.007 A 
HETATM   23  C   UNL     1     -43.346  54.519 -56.329  1.00  0.00     0.016 A 
HETATM   24  C   UNL     1     -43.028  53.943 -55.100  1.00  0.00     0.037 A 
HETATM   25  C   UNL     1     -42.174  54.607 -54.222  1.00  0.00     0.069 A 
HETATM   26  C   UNL     1     -41.713  55.888 -54.523  1.00  0.00     0.037 A 
HETATM   27  C   UNL     1     -42.036  56.468 -55.752  1.00  0.00     0.016 A 
BRANCH  25  28
HETATM   28  O   UNL     1     -41.838  53.944 -53.075  1.00  0.00    -0.347 OA
BRANCH  28  29
HETATM   29  C   UNL     1     -40.422  53.758 -52.941  1.00  0.00     0.214 C 
BRANCH  29  30
HETATM   30  C   UNL     1     -40.106  52.281 -52.966  1.00  0.00    -0.034 A 
HETATM   31  C   UNL     1     -39.732  51.619 -51.786  1.00  0.00     0.009 A 
HETATM   32  C   UNL     1     -39.484  50.246 -51.790  1.00  0.00     0.001 A 
HETATM   33  C   UNL     1     -39.615  49.518 -52.971  1.00  0.00     0.000 A 
HETATM   34  C   UNL     1     -39.994  50.163 -54.148  1.00  0.00     0.001 A 
HETATM   35  C   UNL     1     -40.241  51.538 -54.146  1.00  0.00     0.009 A 
ENDBRANCH  29  30
ENDBRANCH  28  29
ENDBRANCH  25  28
ENDBRANCH   1  22
TORSDOF 6
ENDMDL
MODEL 5
REMARK VINA RESULT:      -8.4      1.395      1.748
REMARK  6 active torsions:
REMARK  status: ('A' for Active; 'I' for Inactive)
REMARK    1  A    between atoms: C_4  and  C_5 
REMARK    2  A    between atoms: C_5  and  O_6 
REMARK    3  A    between atoms: O_6  and  C_7 
REMARK    4  A    between atoms: C_10  and  C_11 
REMARK    5  A    between atoms: C_17  and  C_18 
REMARK    6  A    between atoms: C_27  and  N_28 
ROOT
HETATM    1  C   UNL     1     -42.610  58.772 -51.170  1.00  0.00     0.072 A 
HETATM    2  N   UNL     1     -43.182  59.643 -50.267  1.00  0.00    -0.274 N 
HETATM    3  H   UNL     1     -43.374  59.477 -49.285  1.00  0.00     0.189 HD
HETATM    4  N   UNL     1     -43.515  60.840 -50.794  1.00  0.00    -0.148 NA
HETATM    5  C   UNL     1     -43.132  60.709 -52.059  1.00  0.00     0.199 A 
HETATM    6  C   UNL     1     -42.573  59.468 -52.367  1.00  0.00     0.040 A 
HETATM    7  C   UNL     1     -42.122  59.157 -53.751  1.00  0.00     0.107 A 
HETATM    8  C   UNL     1     -42.352  60.347 -54.677  1.00  0.00     0.081 A 
HETATM    9  C   UNL     1     -41.899  60.206 -56.023  1.00  0.00     0.100 C 
HETATM   10  N   UNL     1     -41.533  60.085 -57.117  1.00  0.00    -0.191 NA
HETATM   11  C   UNL     1     -42.907  61.515 -54.257  1.00  0.00     0.140 A 
HETATM   12  O   UNL     1     -43.323  61.712 -52.933  1.00  0.00    -0.277 OA
ENDROOT
BRANCH   7  13
HETATM   13  C   UNL     1     -42.865  57.905 -54.174  1.00  0.00    -0.027 A 
HETATM   14  C   UNL     1     -44.259  57.913 -54.233  1.00  0.00     0.124 A 
HETATM   15  N   UNL     1     -45.018  56.859 -54.607  1.00  0.00    -0.273 NA
HETATM   16  C   UNL     1     -44.363  55.728 -54.936  1.00  0.00     0.116 A 
HETATM   17  C   UNL     1     -42.984  55.601 -54.904  1.00  0.00     0.020 A 
HETATM   18  C   UNL     1     -42.227  56.703 -54.514  1.00  0.00     0.011 A 
ENDBRANCH   7  13
BRANCH  11  19
HETATM   19  N   UNL     1     -43.122  62.621 -55.051  1.00  0.00    -0.282 NA
HETATM   20  H   UNL     1     -43.414  63.468 -54.570  1.00  0.00     0.126 HD
HETATM   21  H   UNL     1     -42.359  62.774 -55.707  1.00  0.00     0.126 HD
ENDBRANCH  11  19
BRANCH   1  22
HETATM   22  C   UNL     1     -42.243  57.402 -50.848  1.00  0.00    -0.007 A 
HETATM   23  C   UNL     1     -43.200  56.383 -50.920  1.00  0.00     0.016 A 
HETATM   24  C   UNL     1     -42.819  55.051 -50.763  1.00  0.00     0.037 A 
HETATM   25  C   UNL     1     -41.479  54.732 -50.555  1.00  0.00     0.069 A 
HETATM   26  C   UNL     1     -40.530  55.742 -50.406  1.00  0.00     0.037 A 
HETATM   27  C   UNL     1     -40.913  57.077 -50.557  1.00  0.00     0.016 A 
BRANCH  25  28
HETATM   28  O   UNL     1     -41.168  53.401 -50.498  1.00  0.00    -0.347 OA
BRANCH  28  29
HETATM   29  C   UNL     1     -39.831  53.129 -50.942  1.00  0.00     0.214 C 
BRANCH  29  30
HETATM   30  C   UNL     1     -39.873  52.138 -52.080  1.00  0.00    -0.034 A 
HETATM   31  C   UNL     1     -39.556  50.789 -51.854  1.00  0.00     0.009 A 
HETATM   32  C   UNL     1     -39.638  49.857 -52.890  1.00  0.00     0.001 A 
HETATM   33  C   UNL     1     -40.044  50.262 -54.160  1.00  0.00     0.000 A 
HETATM   34  C   UNL     1     -40.369  51.597 -54.395  1.00  0.00     0.001 A 
HETATM   35  C   UNL     1     -40.286  52.531 -53.360  1.00  0.00     0.009 A 
ENDBRANCH  29  30
ENDBRANCH  28  29
ENDBRANCH  25  28
ENDBRANCH   1  22
TORSDOF 6
ENDMDL
MODEL 6
REMARK VINA RESULT:      -8.1      1.914      3.167
REMARK  6 active torsions:
REMARK  status: ('A' for Active; 'I' for Inactive)
REMARK    1  A    between atoms: C_4  and  C_5 
REMARK    2  A    between atoms: C_5  and  O_6 
REMARK    3  A    between atoms: O_6  and  C_7 
REMARK    4  A    between atoms: C_10  and  C_11 
REMARK    5  A    between atoms: C_17  and  C_18 
REMARK    6  A    between atoms: C_27  and  N_28 
ROOT
HETATM    1  C   UNL     1     -44.238  58.337 -51.220  1.00  0.00     0.072 A 
HETATM    2  N   UNL     1     -45.401  57.979 -50.572  1.00  0.00    -0.274 N 
HETATM    3  H   UNL     1     -45.665  57.058 -50.239  1.00  0.00     0.189 HD
HETATM    4  N   UNL     1     -46.260  59.003 -50.382  1.00  0.00    -0.148 NA
HETATM    5  C   UNL     1     -45.608  60.025 -50.923  1.00  0.00     0.199 A 
HETATM    6  C   UNL     1     -44.364  59.695 -51.463  1.00  0.00     0.040 A 
HETATM    7  C   UNL     1     -43.525  60.727 -52.131  1.00  0.00     0.107 A 
HETATM    8  C   UNL     1     -44.213  62.088 -52.103  1.00  0.00     0.081 A 
HETATM    9  C   UNL     1     -43.483  63.184 -52.653  1.00  0.00     0.100 C 
HETATM   10  N   UNL     1     -42.889  64.071 -53.104  1.00  0.00    -0.191 NA
HETATM   11  C   UNL     1     -45.435  62.287 -51.541  1.00  0.00     0.140 A 
HETATM   12  O   UNL     1     -46.166  61.248 -50.950  1.00  0.00    -0.277 OA
ENDROOT
BRANCH   7  13
HETATM   13  C   UNL     1     -43.248  60.214 -53.531  1.00  0.00    -0.027 A 
HETATM   14  C   UNL     1     -41.931  60.044 -53.959  1.00  0.00     0.124 A 
HETATM   15  N   UNL     1     -41.573  59.583 -55.178  1.00  0.00    -0.273 NA
HETATM   16  C   UNL     1     -42.574  59.278 -56.028  1.00  0.00     0.116 A 
HETATM   17  C   UNL     1     -43.916  59.417 -55.715  1.00  0.00     0.020 A 
HETATM   18  C   UNL     1     -44.256  59.895 -54.452  1.00  0.00     0.011 A 
ENDBRANCH   7  13
BRANCH  11  19
HETATM   19  N   UNL     1     -46.090  63.499 -51.479  1.00  0.00    -0.282 NA
HETATM   20  H   UNL     1     -46.225  63.981 -52.365  1.00  0.00     0.126 HD
HETATM   21  H   UNL     1     -46.937  63.446 -50.918  1.00  0.00     0.126 HD
ENDBRANCH  11  19
BRANCH   1  22
HETATM   22  C   UNL     1     -43.203  57.390 -51.602  1.00  0.00    -0.007 A 
HETATM   23  C   UNL     1     -41.972  57.385 -50.933  1.00  0.00     0.016 A 
HETATM   24  C   UNL     1     -41.038  56.383 -51.190  1.00  0.00     0.037 A 
HETATM   25  C   UNL     1     -41.338  55.370 -52.098  1.00  0.00     0.069 A 
HETATM   26  C   UNL     1     -42.527  55.406 -52.824  1.00  0.00     0.037 A 
HETATM   27  C   UNL     1     -43.460  56.414 -52.572  1.00  0.00     0.016 A 
BRANCH  25  28
HETATM   28  O   UNL     1     -40.411  54.374 -52.233  1.00  0.00    -0.347 OA
BRANCH  28  29
HETATM   29  C   UNL     1     -40.553  53.654 -53.466  1.00  0.00     0.214 C 
BRANCH  29  30
HETATM   30  C   UNL     1     -40.178  52.207 -53.246  1.00  0.00    -0.034 A 
HETATM   31  C   UNL     1     -39.827  51.756 -51.964  1.00  0.00     0.009 A 
HETATM   32  C   UNL     1     -39.524  50.412 -51.742  1.00  0.00     0.001 A 
HETATM   33  C   UNL     1     -39.577  49.503 -52.798  1.00  0.00     0.000 A 
HETATM   34  C   UNL     1     -39.932  49.938 -54.074  1.00  0.00     0.001 A 
HETATM   35  C   UNL     1     -40.233  51.283 -54.298  1.00  0.00     0.009 A 
ENDBRANCH  29  30
ENDBRANCH  28  29
ENDBRANCH  25  28
ENDBRANCH   1  22
TORSDOF 6
ENDMDL
MODEL 7
REMARK VINA RESULT:      -7.8      2.180      2.994
REMARK  6 active torsions:
REMARK  status: ('A' for Active; 'I' for Inactive)
REMARK    1  A    between atoms: C_4  and  C_5 
REMARK    2  A    between atoms: C_5  and  O_6 
REMARK    3  A    between atoms: O_6  and  C_7 
REMARK    4  A    between atoms: C_10  and  C_11 
REMARK    5  A    between atoms: C_17  and  C_18 
REMARK    6  A    between atoms: C_27  and  N_28 
ROOT
HETATM    1  C   UNL     1     -43.212  58.218 -53.650  1.00  0.00     0.072 A 
HETATM    2  N   UNL     1     -43.953  58.720 -52.602  1.00  0.00    -0.274 N 
HETATM    3  H   UNL     1     -44.271  58.225 -51.776  1.00  0.00     0.189 HD
HETATM    4  N   UNL     1     -44.276  60.024 -52.734  1.00  0.00    -0.148 NA
HETATM    5  C   UNL     1     -43.713  60.340 -53.894  1.00  0.00     0.199 A 
HETATM    6  C   UNL     1     -43.047  59.283 -54.519  1.00  0.00     0.040 A 
HETATM    7  C   UNL     1     -42.389  59.472 -55.841  1.00  0.00     0.107 A 
HETATM    8  C   UNL     1     -42.554  60.907 -56.330  1.00  0.00     0.081 A 
HETATM    9  C   UNL     1     -41.911  61.241 -57.558  1.00  0.00     0.100 C 
HETATM   10  N   UNL     1     -41.389  61.507 -58.560  1.00  0.00    -0.191 NA
HETATM   11  C   UNL     1     -43.228  61.856 -55.626  1.00  0.00     0.140 A 
HETATM   12  O   UNL     1     -43.836  61.582 -54.393  1.00  0.00    -0.277 OA
ENDROOT
BRANCH   7  13
HETATM   13  C   UNL     1     -42.995  58.439 -56.772  1.00  0.00    -0.027 A 
HETATM   14  C   UNL     1     -44.321  58.570 -57.184  1.00  0.00     0.124 A 
HETATM   15  N   UNL     1     -44.954  57.716 -58.019  1.00  0.00    -0.273 NA
HETATM   16  C   UNL     1     -44.237  56.666 -58.468  1.00  0.00     0.116 A 
HETATM   17  C   UNL     1     -42.918  56.430 -58.117  1.00  0.00     0.020 A 
HETATM   18  C   UNL     1     -42.292  57.326 -57.255  1.00  0.00     0.011 A 
ENDBRANCH   7  13
BRANCH  11  19
HETATM   19  N   UNL     1     -43.392  63.167 -56.019  1.00  0.00    -0.282 NA
HETATM   20  H   UNL     1     -43.647  63.314 -56.992  1.00  0.00     0.126 HD
HETATM   21  H   UNL     1     -43.973  63.691 -55.368  1.00  0.00     0.126 HD
ENDBRANCH  11  19
BRANCH   1  22
HETATM   22  C   UNL     1     -42.817  56.823 -53.763  1.00  0.00    -0.007 A 
HETATM   23  C   UNL     1     -43.754  55.855 -54.145  1.00  0.00     0.016 A 
HETATM   24  C   UNL     1     -43.347  54.547 -54.402  1.00  0.00     0.037 A 
HETATM   25  C   UNL     1     -42.000  54.206 -54.300  1.00  0.00     0.069 A 
HETATM   26  C   UNL     1     -41.070  55.141 -53.848  1.00  0.00     0.037 A 
HETATM   27  C   UNL     1     -41.480  56.450 -53.583  1.00  0.00     0.016 A 
BRANCH  25  28
HETATM   28  O   UNL     1     -41.663  52.929 -54.652  1.00  0.00    -0.347 OA
BRANCH  28  29
HETATM   29  C   UNL     1     -40.257  52.675 -54.523  1.00  0.00     0.214 C 
BRANCH  29  30
HETATM   30  C   UNL     1     -40.028  51.674 -53.415  1.00  0.00    -0.034 A 
HETATM   31  C   UNL     1     -39.781  50.326 -53.721  1.00  0.00     0.009 A 
HETATM   32  C   UNL     1     -39.523  49.404 -52.706  1.00  0.00     0.001 A 
HETATM   33  C   UNL     1     -39.501  49.819 -51.376  1.00  0.00     0.000 A 
HETATM   34  C   UNL     1     -39.737  51.156 -51.060  1.00  0.00     0.001 A 
HETATM   35  C   UNL     1     -39.998  52.081 -52.074  1.00  0.00     0.009 A 
ENDBRANCH  29  30
ENDBRANCH  28  29
ENDBRANCH  25  28
ENDBRANCH   1  22
TORSDOF 6
ENDMDL
MODEL 8
REMARK VINA RESULT:      -7.7      1.807      3.435
REMARK  6 active torsions:
REMARK  status: ('A' for Active; 'I' for Inactive)
REMARK    1  A    between atoms: C_4  and  C_5 
REMARK    2  A    between atoms: C_5  and  O_6 
REMARK    3  A    between atoms: O_6  and  C_7 
REMARK    4  A    between atoms: C_10  and  C_11 
REMARK    5  A    between atoms: C_17  and  C_18 
REMARK    6  A    between atoms: C_27  and  N_28 
ROOT
HETATM    1  C   UNL     1     -43.430  56.399 -54.835  1.00  0.00     0.072 A 
HETATM    2  N   UNL     1     -43.237  56.004 -56.142  1.00  0.00    -0.274 N 
HETATM    3  H   UNL     1     -42.756  55.174 -56.472  1.00  0.00     0.189 HD
HETATM    4  N   UNL     1     -43.762  56.849 -57.053  1.00  0.00    -0.148 NA
HETATM    5  C   UNL     1     -44.300  57.792 -56.289  1.00  0.00     0.199 A 
HETATM    6  C   UNL     1     -44.132  57.589 -54.918  1.00  0.00     0.040 A 
HETATM    7  C   UNL     1     -44.654  58.575 -53.932  1.00  0.00     0.107 A 
HETATM    8  C   UNL     1     -45.353  59.732 -54.639  1.00  0.00     0.081 A 
HETATM    9  C   UNL     1     -45.960  60.717 -53.804  1.00  0.00     0.100 C 
HETATM   10  N   UNL     1     -46.449  61.517 -53.121  1.00  0.00    -0.191 NA
HETATM   11  C   UNL     1     -45.455  59.819 -55.992  1.00  0.00     0.140 A 
HETATM   12  O   UNL     1     -44.913  58.850 -56.847  1.00  0.00    -0.277 OA
ENDROOT
BRANCH   7  13
HETATM   13  C   UNL     1     -43.470  59.004 -53.087  1.00  0.00    -0.027 A 
HETATM   14  C   UNL     1     -43.537  58.900 -51.697  1.00  0.00     0.124 A 
HETATM   15  N   UNL     1     -42.538  59.242 -50.853  1.00  0.00    -0.273 NA
HETATM   16  C   UNL     1     -41.409  59.720 -51.413  1.00  0.00     0.116 A 
HETATM   17  C   UNL     1     -41.235  59.877 -52.778  1.00  0.00     0.020 A 
HETATM   18  C   UNL     1     -42.281  59.517 -53.624  1.00  0.00     0.011 A 
ENDBRANCH   7  13
BRANCH  11  19
HETATM   19  N   UNL     1     -46.088  60.836 -56.675  1.00  0.00    -0.282 NA
HETATM   20  H   UNL     1     -45.558  61.697 -56.787  1.00  0.00     0.126 HD
HETATM   21  H   UNL     1     -46.512  60.509 -57.540  1.00  0.00     0.126 HD
ENDBRANCH  11  19
BRANCH   1  22
HETATM   22  C   UNL     1     -42.886  55.688 -53.689  1.00  0.00    -0.007 A 
HETATM   23  C   UNL     1     -43.616  54.652 -53.093  1.00  0.00     0.016 A 
HETATM   24  C   UNL     1     -43.037  53.868 -52.096  1.00  0.00     0.037 A 
HETATM   25  C   UNL     1     -41.720  54.102 -51.706  1.00  0.00     0.069 A 
HETATM   26  C   UNL     1     -41.010  55.178 -52.238  1.00  0.00     0.037 A 
HETATM   27  C   UNL     1     -41.593  55.967 -53.232  1.00  0.00     0.016 A 
BRANCH  25  28
HETATM   28  O   UNL     1     -41.190  53.240 -50.787  1.00  0.00    -0.347 OA
BRANCH  28  29
HETATM   29  C   UNL     1     -39.831  52.889 -51.081  1.00  0.00     0.214 C 
BRANCH  29  30
HETATM   30  C   UNL     1     -39.810  51.738 -52.059  1.00  0.00    -0.034 A 
HETATM   31  C   UNL     1     -39.957  51.978 -53.435  1.00  0.00     0.009 A 
HETATM   32  C   UNL     1     -39.893  50.927 -54.350  1.00  0.00     0.001 A 
HETATM   33  C   UNL     1     -39.674  49.626 -53.901  1.00  0.00     0.000 A 
HETATM   34  C   UNL     1     -39.519  49.376 -52.538  1.00  0.00     0.001 A 
HETATM   35  C   UNL     1     -39.585  50.427 -51.621  1.00  0.00     0.009 A 
ENDBRANCH  29  30
ENDBRANCH  28  29
ENDBRANCH  25  28
ENDBRANCH   1  22
TORSDOF 6
ENDMDL
MODEL 9
REMARK VINA RESULT:      -7.6     16.023     18.831
REMARK  6 active torsions:
REMARK  status: ('A' for Active; 'I' for Inactive)
REMARK    1  A    between atoms: C_4  and  C_5 
REMARK    2  A    between atoms: C_5  and  O_6 
REMARK    3  A    between atoms: O_6  and  C_7 
REMARK    4  A    between atoms: C_10  and  C_11 
REMARK    5  A    between atoms: C_17  and  C_18 
REMARK    6  A    between atoms: C_27  and  N_28 
ROOT
HETATM    1  C   UNL     1     -36.105  41.316 -54.703  1.00  0.00     0.072 A 
HETATM    2  N   UNL     1     -36.485  42.500 -54.108  1.00  0.00    -0.274 N 
HETATM    3  H   UNL     1     -37.056  43.238 -54.506  1.00  0.00     0.189 HD
HETATM    4  N   UNL     1     -36.016  42.657 -52.852  1.00  0.00    -0.148 NA
HETATM    5  C   UNL     1     -35.331  41.536 -52.662  1.00  0.00     0.199 A 
HETATM    6  C   UNL     1     -35.334  40.666 -53.754  1.00  0.00     0.040 A 
HETATM    7  C   UNL     1     -34.587  39.380 -53.706  1.00  0.00     0.107 A 
HETATM    8  C   UNL     1     -33.894  39.204 -52.359  1.00  0.00     0.081 A 
HETATM    9  C   UNL     1     -33.195  37.977 -52.155  1.00  0.00     0.100 C 
HETATM   10  N   UNL     1     -32.625  36.980 -51.996  1.00  0.00    -0.191 NA
HETATM   11  C   UNL     1     -33.967  40.128 -51.364  1.00  0.00     0.140 A 
HETATM   12  O   UNL     1     -34.680  41.325 -51.505  1.00  0.00    -0.277 OA
ENDROOT
BRANCH   7  13
HETATM   13  C   UNL     1     -33.632  39.395 -54.884  1.00  0.00    -0.027 A 
HETATM   14  C   UNL     1     -32.583  40.315 -54.914  1.00  0.00     0.124 A 
HETATM   15  N   UNL     1     -31.670  40.407 -55.906  1.00  0.00    -0.273 NA
HETATM   16  C   UNL     1     -31.804  39.544 -56.933  1.00  0.00     0.116 A 
HETATM   17  C   UNL     1     -32.811  38.597 -57.015  1.00  0.00     0.020 A 
HETATM   18  C   UNL     1     -33.738  38.525 -55.978  1.00  0.00     0.011 A 
ENDBRANCH   7  13
BRANCH  11  19
HETATM   19  N   UNL     1     -33.371  40.008 -50.126  1.00  0.00    -0.282 NA
HETATM   20  H   UNL     1     -33.471  40.804 -49.502  1.00  0.00     0.126 HD
HETATM   21  H   UNL     1     -33.590  39.119 -49.682  1.00  0.00     0.126 HD
ENDBRANCH  11  19
BRANCH   1  22
HETATM   22  C   UNL     1     -36.426  40.966 -56.078  1.00  0.00    -0.007 A 
HETATM   23  C   UNL     1     -37.205  39.834 -56.351  1.00  0.00     0.016 A 
HETATM   24  C   UNL     1     -37.642  39.581 -57.651  1.00  0.00     0.037 A 
HETATM   25  C   UNL     1     -37.322  40.468 -58.676  1.00  0.00     0.069 A 
HETATM   26  C   UNL     1     -36.485  41.555 -58.430  1.00  0.00     0.037 A 
HETATM   27  C   UNL     1     -36.041  41.805 -57.130  1.00  0.00     0.016 A 
BRANCH  25  28
HETATM   28  O   UNL     1     -37.858  40.203 -59.906  1.00  0.00    -0.347 OA
BRANCH  28  29
HETATM   29  C   UNL     1     -37.707  38.828 -60.287  1.00  0.00     0.214 C 
BRANCH  29  30
HETATM   30  C   UNL     1     -38.974  38.352 -60.957  1.00  0.00    -0.034 A 
HETATM   31  C   UNL     1     -40.142  38.157 -60.202  1.00  0.00     0.009 A 
HETATM   32  C   UNL     1     -41.329  37.763 -60.819  1.00  0.00     0.001 A 
HETATM   33  C   UNL     1     -41.365  37.566 -62.199  1.00  0.00     0.000 A 
HETATM   34  C   UNL     1     -40.214  37.764 -62.960  1.00  0.00     0.001 A 
HETATM   35  C   UNL     1     -39.024  38.157 -62.344  1.00  0.00     0.009 A 
ENDBRANCH  29  30
ENDBRANCH  28  29
ENDBRANCH  25  28
ENDBRANCH   1  22
TORSDOF 6
ENDMDL
MODEL 10
REMARK VINA RESULT:      -7.3      3.226      6.901
REMARK  6 active torsions:
REMARK  status: ('A' for Active; 'I' for Inactive)
REMARK    1  A    between atoms: C_4  and  C_5 
REMARK    2  A    between atoms: C_5  and  O_6 
REMARK    3  A    between atoms: O_6  and  C_7 
REMARK    4  A    between atoms: C_10  and  C_11 
REMARK    5  A    between atoms: C_17  and  C_18 
REMARK    6  A    between atoms: C_27  and  N_28 
ROOT
HETATM    1  C   UNL     1     -42.271  59.130 -53.229  1.00  0.00     0.072 A 
HETATM    2  N   UNL     1     -41.385  60.035 -52.686  1.00  0.00    -0.274 N 
HETATM    3  H   UNL     1     -41.118  60.940 -53.059  1.00  0.00     0.189 HD
HETATM    4  N   UNL     1     -40.827  59.628 -51.527  1.00  0.00    -0.148 NA
HETATM    5  C   UNL     1     -41.388  58.439 -51.343  1.00  0.00     0.199 A 
HETATM    6  C   UNL     1     -42.281  58.061 -52.348  1.00  0.00     0.040 A 
HETATM    7  C   UNL     1     -42.970  56.743 -52.300  1.00  0.00     0.107 A 
HETATM    8  C   UNL     1     -42.563  55.962 -51.055  1.00  0.00     0.081 A 
HETATM    9  C   UNL     1     -43.204  54.704 -50.851  1.00  0.00     0.100 C 
HETATM   10  N   UNL     1     -43.725  53.680 -50.692  1.00  0.00    -0.191 NA
HETATM   11  C   UNL     1     -41.678  56.439 -50.139  1.00  0.00     0.140 A 
HETATM   12  O   UNL     1     -41.060  57.690 -50.276  1.00  0.00    -0.277 OA
ENDROOT
BRANCH   7  13
HETATM   13  C   UNL     1     -42.632  56.035 -53.598  1.00  0.00    -0.027 A 
HETATM   14  C   UNL     1     -41.306  55.710 -53.886  1.00  0.00     0.124 A 
HETATM   15  N   UNL     1     -40.897  55.071 -55.004  1.00  0.00    -0.273 NA
HETATM   16  C   UNL     1     -41.853  54.740 -55.896  1.00  0.00     0.116 A 
HETATM   17  C   UNL     1     -43.197  55.022 -55.721  1.00  0.00     0.020 A 
HETATM   18  C   UNL     1     -43.589  55.681 -54.559  1.00  0.00     0.011 A 
ENDBRANCH   7  13
BRANCH  11  19
HETATM   19  N   UNL     1     -41.290  55.779 -48.993  1.00  0.00    -0.282 NA
HETATM   20  H   UNL     1     -40.531  56.205 -48.466  1.00  0.00     0.126 HD
HETATM   21  H   UNL     1     -42.085  55.520 -48.414  1.00  0.00     0.126 HD
ENDBRANCH  11  19
BRANCH   1  22
HETATM   22  C   UNL     1     -42.933  59.318 -54.511  1.00  0.00    -0.007 A 
HETATM   23  C   UNL     1     -42.184  59.328 -55.694  1.00  0.00     0.016 A 
HETATM   24  C   UNL     1     -42.826  59.354 -56.931  1.00  0.00     0.037 A 
HETATM   25  C   UNL     1     -44.218  59.348 -56.990  1.00  0.00     0.069 A 
HETATM   26  C   UNL     1     -44.973  59.415 -55.820  1.00  0.00     0.037 A 
HETATM   27  C   UNL     1     -44.329  59.396 -54.581  1.00  0.00     0.016 A 
BRANCH  25  28
HETATM   28  O   UNL     1     -44.778  59.286 -58.236  1.00  0.00    -0.347 OA
BRANCH  28  29
HETATM   29  C   UNL     1     -43.899  58.697 -59.206  1.00  0.00     0.214 C 
BRANCH  29  30
HETATM   30  C   UNL     1     -44.347  57.284 -59.494  1.00  0.00    -0.034 A 
HETATM   31  C   UNL     1     -45.614  57.043 -60.047  1.00  0.00     0.009 A 
HETATM   32  C   UNL     1     -46.017  55.744 -60.359  1.00  0.00     0.001 A 
HETATM   33  C   UNL     1     -45.156  54.673 -60.130  1.00  0.00     0.000 A 
HETATM   34  C   UNL     1     -43.891  54.900 -59.588  1.00  0.00     0.001 A 
HETATM   35  C   UNL     1     -43.487  56.199 -59.273  1.00  0.00     0.009 A 
ENDBRANCH  29  30
ENDBRANCH  28  29
ENDBRANCH  25  28
ENDBRANCH   1  22
TORSDOF 6
ENDMDL
