MODEL 1
REMARK VINA RESULT:      -7.8      0.000      0.000
REMARK  2 active torsions:
REMARK  status: ('A' for Active; 'I' for Inactive)
REMARK    1  A    between atoms: C_6  and  N_7 
REMARK       I    between atoms: N_7  and  C_8 
REMARK       I    between atoms: C_8  and  N_9 
REMARK    2  A    between atoms: N_9  and  C_10 
ROOT
HETATM    1  N   UNL     1     -43.581  55.543 -56.896  1.00  0.00    -0.306 N 
HETATM    2  C   UNL     1     -42.982  54.881 -55.869  1.00  0.00     0.321 C 
HETATM    3  N   UNL     1     -41.625  54.902 -55.792  1.00  0.00    -0.338 N 
HETATM    4  O   UNL     1     -43.677  54.400 -54.976  1.00  0.00    -0.247 OA
HETATM    5  H   UNL     1     -44.558  55.710 -56.680  1.00  0.00     0.171 HD
HETATM    6  H   UNL     1     -41.128  55.030 -56.661  1.00  0.00     0.164 HD
ENDROOT
BRANCH   3   7
HETATM    7  C   UNL     1     -40.860  54.342 -54.688  1.00  0.00     0.089 C 
HETATM    8  C   UNL     1     -41.320  54.907 -53.332  1.00  0.00     0.058 C 
HETATM    9  C   UNL     1     -40.455  54.326 -52.235  1.00  0.00     0.190 C 
HETATM   10  N   UNL     1     -40.580  52.826 -52.272  1.00  0.00    -0.067 N 
HETATM   11  C   UNL     1     -40.856  54.622 -50.806  1.00  0.00     0.035 C 
HETATM   12  H   UNL     1     -41.586  52.596 -52.243  1.00  0.00     0.280 HD
HETATM   13  C   UNL     1     -40.034  52.232 -53.532  1.00  0.00     0.237 C 
HETATM   14  C   UNL     1     -39.997  52.339 -50.970  1.00  0.00     0.235 C 
HETATM   15  C   UNL     1     -40.821  52.802 -54.708  1.00  0.00     0.053 C 
HETATM   16  C   UNL     1     -40.115  53.539 -50.027  1.00  0.00     0.030 C 
ENDBRANCH   3   7
BRANCH   1  17
HETATM   17  C   UNL     1     -43.064  56.236 -58.015  1.00  0.00     0.077 A 
HETATM   18  C   UNL     1     -43.125  55.866 -59.363  1.00  0.00     0.152 A 
HETATM   19  N   UNL     1     -42.546  56.549 -60.378  1.00  0.00    -0.247 NA
HETATM   20 CL   UNL     1     -44.089  54.567 -59.961  1.00  0.00    -0.060 Cl
HETATM   21  C   UNL     1     -41.908  57.692 -60.057  1.00  0.00     0.118 A 
HETATM   22  C   UNL     1     -41.843  58.191 -58.770  1.00  0.00     0.022 A 
HETATM   23  C   UNL     1     -42.439  57.459 -57.744  1.00  0.00     0.034 A 
ENDBRANCH   1  17
TORSDOF 2
ENDMDL
MODEL 2
REMARK VINA RESULT:      -7.6      5.449      7.285
REMARK  2 active torsions:
REMARK  status: ('A' for Active; 'I' for Inactive)
REMARK    1  A    between atoms: C_6  and  N_7 
REMARK       I    between atoms: N_7  and  C_8 
REMARK       I    between atoms: C_8  and  N_9 
REMARK    2  A    between atoms: N_9  and  C_10 
ROOT
HETATM    1  N   UNL     1     -39.299  52.598 -51.203  1.00  0.00    -0.306 N 
HETATM    2  C   UNL     1     -40.002  53.694 -50.809  1.00  0.00     0.321 C 
HETATM    3  N   UNL     1     -41.211  53.927 -51.385  1.00  0.00    -0.338 N 
HETATM    4  O   UNL     1     -39.593  54.363 -49.863  1.00  0.00    -0.247 OA
HETATM    5  H   UNL     1     -38.592  52.370 -50.512  1.00  0.00     0.171 HD
HETATM    6  H   UNL     1     -41.345  53.555 -52.314  1.00  0.00     0.164 HD
ENDROOT
BRANCH   3   7
HETATM    7  C   UNL     1     -42.120  54.988 -50.979  1.00  0.00     0.089 C 
HETATM    8  C   UNL     1     -41.953  56.245 -51.852  1.00  0.00     0.058 C 
HETATM    9  C   UNL     1     -42.886  57.324 -51.349  1.00  0.00     0.190 C 
HETATM   10  N   UNL     1     -44.297  56.802 -51.408  1.00  0.00    -0.067 N 
HETATM   11  C   UNL     1     -43.001  58.585 -52.179  1.00  0.00     0.035 C 
HETATM   12  H   UNL     1     -44.461  56.454 -52.366  1.00  0.00     0.280 HD
HETATM   13  C   UNL     1     -44.526  55.649 -50.482  1.00  0.00     0.237 C 
HETATM   14  C   UNL     1     -45.183  58.010 -51.238  1.00  0.00     0.235 C 
HETATM   15  C   UNL     1     -43.584  54.519 -50.886  1.00  0.00     0.053 C 
HETATM   16  C   UNL     1     -44.311  59.187 -51.679  1.00  0.00     0.030 C 
ENDBRANCH   3   7
BRANCH   1  17
HETATM   17  C   UNL     1     -39.534  51.620 -52.198  1.00  0.00     0.077 A 
HETATM   18  C   UNL     1     -39.559  50.229 -52.052  1.00  0.00     0.152 A 
HETATM   19  N   UNL     1     -39.726  49.350 -53.068  1.00  0.00    -0.247 NA
HETATM   20 CL   UNL     1     -39.547  49.421 -50.528  1.00  0.00    -0.060 Cl
HETATM   21  C   UNL     1     -39.928  49.867 -54.295  1.00  0.00     0.118 A 
HETATM   22  C   UNL     1     -39.992  51.225 -54.547  1.00  0.00     0.022 A 
HETATM   23  C   UNL     1     -39.806  52.106 -53.482  1.00  0.00     0.034 A 
ENDBRANCH   1  17
TORSDOF 2
ENDMDL
MODEL 3
REMARK VINA RESULT:      -7.4      4.867      5.643
REMARK  2 active torsions:
REMARK  status: ('A' for Active; 'I' for Inactive)
REMARK    1  A    between atoms: C_6  and  N_7 
REMARK       I    between atoms: N_7  and  C_8 
REMARK       I    between atoms: C_8  and  N_9 
REMARK    2  A    between atoms: N_9  and  C_10 
ROOT
HETATM    1  N   UNL     1     -43.888  57.380 -51.005  1.00  0.00    -0.306 N 
HETATM    2  C   UNL     1     -43.587  56.053 -51.035  1.00  0.00     0.321 C 
HETATM    3  N   UNL     1     -42.520  55.649 -51.774  1.00  0.00    -0.338 N 
HETATM    4  O   UNL     1     -44.197  55.280 -50.298  1.00  0.00    -0.247 OA
HETATM    5  H   UNL     1     -44.482  57.584 -50.209  1.00  0.00     0.171 HD
HETATM    6  H   UNL     1     -42.268  56.236 -52.556  1.00  0.00     0.164 HD
ENDROOT
BRANCH   3   7
HETATM    7  C   UNL     1     -42.013  54.286 -51.803  1.00  0.00     0.089 C 
HETATM    8  C   UNL     1     -41.451  53.917 -53.187  1.00  0.00     0.058 C 
HETATM    9  C   UNL     1     -40.988  52.477 -53.166  1.00  0.00     0.190 C 
HETATM   10  N   UNL     1     -39.941  52.327 -52.094  1.00  0.00    -0.067 N 
HETATM   11  C   UNL     1     -40.243  51.969 -54.382  1.00  0.00     0.035 C 
HETATM   12  H   UNL     1     -39.218  53.046 -52.261  1.00  0.00     0.280 HD
HETATM   13  C   UNL     1     -40.483  52.566 -50.720  1.00  0.00     0.237 C 
HETATM   14  C   UNL     1     -39.282  50.996 -52.355  1.00  0.00     0.235 C 
HETATM   15  C   UNL     1     -41.022  53.992 -50.661  1.00  0.00     0.053 C 
HETATM   16  C   UNL     1     -39.538  50.729 -53.839  1.00  0.00     0.030 C 
ENDBRANCH   3   7
BRANCH   1  17
HETATM   17  C   UNL     1     -43.340  58.497 -51.676  1.00  0.00     0.077 A 
HETATM   18  C   UNL     1     -42.104  59.115 -51.456  1.00  0.00     0.152 A 
HETATM   19  N   UNL     1     -41.673  60.228 -52.096  1.00  0.00    -0.247 NA
HETATM   20 CL   UNL     1     -40.865  58.459 -50.452  1.00  0.00    -0.060 Cl
HETATM   21  C   UNL     1     -42.484  60.739 -53.043  1.00  0.00     0.118 A 
HETATM   22  C   UNL     1     -43.696  60.172 -53.394  1.00  0.00     0.022 A 
HETATM   23  C   UNL     1     -44.117  59.033 -52.710  1.00  0.00     0.034 A 
ENDBRANCH   1  17
TORSDOF 2
ENDMDL
MODEL 4
REMARK VINA RESULT:      -7.4      2.164      3.026
REMARK  2 active torsions:
REMARK  status: ('A' for Active; 'I' for Inactive)
REMARK    1  A    between atoms: C_6  and  N_7 
REMARK       I    between atoms: N_7  and  C_8 
REMARK       I    between atoms: C_8  and  N_9 
REMARK    2  A    between atoms: N_9  and  C_10 
ROOT
HETATM    1  N   UNL     1     -43.211  56.865 -57.838  1.00  0.00    -0.306 N 
HETATM    2  C   UNL     1     -42.876  56.311 -56.640  1.00  0.00     0.321 C 
HETATM    3  N   UNL     1     -43.485  55.153 -56.272  1.00  0.00    -0.338 N 
HETATM    4  O   UNL     1     -41.950  56.794 -55.992  1.00  0.00    -0.247 OA
HETATM    5  H   UNL     1     -42.496  57.524 -58.128  1.00  0.00     0.171 HD
HETATM    6  H   UNL     1     -44.401  54.983 -56.662  1.00  0.00     0.164 HD
ENDROOT
BRANCH   3   7
HETATM    7  C   UNL     1     -43.141  54.391 -55.082  1.00  0.00     0.089 C 
HETATM    8  C   UNL     1     -41.687  53.886 -55.130  1.00  0.00     0.058 C 
HETATM    9  C   UNL     1     -41.409  53.061 -53.893  1.00  0.00     0.190 C 
HETATM   10  N   UNL     1     -41.647  53.922 -52.680  1.00  0.00    -0.067 N 
HETATM   11  C   UNL     1     -39.981  52.614 -53.663  1.00  0.00     0.035 C 
HETATM   12  H   UNL     1     -41.094  54.786 -52.798  1.00  0.00     0.280 HD
HETATM   13  C   UNL     1     -43.077  54.337 -52.539  1.00  0.00     0.237 C 
HETATM   14  C   UNL     1     -41.026  53.177 -51.526  1.00  0.00     0.235 C 
HETATM   15  C   UNL     1     -43.466  55.141 -53.776  1.00  0.00     0.053 C 
HETATM   16  C   UNL     1     -39.981  52.269 -52.177  1.00  0.00     0.030 C 
ENDBRANCH   3   7
BRANCH   1  17
HETATM   17  C   UNL     1     -44.168  56.513 -58.817  1.00  0.00     0.077 A 
HETATM   18  C   UNL     1     -45.443  57.055 -59.010  1.00  0.00     0.152 A 
HETATM   19  N   UNL     1     -46.335  56.619 -59.932  1.00  0.00    -0.247 NA
HETATM   20 CL   UNL     1     -46.018  58.472 -58.214  1.00  0.00    -0.060 Cl
HETATM   21  C   UNL     1     -45.934  55.622 -60.745  1.00  0.00     0.118 A 
HETATM   22  C   UNL     1     -44.673  55.058 -60.691  1.00  0.00     0.022 A 
HETATM   23  C   UNL     1     -43.780  55.520 -59.725  1.00  0.00     0.034 A 
ENDBRANCH   1  17
TORSDOF 2
ENDMDL
MODEL 5
REMARK VINA RESULT:      -7.3      2.285      3.000
REMARK  2 active torsions:
REMARK  status: ('A' for Active; 'I' for Inactive)
REMARK    1  A    between atoms: C_6  and  N_7 
REMARK       I    between atoms: N_7  and  C_8 
REMARK       I    between atoms: C_8  and  N_9 
REMARK    2  A    between atoms: N_9  and  C_10 
ROOT
HETATM    1  N   UNL     1     -44.380  57.898 -58.025  1.00  0.00    -0.306 N 
HETATM    2  C   UNL     1     -43.769  57.637 -56.837  1.00  0.00     0.321 C 
HETATM    3  N   UNL     1     -43.402  56.357 -56.567  1.00  0.00    -0.338 N 
HETATM    4  O   UNL     1     -43.448  58.573 -56.107  1.00  0.00    -0.247 OA
HETATM    5  H   UNL     1     -44.324  58.888 -58.235  1.00  0.00     0.171 HD
HETATM    6  H   UNL     1     -43.936  55.631 -57.023  1.00  0.00     0.164 HD
ENDROOT
BRANCH   3   7
HETATM    7  C   UNL     1     -42.638  55.954 -55.396  1.00  0.00     0.089 C 
HETATM    8  C   UNL     1     -43.550  55.406 -54.283  1.00  0.00     0.058 C 
HETATM    9  C   UNL     1     -42.703  55.054 -53.079  1.00  0.00     0.190 C 
HETATM   10  N   UNL     1     -41.678  54.033 -53.497  1.00  0.00    -0.067 N 
HETATM   11  C   UNL     1     -43.388  54.336 -51.936  1.00  0.00     0.035 C 
HETATM   12  H   UNL     1     -42.181  53.257 -53.957  1.00  0.00     0.280 HD
HETATM   13  C   UNL     1     -40.702  54.571 -54.495  1.00  0.00     0.237 C 
HETATM   14  C   UNL     1     -41.117  53.474 -52.214  1.00  0.00     0.235 C 
HETATM   15  C   UNL     1     -41.478  55.001 -55.737  1.00  0.00     0.053 C 
HETATM   16  C   UNL     1     -42.209  53.734 -51.176  1.00  0.00     0.030 C 
ENDBRANCH   3   7
BRANCH   1  17
HETATM   17  C   UNL     1     -44.810  57.060 -59.079  1.00  0.00     0.077 A 
HETATM   18  C   UNL     1     -44.024  56.333 -59.979  1.00  0.00     0.152 A 
HETATM   19  N   UNL     1     -44.508  55.601 -61.011  1.00  0.00    -0.247 NA
HETATM   20 CL   UNL     1     -42.321  56.121 -59.816  1.00  0.00    -0.060 Cl
HETATM   21  C   UNL     1     -45.848  55.541 -61.139  1.00  0.00     0.118 A 
HETATM   22  C   UNL     1     -46.725  56.162 -60.268  1.00  0.00     0.022 A 
HETATM   23  C   UNL     1     -46.196  56.917 -59.222  1.00  0.00     0.034 A 
ENDBRANCH   1  17
TORSDOF 2
ENDMDL
MODEL 6
REMARK VINA RESULT:      -7.3      5.100      6.025
REMARK  2 active torsions:
REMARK  status: ('A' for Active; 'I' for Inactive)
REMARK    1  A    between atoms: C_6  and  N_7 
REMARK       I    between atoms: N_7  and  C_8 
REMARK       I    between atoms: C_8  and  N_9 
REMARK    2  A    between atoms: N_9  and  C_10 
ROOT
HETATM    1  N   UNL     1     -41.718  56.515 -49.771  1.00  0.00    -0.306 N 
HETATM    2  C   UNL     1     -41.639  55.166 -49.936  1.00  0.00     0.321 C 
HETATM    3  N   UNL     1     -41.425  54.680 -51.186  1.00  0.00    -0.338 N 
HETATM    4  O   UNL     1     -41.631  54.438 -48.945  1.00  0.00    -0.247 OA
HETATM    5  H   UNL     1     -41.572  56.756 -48.797  1.00  0.00     0.171 HD
HETATM    6  H   UNL     1     -41.737  55.259 -51.953  1.00  0.00     0.164 HD
ENDROOT
BRANCH   3   7
HETATM    7  C   UNL     1     -41.201  53.275 -51.491  1.00  0.00     0.089 C 
HETATM    8  C   UNL     1     -40.810  53.068 -52.965  1.00  0.00     0.058 C 
HETATM    9  C   UNL     1     -40.641  51.588 -53.229  1.00  0.00     0.190 C 
HETATM   10  N   UNL     1     -39.581  51.054 -52.303  1.00  0.00    -0.067 N 
HETATM   11  C   UNL     1     -40.088  51.182 -54.579  1.00  0.00     0.035 C 
HETATM   12  H   UNL     1     -38.742  51.646 -52.416  1.00  0.00     0.280 HD
HETATM   13  C   UNL     1     -39.979  51.134 -50.863  1.00  0.00     0.237 C 
HETATM   14  C   UNL     1     -39.216  49.695 -52.845  1.00  0.00     0.235 C 
HETATM   15  C   UNL     1     -40.219  52.600 -50.515  1.00  0.00     0.053 C 
HETATM   16  C   UNL     1     -39.612  49.755 -54.321  1.00  0.00     0.030 C 
ENDBRANCH   3   7
BRANCH   1  17
HETATM   17  C   UNL     1     -41.695  57.590 -50.689  1.00  0.00     0.077 A 
HETATM   18  C   UNL     1     -42.748  58.083 -51.468  1.00  0.00     0.152 A 
HETATM   19  N   UNL     1     -42.633  59.078 -52.379  1.00  0.00    -0.247 NA
HETATM   20 CL   UNL     1     -44.394  57.608 -51.272  1.00  0.00    -0.060 Cl
HETATM   21  C   UNL     1     -41.424  59.659 -52.498  1.00  0.00     0.118 A 
HETATM   22  C   UNL     1     -40.330  59.303 -51.731  1.00  0.00     0.022 A 
HETATM   23  C   UNL     1     -40.475  58.267 -50.810  1.00  0.00     0.034 A 
ENDBRANCH   1  17
TORSDOF 2
ENDMDL
MODEL 7
REMARK VINA RESULT:      -7.3      4.086      6.940
REMARK  2 active torsions:
REMARK  status: ('A' for Active; 'I' for Inactive)
REMARK    1  A    between atoms: C_6  and  N_7 
REMARK       I    between atoms: N_7  and  C_8 
REMARK       I    between atoms: C_8  and  N_9 
REMARK    2  A    between atoms: N_9  and  C_10 
ROOT
HETATM    1  N   UNL     1     -39.987  53.433 -54.247  1.00  0.00    -0.306 N 
HETATM    2  C   UNL     1     -40.942  54.404 -54.241  1.00  0.00     0.321 C 
HETATM    3  N   UNL     1     -42.025  54.240 -53.437  1.00  0.00    -0.338 N 
HETATM    4  O   UNL     1     -40.739  55.451 -54.854  1.00  0.00    -0.247 OA
HETATM    5  H   UNL     1     -39.122  53.799 -54.629  1.00  0.00     0.171 HD
HETATM    6  H   UNL     1     -42.279  53.288 -53.216  1.00  0.00     0.164 HD
ENDROOT
BRANCH   3   7
HETATM    7  C   UNL     1     -43.058  55.245 -53.241  1.00  0.00     0.089 C 
HETATM    8  C   UNL     1     -42.568  56.397 -52.345  1.00  0.00     0.058 C 
HETATM    9  C   UNL     1     -43.700  57.380 -52.139  1.00  0.00     0.190 C 
HETATM   10  N   UNL     1     -44.145  57.886 -53.486  1.00  0.00    -0.067 N 
HETATM   11  C   UNL     1     -43.374  58.675 -51.427  1.00  0.00     0.035 C 
HETATM   12  H   UNL     1     -43.308  58.237 -53.979  1.00  0.00     0.280 HD
HETATM   13  C   UNL     1     -44.735  56.810 -54.341  1.00  0.00     0.237 C 
HETATM   14  C   UNL     1     -45.004  59.092 -53.201  1.00  0.00     0.235 C 
HETATM   15  C   UNL     1     -43.670  55.741 -54.564  1.00  0.00     0.053 C 
HETATM   16  C   UNL     1     -44.546  59.569 -51.821  1.00  0.00     0.030 C 
ENDBRANCH   3   7
BRANCH   1  17
HETATM   17  C   UNL     1     -39.905  52.174 -53.610  1.00  0.00     0.077 A 
HETATM   18  C   UNL     1     -39.671  51.905 -52.257  1.00  0.00     0.152 A 
HETATM   19  N   UNL     1     -39.538  50.665 -51.729  1.00  0.00    -0.247 NA
HETATM   20 CL   UNL     1     -39.678  53.107 -51.021  1.00  0.00    -0.060 Cl
HETATM   21  C   UNL     1     -39.692  49.624 -52.571  1.00  0.00     0.118 A 
HETATM   22  C   UNL     1     -39.994  49.769 -53.912  1.00  0.00     0.022 A 
HETATM   23  C   UNL     1     -40.114  51.058 -54.429  1.00  0.00     0.034 A 
ENDBRANCH   1  17
TORSDOF 2
ENDMDL
MODEL 8
REMARK VINA RESULT:      -7.0     14.172     15.656
REMARK  2 active torsions:
REMARK  status: ('A' for Active; 'I' for Inactive)
REMARK    1  A    between atoms: C_6  and  N_7 
REMARK       I    between atoms: N_7  and  C_8 
REMARK       I    between atoms: C_8  and  N_9 
REMARK    2  A    between atoms: N_9  and  C_10 
ROOT
HETATM    1  N   UNL     1     -36.561  42.569 -55.139  1.00  0.00    -0.306 N 
HETATM    2  C   UNL     1     -36.051  42.069 -53.980  1.00  0.00     0.321 C 
HETATM    3  N   UNL     1     -35.876  40.725 -53.879  1.00  0.00    -0.338 N 
HETATM    4  O   UNL     1     -35.644  42.845 -53.118  1.00  0.00    -0.247 OA
HETATM    5  H   UNL     1     -36.361  43.561 -55.208  1.00  0.00     0.171 HD
HETATM    6  H   UNL     1     -36.480  40.150 -54.448  1.00  0.00     0.164 HD
ENDROOT
BRANCH   3   7
HETATM    7  C   UNL     1     -35.234  40.067 -52.752  1.00  0.00     0.089 C 
HETATM    8  C   UNL     1     -33.752  40.466 -52.630  1.00  0.00     0.058 C 
HETATM    9  C   UNL     1     -33.130  39.711 -51.475  1.00  0.00     0.190 C 
HETATM   10  N   UNL     1     -33.891  40.046 -50.219  1.00  0.00    -0.067 N 
HETATM   11  C   UNL     1     -31.719  40.090 -51.077  1.00  0.00     0.035 C 
HETATM   12  H   UNL     1     -33.923  41.076 -50.140  1.00  0.00     0.280 HD
HETATM   13  C   UNL     1     -35.308  39.569 -50.258  1.00  0.00     0.237 C 
HETATM   14  C   UNL     1     -33.029  39.561 -49.082  1.00  0.00     0.235 C 
HETATM   15  C   UNL     1     -36.008  40.246 -51.433  1.00  0.00     0.053 C 
HETATM   16  C   UNL     1     -31.615  39.524 -49.664  1.00  0.00     0.030 C 
ENDBRANCH   3   7
BRANCH   1  17
HETATM   17  C   UNL     1     -37.048  41.949 -56.313  1.00  0.00     0.077 A 
HETATM   18  C   UNL     1     -38.235  41.227 -56.479  1.00  0.00     0.152 A 
HETATM   19  N   UNL     1     -38.604  40.602 -57.622  1.00  0.00    -0.247 NA
HETATM   20 CL   UNL     1     -39.493  41.159 -55.301  1.00  0.00    -0.060 Cl
HETATM   21  C   UNL     1     -37.781  40.732 -58.681  1.00  0.00     0.118 A 
HETATM   22  C   UNL     1     -36.618  41.479 -58.653  1.00  0.00     0.022 A 
HETATM   23  C   UNL     1     -36.258  42.102 -57.459  1.00  0.00     0.034 A 
ENDBRANCH   1  17
TORSDOF 2
ENDMDL
MODEL 9
REMARK VINA RESULT:      -7.0      3.121      7.525
REMARK  2 active torsions:
REMARK  status: ('A' for Active; 'I' for Inactive)
REMARK    1  A    between atoms: C_6  and  N_7 
REMARK       I    between atoms: N_7  and  C_8 
REMARK       I    between atoms: C_8  and  N_9 
REMARK    2  A    between atoms: N_9  and  C_10 
ROOT
HETATM    1  N   UNL     1     -44.086  56.469 -52.606  1.00  0.00    -0.306 N 
HETATM    2  C   UNL     1     -44.243  56.851 -53.903  1.00  0.00     0.321 C 
HETATM    3  N   UNL     1     -43.257  56.550 -54.789  1.00  0.00    -0.338 N 
HETATM    4  O   UNL     1     -45.315  57.334 -54.263  1.00  0.00    -0.247 OA
HETATM    5  H   UNL     1     -44.982  56.472 -52.132  1.00  0.00     0.171 HD
HETATM    6  H   UNL     1     -42.328  56.446 -54.408  1.00  0.00     0.164 HD
ENDROOT
BRANCH   3   7
HETATM    7  C   UNL     1     -43.343  56.790 -56.221  1.00  0.00     0.089 C 
HETATM    8  C   UNL     1     -42.620  58.088 -56.625  1.00  0.00     0.058 C 
HETATM    9  C   UNL     1     -42.788  58.306 -58.112  1.00  0.00     0.190 C 
HETATM   10  N   UNL     1     -42.219  57.116 -58.838  1.00  0.00    -0.067 N 
HETATM   11  C   UNL     1     -42.006  59.439 -58.741  1.00  0.00     0.035 C 
HETATM   12  H   UNL     1     -41.255  56.973 -58.494  1.00  0.00     0.280 HD
HETATM   13  C   UNL     1     -42.971  55.854 -58.558  1.00  0.00     0.237 C 
HETATM   14  C   UNL     1     -42.095  57.541 -60.279  1.00  0.00     0.235 C 
HETATM   15  C   UNL     1     -42.897  55.577 -57.059  1.00  0.00     0.053 C 
HETATM   16  C   UNL     1     -42.024  59.068 -60.221  1.00  0.00     0.030 C 
ENDBRANCH   3   7
BRANCH   1  17
HETATM   17  C   UNL     1     -43.019  55.848 -51.918  1.00  0.00     0.077 A 
HETATM   18  C   UNL     1     -41.934  56.456 -51.278  1.00  0.00     0.152 A 
HETATM   19  N   UNL     1     -40.910  55.790 -50.694  1.00  0.00    -0.247 NA
HETATM   20 CL   UNL     1     -41.815  58.152 -50.990  1.00  0.00    -0.060 Cl
HETATM   21  C   UNL     1     -40.978  54.445 -50.696  1.00  0.00     0.118 A 
HETATM   22  C   UNL     1     -42.036  53.737 -51.236  1.00  0.00     0.022 A 
HETATM   23  C   UNL     1     -43.070  54.450 -51.841  1.00  0.00     0.034 A 
ENDBRANCH   1  17
TORSDOF 2
ENDMDL
MODEL 10
REMARK VINA RESULT:      -6.9      3.195      7.739
REMARK  2 active torsions:
REMARK  status: ('A' for Active; 'I' for Inactive)
REMARK    1  A    between atoms: C_6  and  N_7 
REMARK       I    between atoms: N_7  and  C_8 
REMARK       I    between atoms: C_8  and  N_9 
REMARK    2  A    between atoms: N_9  and  C_10 
ROOT
HETATM    1  N   UNL     1     -41.573  57.456 -53.086  1.00  0.00    -0.306 N 
HETATM    2  C   UNL     1     -41.874  57.767 -54.376  1.00  0.00     0.321 C 
HETATM    3  N   UNL     1     -42.683  56.925 -55.071  1.00  0.00    -0.338 N 
HETATM    4  O   UNL     1     -41.522  58.853 -54.832  1.00  0.00    -0.247 OA
HETATM    5  H   UNL     1     -41.235  58.279 -52.600  1.00  0.00     0.171 HD
HETATM    6  H   UNL     1     -42.684  55.959 -54.777  1.00  0.00     0.164 HD
ENDROOT
BRANCH   3   7
HETATM    7  C   UNL     1     -43.183  57.190 -56.411  1.00  0.00     0.089 C 
HETATM    8  C   UNL     1     -43.146  55.928 -57.292  1.00  0.00     0.058 C 
HETATM    9  C   UNL     1     -43.629  56.281 -58.682  1.00  0.00     0.190 C 
HETATM   10  N   UNL     1     -45.026  56.832 -58.578  1.00  0.00    -0.067 N 
HETATM   11  C   UNL     1     -43.832  55.140 -59.657  1.00  0.00     0.035 C 
HETATM   12  H   UNL     1     -45.592  56.150 -58.047  1.00  0.00     0.280 HD
HETATM   13  C   UNL     1     -45.082  58.123 -57.824  1.00  0.00     0.237 C 
HETATM   14  C   UNL     1     -45.568  56.829 -59.984  1.00  0.00     0.235 C 
HETATM   15  C   UNL     1     -44.564  57.874 -56.411  1.00  0.00     0.053 C 
HETATM   16  C   UNL     1     -44.740  55.768 -60.710  1.00  0.00     0.030 C 
ENDBRANCH   3   7
BRANCH   1  17
HETATM   17  C   UNL     1     -41.879  56.337 -52.278  1.00  0.00     0.077 A 
HETATM   18  C   UNL     1     -42.927  56.195 -51.362  1.00  0.00     0.152 A 
HETATM   19  N   UNL     1     -43.120  55.113 -50.571  1.00  0.00    -0.247 NA
HETATM   20 CL   UNL     1     -44.234  57.311 -51.215  1.00  0.00    -0.060 Cl
HETATM   21  C   UNL     1     -42.260  54.087 -50.722  1.00  0.00     0.118 A 
HETATM   22  C   UNL     1     -41.230  54.088 -51.644  1.00  0.00     0.022 A 
HETATM   23  C   UNL     1     -41.050  55.220 -52.437  1.00  0.00     0.034 A 
ENDBRANCH   1  17
TORSDOF 2
ENDMDL
