MODEL 1
REMARK VINA RESULT:      -8.7      0.000      0.000
REMARK  3 active torsions:
REMARK  status: ('A' for Active; 'I' for Inactive)
REMARK    1  A    between atoms: C_6  and  C_7 
REMARK    2  A    between atoms: C_7  and  N_8 
REMARK    3  A    between atoms: C_12  and  C_13 
ROOT
HETATM    1  N   UNL     1     -42.031  55.401 -56.028  1.00  0.00    -0.066 N 
HETATM    2  H   UNL     1     -41.590  54.993 -56.862  1.00  0.00     0.280 HD
HETATM    3  C   UNL     1     -40.929  55.668 -55.025  1.00  0.00     0.236 C 
HETATM    4  C   UNL     1     -40.271  54.353 -54.614  1.00  0.00     0.037 C 
HETATM    5  C   UNL     1     -41.291  53.357 -54.024  1.00  0.00     0.024 C 
HETATM    6  C   UNL     1     -42.343  53.117 -55.112  1.00  0.00     0.037 C 
HETATM    7  C   UNL     1     -43.046  54.403 -55.520  1.00  0.00     0.236 C 
ENDROOT
BRANCH   1   8
HETATM    8  C   UNL     1     -42.715  56.672 -56.489  1.00  0.00     0.293 C 
BRANCH   8   9
HETATM    9  C   UNL     1     -42.615  56.875 -57.947  1.00  0.00     0.061 A 
HETATM   10  N   UNL     1     -42.343  58.086 -58.564  1.00  0.00    -0.308 N 
HETATM   11  C   UNL     1     -42.354  57.839 -59.935  1.00  0.00     0.134 A 
HETATM   12  C   UNL     1     -42.090  59.350 -58.028  1.00  0.00     0.099 A 
HETATM   13  C   UNL     1     -42.101  58.935 -60.806  1.00  0.00     0.057 A 
HETATM   14  N   UNL     1     -42.617  56.578 -60.195  1.00  0.00    -0.241 NA
HETATM   15  C   UNL     1     -41.860  60.164 -60.301  1.00  0.00    -0.057 A 
HETATM   16  C   UNL     1     -41.605  61.360 -61.171  1.00  0.00     0.048 C 
HETATM   17  C   UNL     1     -41.851  60.382 -58.856  1.00  0.00     0.024 A 
HETATM   18  C   UNL     1     -42.813  55.984 -58.984  1.00  0.00     0.146 A 
ENDBRANCH   8   9
ENDBRANCH   1   8
BRANCH   5  19
HETATM   19  C   UNL     1     -41.835  53.809 -52.674  1.00  0.00    -0.024 A 
HETATM   20  C   UNL     1     -41.160  53.971 -51.405  1.00  0.00     0.018 A 
HETATM   21  C   UNL     1     -42.121  54.373 -50.479  1.00  0.00     0.138 A 
HETATM   22  C   UNL     1     -39.852  53.833 -50.897  1.00  0.00     0.017 A 
HETATM   23  N   UNL     1     -41.968  54.600 -49.164  1.00  0.00    -0.242 NA
HETATM   24  N   UNL     1     -43.304  54.541 -51.132  1.00  0.00    -0.350 N 
HETATM   25  C   UNL     1     -40.702  54.438 -48.736  1.00  0.00     0.119 A 
HETATM   26  C   UNL     1     -39.632  54.070 -49.537  1.00  0.00     0.020 A 
HETATM   27  H   UNL     1     -44.143  54.881 -50.684  1.00  0.00     0.166 HD
HETATM   28  C   UNL     1     -43.146  54.218 -52.453  1.00  0.00     0.098 A 
ENDBRANCH   5  19
TORSDOF 3
ENDMDL
MODEL 2
REMARK VINA RESULT:      -8.5      4.350      5.829
REMARK  3 active torsions:
REMARK  status: ('A' for Active; 'I' for Inactive)
REMARK    1  A    between atoms: C_6  and  C_7 
REMARK    2  A    between atoms: C_7  and  N_8 
REMARK    3  A    between atoms: C_12  and  C_13 
ROOT
HETATM    1  N   UNL     1     -42.918  56.294 -53.532  1.00  0.00    -0.066 N 
HETATM    2  H   UNL     1     -43.111  56.832 -54.387  1.00  0.00     0.280 HD
HETATM    3  C   UNL     1     -41.436  56.421 -53.249  1.00  0.00     0.236 C 
HETATM    4  C   UNL     1     -40.634  55.798 -54.389  1.00  0.00     0.037 C 
HETATM    5  C   UNL     1     -41.003  54.316 -54.612  1.00  0.00     0.024 C 
HETATM    6  C   UNL     1     -42.502  54.285 -54.927  1.00  0.00     0.037 C 
HETATM    7  C   UNL     1     -43.335  54.865 -53.794  1.00  0.00     0.236 C 
ENDROOT
BRANCH   1   8
HETATM    8  C   UNL     1     -43.771  56.909 -52.442  1.00  0.00     0.293 C 
BRANCH   8   9
HETATM    9  C   UNL     1     -44.140  58.308 -52.730  1.00  0.00     0.061 A 
HETATM   10  N   UNL     1     -43.688  59.412 -52.023  1.00  0.00    -0.308 N 
HETATM   11  C   UNL     1     -44.285  60.526 -52.609  1.00  0.00     0.134 A 
HETATM   12  C   UNL     1     -42.813  59.508 -50.938  1.00  0.00     0.099 A 
HETATM   13  C   UNL     1     -43.982  61.803 -52.060  1.00  0.00     0.057 A 
HETATM   14  N   UNL     1     -45.066  60.182 -53.608  1.00  0.00    -0.241 NA
HETATM   15  C   UNL     1     -43.143  61.910 -51.008  1.00  0.00    -0.057 A 
HETATM   16  C   UNL     1     -42.803  63.228 -50.376  1.00  0.00     0.048 C 
HETATM   17  C   UNL     1     -42.532  60.718 -50.424  1.00  0.00     0.024 A 
HETATM   18  C   UNL     1     -45.012  58.822 -53.670  1.00  0.00     0.146 A 
ENDBRANCH   8   9
ENDBRANCH   1   8
BRANCH   5  19
HETATM   19  C   UNL     1     -40.556  53.424 -53.460  1.00  0.00    -0.024 A 
HETATM   20  C   UNL     1     -40.198  52.022 -53.453  1.00  0.00     0.018 A 
HETATM   21  C   UNL     1     -39.899  51.683 -52.135  1.00  0.00     0.138 A 
HETATM   22  C   UNL     1     -40.084  50.973 -54.388  1.00  0.00     0.017 A 
HETATM   23  N   UNL     1     -39.560  50.481 -51.640  1.00  0.00    -0.242 NA
HETATM   24  N   UNL     1     -39.973  52.810 -51.374  1.00  0.00    -0.350 N 
HETATM   25  C   UNL     1     -39.481  49.518 -52.578  1.00  0.00     0.119 A 
HETATM   26  C   UNL     1     -39.721  49.704 -53.930  1.00  0.00     0.020 A 
HETATM   27  H   UNL     1     -39.747  52.831 -50.390  1.00  0.00     0.166 HD
HETATM   28  C   UNL     1     -40.355  53.866 -52.157  1.00  0.00     0.098 A 
ENDBRANCH   5  19
TORSDOF 3
ENDMDL
MODEL 3
REMARK VINA RESULT:      -8.4      4.554      8.215
REMARK  3 active torsions:
REMARK  status: ('A' for Active; 'I' for Inactive)
REMARK    1  A    between atoms: C_6  and  C_7 
REMARK    2  A    between atoms: C_7  and  N_8 
REMARK    3  A    between atoms: C_12  and  C_13 
ROOT
HETATM    1  N   UNL     1     -41.193  56.557 -51.802  1.00  0.00    -0.066 N 
HETATM    2  H   UNL     1     -40.219  56.253 -51.675  1.00  0.00     0.280 HD
HETATM    3  C   UNL     1     -41.277  57.228 -53.156  1.00  0.00     0.236 C 
HETATM    4  C   UNL     1     -40.390  58.470 -53.179  1.00  0.00     0.037 C 
HETATM    5  C   UNL     1     -40.772  59.472 -52.069  1.00  0.00     0.024 C 
HETATM    6  C   UNL     1     -40.623  58.725 -50.739  1.00  0.00     0.037 C 
HETATM    7  C   UNL     1     -41.524  57.500 -50.669  1.00  0.00     0.236 C 
ENDROOT
BRANCH   1   8
HETATM    8  C   UNL     1     -42.042  55.305 -51.722  1.00  0.00     0.293 C 
BRANCH   8   9
HETATM    9  C   UNL     1     -41.252  54.102 -51.398  1.00  0.00     0.061 A 
HETATM   10  N   UNL     1     -40.852  53.143 -52.316  1.00  0.00    -0.308 N 
HETATM   11  C   UNL     1     -40.148  52.180 -51.597  1.00  0.00     0.134 A 
HETATM   12  C   UNL     1     -41.051  53.058 -53.696  1.00  0.00     0.099 A 
HETATM   13  C   UNL     1     -39.624  51.070 -52.316  1.00  0.00     0.057 A 
HETATM   14  N   UNL     1     -40.097  52.478 -50.318  1.00  0.00    -0.241 NA
HETATM   15  C   UNL     1     -39.814  50.972 -53.649  1.00  0.00    -0.057 A 
HETATM   16  C   UNL     1     -39.300  49.815 -54.456  1.00  0.00     0.048 C 
HETATM   17  C   UNL     1     -40.553  52.007 -54.370  1.00  0.00     0.024 A 
HETATM   18  C   UNL     1     -40.800  53.636 -50.179  1.00  0.00     0.146 A 
ENDBRANCH   8   9
ENDBRANCH   1   8
BRANCH   5  19
HETATM   19  C   UNL     1     -42.130  60.119 -52.310  1.00  0.00    -0.024 A 
HETATM   20  C   UNL     1     -43.053  60.722 -51.373  1.00  0.00     0.018 A 
HETATM   21  C   UNL     1     -44.168  61.131 -52.104  1.00  0.00     0.138 A 
HETATM   22  C   UNL     1     -43.108  60.985 -49.989  1.00  0.00     0.017 A 
HETATM   23  N   UNL     1     -45.298  61.701 -51.652  1.00  0.00    -0.242 NA
HETATM   24  N   UNL     1     -43.931  60.887 -53.422  1.00  0.00    -0.350 N 
HETATM   25  C   UNL     1     -45.296  61.913 -50.322  1.00  0.00     0.119 A 
HETATM   26  C   UNL     1     -44.255  61.589 -49.467  1.00  0.00     0.020 A 
HETATM   27  H   UNL     1     -44.572  61.146 -54.159  1.00  0.00     0.166 HD
HETATM   28  C   UNL     1     -42.707  60.289 -53.564  1.00  0.00     0.098 A 
ENDBRANCH   5  19
TORSDOF 3
ENDMDL
MODEL 4
REMARK VINA RESULT:      -8.4      3.703      5.599
REMARK  3 active torsions:
REMARK  status: ('A' for Active; 'I' for Inactive)
REMARK    1  A    between atoms: C_6  and  C_7 
REMARK    2  A    between atoms: C_7  and  N_8 
REMARK    3  A    between atoms: C_12  and  C_13 
ROOT
HETATM    1  N   UNL     1     -41.786  57.480 -50.474  1.00  0.00    -0.066 N 
HETATM    2  H   UNL     1     -42.204  57.760 -49.578  1.00  0.00     0.280 HD
HETATM    3  C   UNL     1     -42.924  57.125 -51.406  1.00  0.00     0.236 C 
HETATM    4  C   UNL     1     -43.697  55.931 -50.853  1.00  0.00     0.037 C 
HETATM    5  C   UNL     1     -42.786  54.703 -50.642  1.00  0.00     0.024 C 
HETATM    6  C   UNL     1     -41.690  55.138 -49.663  1.00  0.00     0.037 C 
HETATM    7  C   UNL     1     -40.876  56.305 -50.201  1.00  0.00     0.236 C 
ENDROOT
BRANCH   1   8
HETATM    8  C   UNL     1     -40.988  58.672 -50.962  1.00  0.00     0.293 C 
BRANCH   8   9
HETATM    9  C   UNL     1     -41.845  59.799 -51.376  1.00  0.00     0.061 A 
HETATM   10  N   UNL     1     -42.114  60.153 -52.690  1.00  0.00    -0.308 N 
HETATM   11  C   UNL     1     -42.945  61.270 -52.634  1.00  0.00     0.134 A 
HETATM   12  C   UNL     1     -41.699  59.581 -53.895  1.00  0.00     0.099 A 
HETATM   13  C   UNL     1     -43.370  61.838 -53.866  1.00  0.00     0.057 A 
HETATM   14  N   UNL     1     -43.194  61.622 -51.393  1.00  0.00    -0.241 NA
HETATM   15  C   UNL     1     -42.972  61.299 -55.039  1.00  0.00    -0.057 A 
HETATM   16  C   UNL     1     -43.375  61.868 -56.368  1.00  0.00     0.048 C 
HETATM   17  C   UNL     1     -42.105  60.123 -55.056  1.00  0.00     0.024 A 
HETATM   18  C   UNL     1     -42.497  60.748 -50.613  1.00  0.00     0.146 A 
ENDBRANCH   8   9
ENDBRANCH   1   8
BRANCH   5  19
HETATM   19  C   UNL     1     -42.294  54.108 -51.956  1.00  0.00    -0.024 A 
HETATM   20  C   UNL     1     -41.219  53.174 -52.211  1.00  0.00     0.018 A 
HETATM   21  C   UNL     1     -41.162  52.983 -53.590  1.00  0.00     0.138 A 
HETATM   22  C   UNL     1     -40.271  52.450 -51.460  1.00  0.00     0.017 A 
HETATM   23  N   UNL     1     -40.294  52.236 -54.293  1.00  0.00    -0.242 NA
HETATM   24  N   UNL     1     -42.184  53.677 -54.163  1.00  0.00    -0.350 N 
HETATM   25  C   UNL     1     -39.404  51.582 -53.522  1.00  0.00     0.119 A 
HETATM   26  C   UNL     1     -39.351  51.646 -52.139  1.00  0.00     0.020 A 
HETATM   27  H   UNL     1     -42.385  53.653 -55.153  1.00  0.00     0.166 HD
HETATM   28  C   UNL     1     -42.880  54.348 -53.194  1.00  0.00     0.098 A 
ENDBRANCH   5  19
TORSDOF 3
ENDMDL
MODEL 5
REMARK VINA RESULT:      -8.3      2.057      8.848
REMARK  3 active torsions:
REMARK  status: ('A' for Active; 'I' for Inactive)
REMARK    1  A    between atoms: C_6  and  C_7 
REMARK    2  A    between atoms: C_7  and  N_8 
REMARK    3  A    between atoms: C_12  and  C_13 
ROOT
HETATM    1  N   UNL     1     -42.551  56.258 -52.739  1.00  0.00    -0.066 N 
HETATM    2  H   UNL     1     -43.225  55.819 -52.098  1.00  0.00     0.280 HD
HETATM    3  C   UNL     1     -43.045  57.662 -53.013  1.00  0.00     0.236 C 
HETATM    4  C   UNL     1     -44.399  57.609 -53.717  1.00  0.00     0.037 C 
HETATM    5  C   UNL     1     -44.334  56.807 -55.033  1.00  0.00     0.024 C 
HETATM    6  C   UNL     1     -43.864  55.397 -54.659  1.00  0.00     0.037 C 
HETATM    7  C   UNL     1     -42.498  55.410 -53.989  1.00  0.00     0.236 C 
ENDROOT
BRANCH   1   8
HETATM    8  C   UNL     1     -41.215  56.243 -52.026  1.00  0.00     0.293 C 
BRANCH   8   9
HETATM    9  C   UNL     1     -41.147  55.218 -50.966  1.00  0.00     0.061 A 
HETATM   10  N   UNL     1     -40.700  53.918 -51.145  1.00  0.00    -0.308 N 
HETATM   11  C   UNL     1     -40.814  53.290 -49.906  1.00  0.00     0.134 A 
HETATM   12  C   UNL     1     -40.210  53.266 -52.279  1.00  0.00     0.099 A 
HETATM   13  C   UNL     1     -40.416  51.927 -49.818  1.00  0.00     0.057 A 
HETATM   14  N   UNL     1     -41.300  54.104 -48.997  1.00  0.00    -0.241 NA
HETATM   15  C   UNL     1     -39.946  51.283 -50.908  1.00  0.00    -0.057 A 
HETATM   16  C   UNL     1     -39.529  49.841 -50.878  1.00  0.00     0.048 C 
HETATM   17  C   UNL     1     -39.835  51.979 -52.188  1.00  0.00     0.024 A 
HETATM   18  C   UNL     1     -41.541  55.280 -49.643  1.00  0.00     0.146 A 
ENDBRANCH   8   9
ENDBRANCH   1   8
BRANCH   5  19
HETATM   19  C   UNL     1     -43.511  57.510 -56.105  1.00  0.00    -0.024 A 
HETATM   20  C   UNL     1     -43.163  57.081 -57.443  1.00  0.00     0.018 A 
HETATM   21  C   UNL     1     -42.362  58.080 -57.996  1.00  0.00     0.138 A 
HETATM   22  C   UNL     1     -43.414  55.974 -58.278  1.00  0.00     0.017 A 
HETATM   23  N   UNL     1     -41.768  58.099 -59.201  1.00  0.00    -0.242 NA
HETATM   24  N   UNL     1     -42.282  59.108 -57.108  1.00  0.00    -0.350 N 
HETATM   25  C   UNL     1     -42.033  57.009 -59.946  1.00  0.00     0.119 A 
HETATM   26  C   UNL     1     -42.831  55.948 -59.549  1.00  0.00     0.020 A 
HETATM   27  H   UNL     1     -41.799  59.974 -57.303  1.00  0.00     0.166 HD
HETATM   28  C   UNL     1     -42.975  58.787 -55.972  1.00  0.00     0.098 A 
ENDBRANCH   5  19
TORSDOF 3
ENDMDL
MODEL 6
REMARK VINA RESULT:      -8.2      3.929      5.626
REMARK  3 active torsions:
REMARK  status: ('A' for Active; 'I' for Inactive)
REMARK    1  A    between atoms: C_6  and  C_7 
REMARK    2  A    between atoms: C_7  and  N_8 
REMARK    3  A    between atoms: C_12  and  C_13 
ROOT
HETATM    1  N   UNL     1     -42.777  57.459 -55.336  1.00  0.00    -0.066 N 
HETATM    2  H   UNL     1     -43.462  57.548 -56.097  1.00  0.00     0.280 HD
HETATM    3  C   UNL     1     -41.805  56.370 -55.736  1.00  0.00     0.236 C 
HETATM    4  C   UNL     1     -42.540  55.038 -55.867  1.00  0.00     0.037 C 
HETATM    5  C   UNL     1     -43.261  54.647 -54.560  1.00  0.00     0.024 C 
HETATM    6  C   UNL     1     -44.246  55.780 -54.251  1.00  0.00     0.037 C 
HETATM    7  C   UNL     1     -43.541  57.117 -54.078  1.00  0.00     0.236 C 
ENDROOT
BRANCH   1   8
HETATM    8  C   UNL     1     -42.109  58.812 -55.206  1.00  0.00     0.293 C 
BRANCH   8   9
HETATM    9  C   UNL     1     -41.659  59.094 -53.829  1.00  0.00     0.061 A 
HETATM   10  N   UNL     1     -42.362  59.849 -52.902  1.00  0.00    -0.308 N 
HETATM   11  C   UNL     1     -41.582  59.877 -51.747  1.00  0.00     0.134 A 
HETATM   12  C   UNL     1     -43.599  60.490 -52.992  1.00  0.00     0.099 A 
HETATM   13  C   UNL     1     -42.084  60.599 -50.629  1.00  0.00     0.057 A 
HETATM   14  N   UNL     1     -40.464  59.206 -51.906  1.00  0.00    -0.241 NA
HETATM   15  C   UNL     1     -43.277  61.228 -50.705  1.00  0.00    -0.057 A 
HETATM   16  C   UNL     1     -43.847  62.020 -49.564  1.00  0.00     0.048 C 
HETATM   17  C   UNL     1     -44.068  61.170 -51.932  1.00  0.00     0.024 A 
HETATM   18  C   UNL     1     -40.484  58.750 -53.190  1.00  0.00     0.146 A 
ENDBRANCH   8   9
ENDBRANCH   1   8
BRANCH   5  19
HETATM   19  C   UNL     1     -42.289  54.299 -53.439  1.00  0.00    -0.024 A 
HETATM   20  C   UNL     1     -41.290  53.256 -53.363  1.00  0.00     0.018 A 
HETATM   21  C   UNL     1     -40.696  53.349 -52.105  1.00  0.00     0.138 A 
HETATM   22  C   UNL     1     -40.793  52.229 -54.191  1.00  0.00     0.017 A 
HETATM   23  N   UNL     1     -39.749  52.561 -51.570  1.00  0.00    -0.242 NA
HETATM   24  N   UNL     1     -41.219  54.429 -51.462  1.00  0.00    -0.350 N 
HETATM   25  C   UNL     1     -39.327  51.591 -52.402  1.00  0.00     0.119 A 
HETATM   26  C   UNL     1     -39.796  51.387 -53.690  1.00  0.00     0.020 A 
HETATM   27  H   UNL     1     -40.909  54.738 -50.551  1.00  0.00     0.166 HD
HETATM   28  C   UNL     1     -42.168  55.018 -52.254  1.00  0.00     0.098 A 
ENDBRANCH   5  19
TORSDOF 3
ENDMDL
MODEL 7
REMARK VINA RESULT:      -8.2      3.749      5.120
REMARK  3 active torsions:
REMARK  status: ('A' for Active; 'I' for Inactive)
REMARK    1  A    between atoms: C_6  and  C_7 
REMARK    2  A    between atoms: C_7  and  N_8 
REMARK    3  A    between atoms: C_12  and  C_13 
ROOT
HETATM    1  N   UNL     1     -42.884  56.213 -53.603  1.00  0.00    -0.066 N 
HETATM    2  H   UNL     1     -43.112  56.712 -54.473  1.00  0.00     0.280 HD
HETATM    3  C   UNL     1     -41.387  56.322 -53.406  1.00  0.00     0.236 C 
HETATM    4  C   UNL     1     -40.659  55.626 -54.553  1.00  0.00     0.037 C 
HETATM    5  C   UNL     1     -41.067  54.143 -54.679  1.00  0.00     0.024 C 
HETATM    6  C   UNL     1     -42.582  54.128 -54.912  1.00  0.00     0.037 C 
HETATM    7  C   UNL     1     -43.342  54.783 -53.768  1.00  0.00     0.236 C 
ENDROOT
BRANCH   1   8
HETATM    8  C   UNL     1     -43.665  56.901 -52.502  1.00  0.00     0.293 C 
BRANCH   8   9
HETATM    9  C   UNL     1     -43.229  58.293 -52.281  1.00  0.00     0.061 A 
HETATM   10  N   UNL     1     -43.428  59.340 -53.169  1.00  0.00    -0.308 N 
HETATM   11  C   UNL     1     -42.855  60.466 -52.582  1.00  0.00     0.134 A 
HETATM   12  C   UNL     1     -44.059  59.376 -54.414  1.00  0.00     0.099 A 
HETATM   13  C   UNL     1     -42.922  61.691 -53.302  1.00  0.00     0.057 A 
HETATM   14  N   UNL     1     -42.322  60.182 -51.416  1.00  0.00    -0.241 NA
HETATM   15  C   UNL     1     -43.525  61.740 -54.509  1.00  0.00    -0.057 A 
HETATM   16  C   UNL     1     -43.609  62.999 -55.321  1.00  0.00     0.048 C 
HETATM   17  C   UNL     1     -44.119  60.537 -55.088  1.00  0.00     0.024 A 
HETATM   18  C   UNL     1     -42.514  58.845 -51.235  1.00  0.00     0.146 A 
ENDBRANCH   8   9
ENDBRANCH   1   8
BRANCH   5  19
HETATM   19  C   UNL     1     -40.576  53.300 -53.509  1.00  0.00    -0.024 A 
HETATM   20  C   UNL     1     -40.194  51.906 -53.461  1.00  0.00     0.018 A 
HETATM   21  C   UNL     1     -39.855  51.620 -52.139  1.00  0.00     0.138 A 
HETATM   22  C   UNL     1     -40.084  50.826 -54.361  1.00  0.00     0.017 A 
HETATM   23  N   UNL     1     -39.483  50.442 -51.611  1.00  0.00    -0.242 NA
HETATM   24  N   UNL     1     -39.931  52.771 -51.417  1.00  0.00    -0.350 N 
HETATM   25  C   UNL     1     -39.410  49.448 -52.515  1.00  0.00     0.119 A 
HETATM   26  C   UNL     1     -39.687  49.580 -53.867  1.00  0.00     0.020 A 
HETATM   27  H   UNL     1     -39.680  52.832 -50.441  1.00  0.00     0.166 HD
HETATM   28  C   UNL     1     -40.351  53.792 -52.227  1.00  0.00     0.098 A 
ENDBRANCH   5  19
TORSDOF 3
ENDMDL
MODEL 8
REMARK VINA RESULT:      -8.0     15.513     19.198
REMARK  3 active torsions:
REMARK  status: ('A' for Active; 'I' for Inactive)
REMARK    1  A    between atoms: C_6  and  C_7 
REMARK    2  A    between atoms: C_7  and  N_8 
REMARK    3  A    between atoms: C_12  and  C_13 
ROOT
HETATM    1  N   UNL     1     -34.747  40.936 -55.400  1.00  0.00    -0.066 N 
HETATM    2  H   UNL     1     -34.933  41.016 -54.393  1.00  0.00     0.280 HD
HETATM    3  C   UNL     1     -35.259  42.202 -56.052  1.00  0.00     0.236 C 
HETATM    4  C   UNL     1     -36.770  42.312 -55.860  1.00  0.00     0.037 C 
HETATM    5  C   UNL     1     -37.514  41.087 -56.432  1.00  0.00     0.024 C 
HETATM    6  C   UNL     1     -36.963  39.861 -55.695  1.00  0.00     0.037 C 
HETATM    7  C   UNL     1     -35.463  39.701 -55.896  1.00  0.00     0.236 C 
ENDROOT
BRANCH   1   8
HETATM    8  C   UNL     1     -33.247  40.777 -55.542  1.00  0.00     0.293 C 
BRANCH   8   9
HETATM    9  C   UNL     1     -32.684  39.808 -54.583  1.00  0.00     0.061 A 
HETATM   10  N   UNL     1     -32.692  39.957 -53.205  1.00  0.00    -0.308 N 
HETATM   11  C   UNL     1     -32.053  38.833 -52.684  1.00  0.00     0.134 A 
HETATM   12  C   UNL     1     -33.207  40.974 -52.397  1.00  0.00     0.099 A 
HETATM   13  C   UNL     1     -31.926  38.742 -51.271  1.00  0.00     0.057 A 
HETATM   14  N   UNL     1     -31.655  38.022 -53.638  1.00  0.00    -0.241 NA
HETATM   15  C   UNL     1     -32.414  39.721 -50.478  1.00  0.00    -0.057 A 
HETATM   16  C   UNL     1     -32.292  39.686 -48.983  1.00  0.00     0.048 C 
HETATM   17  C   UNL     1     -33.084  40.881 -51.062  1.00  0.00     0.024 A 
HETATM   18  C   UNL     1     -32.006  38.625 -54.808  1.00  0.00     0.146 A 
ENDBRANCH   8   9
ENDBRANCH   1   8
BRANCH   5  19
HETATM   19  C   UNL     1     -37.448  41.022 -57.953  1.00  0.00    -0.024 A 
HETATM   20  C   UNL     1     -37.793  39.944 -58.854  1.00  0.00     0.018 A 
HETATM   21  C   UNL     1     -37.514  40.387 -60.147  1.00  0.00     0.138 A 
HETATM   22  C   UNL     1     -38.309  38.636 -58.762  1.00  0.00     0.017 A 
HETATM   23  N   UNL     1     -37.632  39.713 -61.302  1.00  0.00    -0.242 NA
HETATM   24  N   UNL     1     -37.106  41.684 -60.078  1.00  0.00    -0.350 N 
HETATM   25  C   UNL     1     -38.115  38.466 -61.148  1.00  0.00     0.119 A 
HETATM   26  C   UNL     1     -38.466  37.893 -59.936  1.00  0.00     0.020 A 
HETATM   27  H   UNL     1     -36.896  42.245 -60.891  1.00  0.00     0.166 HD
HETATM   28  C   UNL     1     -37.072  42.084 -58.768  1.00  0.00     0.098 A 
ENDBRANCH   5  19
TORSDOF 3
ENDMDL
MODEL 9
REMARK VINA RESULT:      -7.8      2.266      8.235
REMARK  3 active torsions:
REMARK  status: ('A' for Active; 'I' for Inactive)
REMARK    1  A    between atoms: C_6  and  C_7 
REMARK    2  A    between atoms: C_7  and  N_8 
REMARK    3  A    between atoms: C_12  and  C_13 
ROOT
HETATM    1  N   UNL     1     -43.870  57.846 -54.121  1.00  0.00    -0.066 N 
HETATM    2  H   UNL     1     -44.093  58.675 -53.556  1.00  0.00     0.280 HD
HETATM    3  C   UNL     1     -42.605  58.157 -54.891  1.00  0.00     0.236 C 
HETATM    4  C   UNL     1     -42.849  59.323 -55.844  1.00  0.00     0.037 C 
HETATM    5  C   UNL     1     -44.006  59.035 -56.825  1.00  0.00     0.024 C 
HETATM    6  C   UNL     1     -45.247  58.769 -55.966  1.00  0.00     0.037 C 
HETATM    7  C   UNL     1     -45.050  57.587 -55.029  1.00  0.00     0.236 C 
ENDROOT
BRANCH   1   8
HETATM    8  C   UNL     1     -43.687  56.703 -53.143  1.00  0.00     0.293 C 
BRANCH   8   9
HETATM    9  C   UNL     1     -43.130  55.494 -53.779  1.00  0.00     0.061 A 
HETATM   10  N   UNL     1     -42.182  54.660 -53.208  1.00  0.00    -0.308 N 
HETATM   11  C   UNL     1     -41.927  53.657 -54.141  1.00  0.00     0.134 A 
HETATM   12  C   UNL     1     -41.547  54.711 -51.964  1.00  0.00     0.099 A 
HETATM   13  C   UNL     1     -40.974  52.660 -53.795  1.00  0.00     0.057 A 
HETATM   14  N   UNL     1     -42.640  53.823 -55.232  1.00  0.00    -0.241 NA
HETATM   15  C   UNL     1     -40.349  52.701 -52.598  1.00  0.00    -0.057 A 
HETATM   16  C   UNL     1     -39.322  51.686 -52.188  1.00  0.00     0.048 C 
HETATM   17  C   UNL     1     -40.648  53.765 -51.643  1.00  0.00     0.024 A 
HETATM   18  C   UNL     1     -43.357  54.965 -55.035  1.00  0.00     0.146 A 
ENDBRANCH   8   9
ENDBRANCH   1   8
BRANCH   5  19
HETATM   19  C   UNL     1     -43.659  57.944 -57.831  1.00  0.00    -0.024 A 
HETATM   20  C   UNL     1     -44.508  57.230 -58.759  1.00  0.00     0.018 A 
HETATM   21  C   UNL     1     -43.701  56.310 -59.427  1.00  0.00     0.138 A 
HETATM   22  C   UNL     1     -45.866  57.229 -59.138  1.00  0.00     0.017 A 
HETATM   23  N   UNL     1     -44.060  55.399 -60.347  1.00  0.00    -0.242 NA
HETATM   24  N   UNL     1     -42.415  56.489 -59.016  1.00  0.00    -0.350 N 
HETATM   25  C   UNL     1     -45.370  55.437 -60.655  1.00  0.00     0.119 A 
HETATM   26  C   UNL     1     -46.293  56.310 -60.101  1.00  0.00     0.020 A 
HETATM   27  H   UNL     1     -41.633  55.974 -59.397  1.00  0.00     0.166 HD
HETATM   28  C   UNL     1     -42.371  57.474 -58.067  1.00  0.00     0.098 A 
ENDBRANCH   5  19
TORSDOF 3
ENDMDL
MODEL 10
REMARK VINA RESULT:      -7.8      2.611      3.567
REMARK  3 active torsions:
REMARK  status: ('A' for Active; 'I' for Inactive)
REMARK    1  A    between atoms: C_6  and  C_7 
REMARK    2  A    between atoms: C_7  and  N_8 
REMARK    3  A    between atoms: C_12  and  C_13 
ROOT
HETATM    1  N   UNL     1     -42.328  55.993 -54.553  1.00  0.00    -0.066 N 
HETATM    2  H   UNL     1     -42.370  56.221 -55.555  1.00  0.00     0.280 HD
HETATM    3  C   UNL     1     -40.870  56.024 -54.148  1.00  0.00     0.236 C 
HETATM    4  C   UNL     1     -40.096  54.950 -54.908  1.00  0.00     0.037 C 
HETATM    5  C   UNL     1     -40.679  53.542 -54.670  1.00  0.00     0.024 C 
HETATM    6  C   UNL     1     -42.137  53.590 -55.139  1.00  0.00     0.037 C 
HETATM    7  C   UNL     1     -42.948  54.626 -54.374  1.00  0.00     0.236 C 
ENDROOT
BRANCH   1   8
HETATM    8  C   UNL     1     -43.149  57.050 -53.843  1.00  0.00     0.293 C 
BRANCH   8   9
HETATM    9  C   UNL     1     -42.814  58.419 -54.278  1.00  0.00     0.061 A 
HETATM   10  N   UNL     1     -42.612  58.808 -55.594  1.00  0.00    -0.308 N 
HETATM   11  C   UNL     1     -42.305  60.166 -55.558  1.00  0.00     0.134 A 
HETATM   12  C   UNL     1     -42.681  58.081 -56.784  1.00  0.00     0.099 A 
HETATM   13  C   UNL     1     -42.049  60.818 -56.797  1.00  0.00     0.057 A 
HETATM   14  N   UNL     1     -42.298  60.626 -54.328  1.00  0.00    -0.241 NA
HETATM   15  C   UNL     1     -42.106  60.125 -57.955  1.00  0.00    -0.057 A 
HETATM   16  C   UNL     1     -41.827  60.756 -59.288  1.00  0.00     0.048 C 
HETATM   17  C   UNL     1     -42.438  58.702 -57.951  1.00  0.00     0.024 A 
HETATM   18  C   UNL     1     -42.575  59.556 -53.531  1.00  0.00     0.146 A 
ENDBRANCH   8   9
ENDBRANCH   1   8
BRANCH   5  19
HETATM   19  C   UNL     1     -40.465  53.055 -53.242  1.00  0.00    -0.024 A 
HETATM   20  C   UNL     1     -40.117  51.741 -52.748  1.00  0.00     0.018 A 
HETATM   21  C   UNL     1     -40.080  51.823 -51.357  1.00  0.00     0.138 A 
HETATM   22  C   UNL     1     -39.823  50.472 -53.286  1.00  0.00     0.017 A 
HETATM   23  N   UNL     1     -39.845  50.842 -50.470  1.00  0.00    -0.242 NA
HETATM   24  N   UNL     1     -40.300  53.118 -50.997  1.00  0.00    -0.350 N 
HETATM   25  C   UNL     1     -39.586  49.652 -51.043  1.00  0.00     0.119 A 
HETATM   26  C   UNL     1     -39.557  49.417 -52.409  1.00  0.00     0.020 A 
HETATM   27  H   UNL     1     -40.270  53.442 -50.040  1.00  0.00     0.166 HD
HETATM   28  C   UNL     1     -40.522  53.872 -52.117  1.00  0.00     0.098 A 
ENDBRANCH   5  19
TORSDOF 3
ENDMDL
