MODEL 1
REMARK VINA RESULT:      -7.5      0.000      0.000
REMARK  6 active torsions:
REMARK  status: ('A' for Active; 'I' for Inactive)
REMARK    1  A    between atoms: C_5  and  C_6 
REMARK    2  A    between atoms: C_6  and  C_7 
REMARK       I    between atoms: C_7  and  N_8 
REMARK    3  A    between atoms: N_8  and  C_9 
REMARK    4  A    between atoms: C_12  and  N_13 
REMARK       I    between atoms: N_13  and  C_14 
REMARK       I    between atoms: C_14  and  N_15 
REMARK    5  A    between atoms: N_15  and  C_16 
REMARK    6  A    between atoms: C_16  and  C_17 
ROOT
HETATM    1  C   UNL     1     -42.907  55.555 -55.745  1.00  0.00     0.034 A 
HETATM    2  C   UNL     1     -43.744  56.016 -54.728  1.00  0.00     0.032 A 
HETATM    3  C   UNL     1     -43.257  56.204 -53.422  1.00  0.00     0.032 A 
HETATM    4  C   UNL     1     -41.930  55.916 -53.109  1.00  0.00     0.036 A 
HETATM    5  C   UNL     1     -41.094  55.449 -54.132  1.00  0.00     0.032 A 
HETATM    6  C   UNL     1     -41.576  55.269 -55.432  1.00  0.00     0.032 A 
ENDROOT
BRANCH   4   7
HETATM    7  N   UNL     1     -41.324  56.111 -51.857  1.00  0.00    -0.309 N 
HETATM    8  C   UNL     1     -41.010  55.296 -50.818  1.00  0.00     0.321 C 
HETATM    9  N   UNL     1     -41.026  53.956 -51.012  1.00  0.00    -0.337 N 
HETATM   10  O   UNL     1     -40.684  55.806 -49.747  1.00  0.00    -0.247 OA
HETATM   11  H   UNL     1     -40.758  53.653 -51.938  1.00  0.00     0.164 HD
HETATM   12  H   UNL     1     -41.120  57.072 -51.609  1.00  0.00     0.170 HD
BRANCH   9  13
HETATM   13  C   UNL     1     -40.574  53.096 -49.941  1.00  0.00     0.189 C 
BRANCH  13  14
HETATM   14  C   UNL     1     -40.219  51.752 -50.464  1.00  0.00     0.070 A 
HETATM   15  O   UNL     1     -39.698  51.679 -51.726  1.00  0.00    -0.325 OA
HETATM   16  C   UNL     1     -39.436  50.370 -51.971  1.00  0.00     0.142 A 
HETATM   17  C   UNL     1     -39.763  49.599 -50.880  1.00  0.00     0.027 A 
HETATM   18  C   UNL     1     -40.268  50.491 -49.905  1.00  0.00     0.036 A 
ENDBRANCH  13  14
ENDBRANCH   9  13
ENDBRANCH   4   7
BRANCH   1  19
HETATM   19  N   UNL     1     -43.293  55.399 -57.092  1.00  0.00    -0.327 N 
HETATM   20  C   UNL     1     -43.113  56.291 -58.138  1.00  0.00     0.227 C 
HETATM   21  O   UNL     1     -42.682  57.439 -58.039  1.00  0.00    -0.273 OA
HETATM   22  H   UNL     1     -43.754  54.526 -57.314  1.00  0.00     0.169 HD
BRANCH  20  23
HETATM   23  C   UNL     1     -43.466  55.680 -59.498  1.00  0.00     0.159 C 
BRANCH  23  24
HETATM   24  C   UNL     1     -44.885  55.915 -59.911  1.00  0.00     0.017 A 
HETATM   25  N   UNL     1     -45.764  56.672 -59.169  1.00  0.00    -0.369 N 
HETATM   26  C   UNL     1     -46.973  56.738 -59.811  1.00  0.00     0.088 A 
HETATM   27  H   UNL     1     -45.540  57.103 -58.275  1.00  0.00     0.165 HD
HETATM   28  C   UNL     1     -46.872  56.028 -60.984  1.00  0.00     0.019 A 
HETATM   29  C   UNL     1     -45.558  55.508 -61.050  1.00  0.00     0.027 A 
ENDBRANCH  23  24
ENDBRANCH  20  23
ENDBRANCH   1  19
TORSDOF 6
ENDMDL
MODEL 2
REMARK VINA RESULT:      -7.5      5.278      8.957
REMARK  6 active torsions:
REMARK  status: ('A' for Active; 'I' for Inactive)
REMARK    1  A    between atoms: C_5  and  C_6 
REMARK    2  A    between atoms: C_6  and  C_7 
REMARK       I    between atoms: C_7  and  N_8 
REMARK    3  A    between atoms: N_8  and  C_9 
REMARK    4  A    between atoms: C_12  and  N_13 
REMARK       I    between atoms: N_13  and  C_14 
REMARK       I    between atoms: C_14  and  N_15 
REMARK    5  A    between atoms: N_15  and  C_16 
REMARK    6  A    between atoms: C_16  and  C_17 
ROOT
HETATM    1  C   UNL     1     -42.106  55.849 -51.311  1.00  0.00     0.034 A 
HETATM    2  C   UNL     1     -41.779  57.066 -51.909  1.00  0.00     0.032 A 
HETATM    3  C   UNL     1     -42.735  58.092 -52.027  1.00  0.00     0.032 A 
HETATM    4  C   UNL     1     -44.037  57.908 -51.565  1.00  0.00     0.036 A 
HETATM    5  C   UNL     1     -44.362  56.684 -50.969  1.00  0.00     0.032 A 
HETATM    6  C   UNL     1     -43.411  55.666 -50.844  1.00  0.00     0.032 A 
ENDROOT
BRANCH   4   7
HETATM    7  N   UNL     1     -45.055  58.875 -51.585  1.00  0.00    -0.309 N 
HETATM    8  C   UNL     1     -45.452  59.852 -50.730  1.00  0.00     0.321 C 
HETATM    9  N   UNL     1     -44.622  60.216 -49.724  1.00  0.00    -0.337 N 
HETATM   10  O   UNL     1     -46.537  60.401 -50.925  1.00  0.00    -0.247 OA
HETATM   11  H   UNL     1     -43.637  60.158 -49.938  1.00  0.00     0.164 HD
HETATM   12  H   UNL     1     -45.701  58.823 -52.364  1.00  0.00     0.170 HD
BRANCH   9  13
HETATM   13  C   UNL     1     -44.993  61.338 -48.891  1.00  0.00     0.189 C 
BRANCH  13  14
HETATM   14  C   UNL     1     -45.338  60.881 -47.521  1.00  0.00     0.070 A 
HETATM   15  O   UNL     1     -46.308  59.925 -47.397  1.00  0.00    -0.325 OA
HETATM   16  C   UNL     1     -46.432  59.657 -46.071  1.00  0.00     0.142 A 
HETATM   17  C   UNL     1     -45.545  60.413 -45.341  1.00  0.00     0.027 A 
HETATM   18  C   UNL     1     -44.837  61.203 -46.276  1.00  0.00     0.036 A 
ENDBRANCH  13  14
ENDBRANCH   9  13
ENDBRANCH   4   7
BRANCH   1  19
HETATM   19  N   UNL     1     -41.198  54.793 -51.094  1.00  0.00    -0.327 N 
HETATM   20  C   UNL     1     -40.938  53.710 -51.919  1.00  0.00     0.227 C 
HETATM   21  O   UNL     1     -41.554  53.423 -52.946  1.00  0.00    -0.273 OA
HETATM   22  H   UNL     1     -40.674  54.840 -50.229  1.00  0.00     0.169 HD
BRANCH  20  23
HETATM   23  C   UNL     1     -39.732  52.890 -51.451  1.00  0.00     0.159 C 
BRANCH  23  24
HETATM   24  C   UNL     1     -39.696  51.502 -52.009  1.00  0.00     0.017 A 
HETATM   25  N   UNL     1     -39.758  51.237 -53.359  1.00  0.00    -0.369 N 
HETATM   26  C   UNL     1     -39.669  49.887 -53.570  1.00  0.00     0.088 A 
HETATM   27  H   UNL     1     -39.865  51.947 -54.080  1.00  0.00     0.165 HD
HETATM   28  C   UNL     1     -39.537  49.272 -52.346  1.00  0.00     0.019 A 
HETATM   29  C   UNL     1     -39.554  50.287 -51.361  1.00  0.00     0.027 A 
ENDBRANCH  23  24
ENDBRANCH  20  23
ENDBRANCH   1  19
TORSDOF 6
ENDMDL
MODEL 3
REMARK VINA RESULT:      -7.3      1.598      2.020
REMARK  6 active torsions:
REMARK  status: ('A' for Active; 'I' for Inactive)
REMARK    1  A    between atoms: C_5  and  C_6 
REMARK    2  A    between atoms: C_6  and  C_7 
REMARK       I    between atoms: C_7  and  N_8 
REMARK    3  A    between atoms: N_8  and  C_9 
REMARK    4  A    between atoms: C_12  and  N_13 
REMARK       I    between atoms: N_13  and  C_14 
REMARK       I    between atoms: C_14  and  N_15 
REMARK    5  A    between atoms: N_15  and  C_16 
REMARK    6  A    between atoms: C_16  and  C_17 
ROOT
HETATM    1  C   UNL     1     -43.883  56.713 -54.818  1.00  0.00     0.034 A 
HETATM    2  C   UNL     1     -43.937  55.345 -54.551  1.00  0.00     0.032 A 
HETATM    3  C   UNL     1     -43.380  54.818 -53.372  1.00  0.00     0.032 A 
HETATM    4  C   UNL     1     -42.745  55.649 -52.451  1.00  0.00     0.036 A 
HETATM    5  C   UNL     1     -42.689  57.021 -52.725  1.00  0.00     0.032 A 
HETATM    6  C   UNL     1     -43.249  57.547 -53.894  1.00  0.00     0.032 A 
ENDROOT
BRANCH   4   7
HETATM    7  N   UNL     1     -42.199  55.243 -51.222  1.00  0.00    -0.309 N 
HETATM    8  C   UNL     1     -41.359  54.247 -50.841  1.00  0.00     0.321 C 
HETATM    9  N   UNL     1     -40.650  53.591 -51.791  1.00  0.00    -0.337 N 
HETATM   10  O   UNL     1     -41.240  54.004 -49.640  1.00  0.00    -0.247 OA
HETATM   11  H   UNL     1     -40.378  54.151 -52.586  1.00  0.00     0.164 HD
HETATM   12  H   UNL     1     -42.535  55.736 -50.403  1.00  0.00     0.170 HD
BRANCH   9  13
HETATM   13  C   UNL     1     -39.668  52.617 -51.373  1.00  0.00     0.189 C 
BRANCH  13  14
HETATM   14  C   UNL     1     -39.620  51.480 -52.326  1.00  0.00     0.070 A 
HETATM   15  O   UNL     1     -39.508  50.220 -51.806  1.00  0.00    -0.325 OA
HETATM   16  C   UNL     1     -39.505  49.358 -52.855  1.00  0.00     0.142 A 
HETATM   17  C   UNL     1     -39.631  50.041 -54.042  1.00  0.00     0.027 A 
HETATM   18  C   UNL     1     -39.707  51.412 -53.702  1.00  0.00     0.036 A 
ENDBRANCH  13  14
ENDBRANCH   9  13
ENDBRANCH   4   7
BRANCH   1  19
HETATM   19  N   UNL     1     -44.469  57.334 -55.940  1.00  0.00    -0.327 N 
HETATM   20  C   UNL     1     -43.872  57.639 -57.153  1.00  0.00     0.227 C 
HETATM   21  O   UNL     1     -42.676  57.522 -57.416  1.00  0.00    -0.273 OA
HETATM   22  H   UNL     1     -45.446  57.582 -55.840  1.00  0.00     0.169 HD
BRANCH  20  23
HETATM   23  C   UNL     1     -44.883  58.111 -58.203  1.00  0.00     0.159 C 
BRANCH  23  24
HETATM   24  C   UNL     1     -45.281  57.044 -59.175  1.00  0.00     0.017 A 
HETATM   25  N   UNL     1     -44.742  55.776 -59.156  1.00  0.00    -0.369 N 
HETATM   26  C   UNL     1     -45.321  55.013 -60.134  1.00  0.00     0.088 A 
HETATM   27  H   UNL     1     -44.015  55.470 -58.513  1.00  0.00     0.165 HD
HETATM   28  C   UNL     1     -46.252  55.789 -60.785  1.00  0.00     0.019 A 
HETATM   29  C   UNL     1     -46.229  57.069 -60.182  1.00  0.00     0.027 A 
ENDBRANCH  23  24
ENDBRANCH  20  23
ENDBRANCH   1  19
TORSDOF 6
ENDMDL
MODEL 4
REMARK VINA RESULT:      -7.2     14.587     18.074
REMARK  6 active torsions:
REMARK  status: ('A' for Active; 'I' for Inactive)
REMARK    1  A    between atoms: C_5  and  C_6 
REMARK    2  A    between atoms: C_6  and  C_7 
REMARK       I    between atoms: C_7  and  N_8 
REMARK    3  A    between atoms: N_8  and  C_9 
REMARK    4  A    between atoms: C_12  and  N_13 
REMARK       I    between atoms: N_13  and  C_14 
REMARK       I    between atoms: C_14  and  N_15 
REMARK    5  A    between atoms: N_15  and  C_16 
REMARK    6  A    between atoms: C_16  and  C_17 
ROOT
HETATM    1  C   UNL     1     -35.787  41.222 -54.602  1.00  0.00     0.034 A 
HETATM    2  C   UNL     1     -34.870  41.745 -55.514  1.00  0.00     0.032 A 
HETATM    3  C   UNL     1     -35.274  42.117 -56.810  1.00  0.00     0.032 A 
HETATM    4  C   UNL     1     -36.597  41.955 -57.217  1.00  0.00     0.036 A 
HETATM    5  C   UNL     1     -37.513  41.426 -56.299  1.00  0.00     0.032 A 
HETATM    6  C   UNL     1     -37.114  41.062 -55.009  1.00  0.00     0.032 A 
ENDROOT
BRANCH   4   7
HETATM    7  N   UNL     1     -37.122  42.337 -58.463  1.00  0.00    -0.309 N 
HETATM    8  C   UNL     1     -37.235  41.728 -59.671  1.00  0.00     0.321 C 
HETATM    9  N   UNL     1     -37.050  40.388 -59.746  1.00  0.00    -0.337 N 
HETATM   10  O   UNL     1     -37.542  42.410 -60.648  1.00  0.00    -0.247 OA
HETATM   11  H   UNL     1     -37.347  39.868 -58.933  1.00  0.00     0.164 HD
HETATM   12  H   UNL     1     -37.436  43.297 -58.536  1.00  0.00     0.170 HD
BRANCH   9  13
HETATM   13  C   UNL     1     -37.292  39.726 -61.008  1.00  0.00     0.189 C 
BRANCH  13  14
HETATM   14  C   UNL     1     -38.486  38.849 -60.919  1.00  0.00     0.070 A 
HETATM   15  O   UNL     1     -39.001  38.357 -62.086  1.00  0.00    -0.325 OA
HETATM   16  C   UNL     1     -40.061  37.577 -61.754  1.00  0.00     0.142 A 
HETATM   17  C   UNL     1     -40.228  37.544 -60.389  1.00  0.00     0.027 A 
HETATM   18  C   UNL     1     -39.210  38.365 -59.848  1.00  0.00     0.036 A 
ENDBRANCH  13  14
ENDBRANCH   9  13
ENDBRANCH   4   7
BRANCH   1  19
HETATM   19  N   UNL     1     -35.485  40.882 -53.268  1.00  0.00    -0.327 N 
HETATM   20  C   UNL     1     -35.243  41.739 -52.205  1.00  0.00     0.227 C 
HETATM   21  O   UNL     1     -35.135  42.962 -52.276  1.00  0.00    -0.273 OA
HETATM   22  H   UNL     1     -35.444  39.890 -53.069  1.00  0.00     0.169 HD
BRANCH  20  23
HETATM   23  C   UNL     1     -35.167  41.003 -50.863  1.00  0.00     0.159 C 
BRANCH  23  24
HETATM   24  C   UNL     1     -33.821  40.415 -50.576  1.00  0.00     0.017 A 
HETATM   25  N   UNL     1     -32.711  40.676 -51.349  1.00  0.00    -0.369 N 
HETATM   26  C   UNL     1     -31.621  40.031 -50.825  1.00  0.00     0.088 A 
HETATM   27  H   UNL     1     -32.716  41.254 -52.186  1.00  0.00     0.165 HD
HETATM   28  C   UNL     1     -32.027  39.356 -49.697  1.00  0.00     0.019 A 
HETATM   29  C   UNL     1     -33.412  39.596 -49.538  1.00  0.00     0.027 A 
ENDBRANCH  23  24
ENDBRANCH  20  23
ENDBRANCH   1  19
TORSDOF 6
ENDMDL
MODEL 5
REMARK VINA RESULT:      -7.2      2.072      9.045
REMARK  6 active torsions:
REMARK  status: ('A' for Active; 'I' for Inactive)
REMARK    1  A    between atoms: C_5  and  C_6 
REMARK    2  A    between atoms: C_6  and  C_7 
REMARK       I    between atoms: C_7  and  N_8 
REMARK    3  A    between atoms: N_8  and  C_9 
REMARK    4  A    between atoms: C_12  and  N_13 
REMARK       I    between atoms: N_13  and  C_14 
REMARK       I    between atoms: C_14  and  N_15 
REMARK    5  A    between atoms: N_15  and  C_16 
REMARK    6  A    between atoms: C_16  and  C_17 
ROOT
HETATM    1  C   UNL     1     -42.019  54.983 -53.274  1.00  0.00     0.034 A 
HETATM    2  C   UNL     1     -43.041  54.374 -54.002  1.00  0.00     0.032 A 
HETATM    3  C   UNL     1     -44.070  55.140 -54.581  1.00  0.00     0.032 A 
HETATM    4  C   UNL     1     -44.102  56.524 -54.422  1.00  0.00     0.036 A 
HETATM    5  C   UNL     1     -43.077  57.131 -53.686  1.00  0.00     0.032 A 
HETATM    6  C   UNL     1     -42.049  56.371 -53.117  1.00  0.00     0.032 A 
ENDROOT
BRANCH   4   7
HETATM    7  N   UNL     1     -45.048  57.391 -54.993  1.00  0.00    -0.309 N 
HETATM    8  C   UNL     1     -45.161  58.014 -56.194  1.00  0.00     0.321 C 
HETATM    9  N   UNL     1     -44.376  57.603 -57.218  1.00  0.00    -0.337 N 
HETATM   10  O   UNL     1     -46.002  58.904 -56.320  1.00  0.00    -0.247 OA
HETATM   11  H   UNL     1     -44.160  56.616 -57.224  1.00  0.00     0.164 HD
HETATM   12  H   UNL     1     -45.796  57.696 -54.381  1.00  0.00     0.170 HD
BRANCH   9  13
HETATM   13  C   UNL     1     -44.583  58.184 -58.526  1.00  0.00     0.189 C 
BRANCH  13  14
HETATM   14  C   UNL     1     -45.412  57.288 -59.371  1.00  0.00     0.070 A 
HETATM   15  O   UNL     1     -44.775  56.284 -60.046  1.00  0.00    -0.325 OA
HETATM   16  C   UNL     1     -45.729  55.595 -60.724  1.00  0.00     0.142 A 
HETATM   17  C   UNL     1     -46.973  56.129 -60.482  1.00  0.00     0.027 A 
HETATM   18  C   UNL     1     -46.770  57.222 -59.608  1.00  0.00     0.036 A 
ENDBRANCH  13  14
ENDBRANCH   9  13
ENDBRANCH   4   7
BRANCH   1  19
HETATM   19  N   UNL     1     -40.918  54.303 -52.715  1.00  0.00    -0.327 N 
HETATM   20  C   UNL     1     -40.853  53.640 -51.500  1.00  0.00     0.227 C 
HETATM   21  O   UNL     1     -41.729  53.634 -50.635  1.00  0.00    -0.273 OA
HETATM   22  H   UNL     1     -40.077  54.301 -53.279  1.00  0.00     0.169 HD
BRANCH  20  23
HETATM   23  C   UNL     1     -39.559  52.838 -51.336  1.00  0.00     0.159 C 
BRANCH  23  24
HETATM   24  C   UNL     1     -39.549  51.551 -52.102  1.00  0.00     0.017 A 
HETATM   25  N   UNL     1     -39.550  50.317 -51.491  1.00  0.00    -0.369 N 
HETATM   26  C   UNL     1     -39.576  49.331 -52.441  1.00  0.00     0.088 A 
HETATM   27  H   UNL     1     -39.524  50.174 -50.484  1.00  0.00     0.165 HD
HETATM   28  C   UNL     1     -39.603  49.932 -53.678  1.00  0.00     0.019 A 
HETATM   29  C   UNL     1     -39.586  51.330 -53.467  1.00  0.00     0.027 A 
ENDBRANCH  23  24
ENDBRANCH  20  23
ENDBRANCH   1  19
TORSDOF 6
ENDMDL
MODEL 6
REMARK VINA RESULT:      -7.2      4.903      8.281
REMARK  6 active torsions:
REMARK  status: ('A' for Active; 'I' for Inactive)
REMARK    1  A    between atoms: C_5  and  C_6 
REMARK    2  A    between atoms: C_6  and  C_7 
REMARK       I    between atoms: C_7  and  N_8 
REMARK    3  A    between atoms: N_8  and  C_9 
REMARK    4  A    between atoms: C_12  and  N_13 
REMARK       I    between atoms: N_13  and  C_14 
REMARK       I    between atoms: C_14  and  N_15 
REMARK    5  A    between atoms: N_15  and  C_16 
REMARK    6  A    between atoms: C_16  and  C_17 
ROOT
HETATM    1  C   UNL     1     -42.116  56.696 -52.677  1.00  0.00     0.034 A 
HETATM    2  C   UNL     1     -41.543  56.864 -51.416  1.00  0.00     0.032 A 
HETATM    3  C   UNL     1     -41.575  58.114 -50.770  1.00  0.00     0.032 A 
HETATM    4  C   UNL     1     -42.163  59.217 -51.385  1.00  0.00     0.036 A 
HETATM    5  C   UNL     1     -42.733  59.045 -52.652  1.00  0.00     0.032 A 
HETATM    6  C   UNL     1     -42.709  57.802 -53.292  1.00  0.00     0.032 A 
ENDROOT
BRANCH   4   7
HETATM    7  N   UNL     1     -42.296  60.495 -50.816  1.00  0.00    -0.309 N 
HETATM    8  C   UNL     1     -43.331  61.191 -50.279  1.00  0.00     0.321 C 
HETATM    9  N   UNL     1     -44.467  60.528 -49.958  1.00  0.00    -0.337 N 
HETATM   10  O   UNL     1     -43.183  62.394 -50.066  1.00  0.00    -0.247 OA
HETATM   11  H   UNL     1     -44.335  59.576 -49.647  1.00  0.00     0.164 HD
HETATM   12  H   UNL     1     -41.474  61.086 -50.857  1.00  0.00     0.170 HD
BRANCH   9  13
HETATM   13  C   UNL     1     -45.519  61.246 -49.276  1.00  0.00     0.189 C 
BRANCH  13  14
HETATM   14  C   UNL     1     -45.548  60.888 -47.836  1.00  0.00     0.070 A 
HETATM   15  O   UNL     1     -46.347  59.845 -47.456  1.00  0.00    -0.325 OA
HETATM   16  C   UNL     1     -46.193  59.695 -46.116  1.00  0.00     0.142 A 
HETATM   17  C   UNL     1     -45.293  60.614 -45.627  1.00  0.00     0.027 A 
HETATM   18  C   UNL     1     -44.875  61.385 -46.737  1.00  0.00     0.036 A 
ENDBRANCH  13  14
ENDBRANCH   9  13
ENDBRANCH   4   7
BRANCH   1  19
HETATM   19  N   UNL     1     -42.186  55.469 -53.368  1.00  0.00    -0.327 N 
HETATM   20  C   UNL     1     -41.195  54.857 -54.120  1.00  0.00     0.227 C 
HETATM   21  O   UNL     1     -40.105  55.348 -54.411  1.00  0.00    -0.273 OA
HETATM   22  H   UNL     1     -43.071  54.981 -53.300  1.00  0.00     0.169 HD
BRANCH  20  23
HETATM   23  C   UNL     1     -41.570  53.431 -54.536  1.00  0.00     0.159 C 
BRANCH  23  24
HETATM   24  C   UNL     1     -40.721  52.377 -53.896  1.00  0.00     0.017 A 
HETATM   25  N   UNL     1     -40.110  52.548 -52.674  1.00  0.00    -0.369 N 
HETATM   26  C   UNL     1     -39.433  51.408 -52.331  1.00  0.00     0.088 A 
HETATM   27  H   UNL     1     -40.155  53.403 -52.123  1.00  0.00     0.165 HD
HETATM   28  C   UNL     1     -39.616  50.485 -53.336  1.00  0.00     0.019 A 
HETATM   29  C   UNL     1     -40.427  51.094 -54.322  1.00  0.00     0.027 A 
ENDBRANCH  23  24
ENDBRANCH  20  23
ENDBRANCH   1  19
TORSDOF 6
ENDMDL
MODEL 7
REMARK VINA RESULT:      -7.1      1.876      2.633
REMARK  6 active torsions:
REMARK  status: ('A' for Active; 'I' for Inactive)
REMARK    1  A    between atoms: C_5  and  C_6 
REMARK    2  A    between atoms: C_6  and  C_7 
REMARK       I    between atoms: C_7  and  N_8 
REMARK    3  A    between atoms: N_8  and  C_9 
REMARK    4  A    between atoms: C_12  and  N_13 
REMARK       I    between atoms: N_13  and  C_14 
REMARK       I    between atoms: C_14  and  N_15 
REMARK    5  A    between atoms: N_15  and  C_16 
REMARK    6  A    between atoms: C_16  and  C_17 
ROOT
HETATM    1  C   UNL     1     -43.106  57.856 -53.412  1.00  0.00     0.034 A 
HETATM    2  C   UNL     1     -41.747  58.011 -53.137  1.00  0.00     0.032 A 
HETATM    3  C   UNL     1     -41.198  57.543 -51.929  1.00  0.00     0.032 A 
HETATM    4  C   UNL     1     -42.004  56.931 -50.971  1.00  0.00     0.036 A 
HETATM    5  C   UNL     1     -43.368  56.782 -51.250  1.00  0.00     0.032 A 
HETATM    6  C   UNL     1     -43.914  57.240 -52.453  1.00  0.00     0.032 A 
ENDROOT
BRANCH   4   7
HETATM    7  N   UNL     1     -41.559  56.384 -49.756  1.00  0.00    -0.309 N 
HETATM    8  C   UNL     1     -41.165  55.146 -49.361  1.00  0.00     0.321 C 
HETATM    9  N   UNL     1     -40.879  54.220 -50.307  1.00  0.00    -0.337 N 
HETATM   10  O   UNL     1     -41.044  54.922 -48.157  1.00  0.00    -0.247 OA
HETATM   11  H   UNL     1     -40.477  54.586 -51.159  1.00  0.00     0.164 HD
HETATM   12  H   UNL     1     -41.586  57.003 -48.955  1.00  0.00     0.170 HD
BRANCH   9  13
HETATM   13  C   UNL     1     -40.344  52.944 -49.887  1.00  0.00     0.189 C 
BRANCH  13  14
HETATM   14  C   UNL     1     -40.047  52.089 -51.063  1.00  0.00     0.070 A 
HETATM   15  O   UNL     1     -40.077  52.675 -52.299  1.00  0.00    -0.325 OA
HETATM   16  C   UNL     1     -39.756  51.712 -53.201  1.00  0.00     0.142 A 
HETATM   17  C   UNL     1     -39.503  50.519 -52.566  1.00  0.00     0.027 A 
HETATM   18  C   UNL     1     -39.690  50.761 -51.185  1.00  0.00     0.036 A 
ENDBRANCH  13  14
ENDBRANCH   9  13
ENDBRANCH   4   7
BRANCH   1  19
HETATM   19  N   UNL     1     -43.727  58.236 -54.620  1.00  0.00    -0.327 N 
HETATM   20  C   UNL     1     -43.900  57.474 -55.765  1.00  0.00     0.227 C 
HETATM   21  O   UNL     1     -43.427  56.356 -55.963  1.00  0.00    -0.273 OA
HETATM   22  H   UNL     1     -44.091  59.180 -54.644  1.00  0.00     0.169 HD
BRANCH  20  23
HETATM   23  C   UNL     1     -44.813  58.154 -56.790  1.00  0.00     0.159 C 
BRANCH  23  24
HETATM   24  C   UNL     1     -44.534  57.748 -58.204  1.00  0.00     0.017 A 
HETATM   25  N   UNL     1     -44.972  56.558 -58.740  1.00  0.00    -0.369 N 
HETATM   26  C   UNL     1     -44.599  56.478 -60.056  1.00  0.00     0.088 A 
HETATM   27  H   UNL     1     -45.486  55.848 -58.223  1.00  0.00     0.165 HD
HETATM   28  C   UNL     1     -43.923  57.633 -60.377  1.00  0.00     0.019 A 
HETATM   29  C   UNL     1     -43.881  58.434 -59.213  1.00  0.00     0.027 A 
ENDBRANCH  23  24
ENDBRANCH  20  23
ENDBRANCH   1  19
TORSDOF 6
ENDMDL
MODEL 8
REMARK VINA RESULT:      -7.0      2.997      9.450
REMARK  6 active torsions:
REMARK  status: ('A' for Active; 'I' for Inactive)
REMARK    1  A    between atoms: C_5  and  C_6 
REMARK    2  A    between atoms: C_6  and  C_7 
REMARK       I    between atoms: C_7  and  N_8 
REMARK    3  A    between atoms: N_8  and  C_9 
REMARK    4  A    between atoms: C_12  and  N_13 
REMARK       I    between atoms: N_13  and  C_14 
REMARK       I    between atoms: C_14  and  N_15 
REMARK    5  A    between atoms: N_15  and  C_16 
REMARK    6  A    between atoms: C_16  and  C_17 
ROOT
HETATM    1  C   UNL     1     -41.486  55.223 -54.287  1.00  0.00     0.034 A 
HETATM    2  C   UNL     1     -41.994  56.493 -54.014  1.00  0.00     0.032 A 
HETATM    3  C   UNL     1     -42.859  57.134 -54.920  1.00  0.00     0.032 A 
HETATM    4  C   UNL     1     -43.212  56.522 -56.121  1.00  0.00     0.036 A 
HETATM    5  C   UNL     1     -42.696  55.249 -56.393  1.00  0.00     0.032 A 
HETATM    6  C   UNL     1     -41.842  54.608 -55.490  1.00  0.00     0.032 A 
ENDROOT
BRANCH   4   7
HETATM    7  N   UNL     1     -44.102  57.044 -57.074  1.00  0.00    -0.309 N 
HETATM    8  C   UNL     1     -43.960  57.810 -58.185  1.00  0.00     0.321 C 
HETATM    9  N   UNL     1     -42.723  57.969 -58.714  1.00  0.00    -0.337 N 
HETATM   10  O   UNL     1     -44.966  58.300 -58.696  1.00  0.00    -0.247 OA
HETATM   11  H   UNL     1     -42.109  57.173 -58.616  1.00  0.00     0.164 HD
HETATM   12  H   UNL     1     -45.087  56.893 -56.890  1.00  0.00     0.170 HD
BRANCH   9  13
HETATM   13  C   UNL     1     -42.591  58.683 -59.964  1.00  0.00     0.189 C 
BRANCH  13  14
HETATM   14  C   UNL     1     -41.969  60.012 -59.744  1.00  0.00     0.070 A 
HETATM   15  O   UNL     1     -41.690  60.773 -60.846  1.00  0.00    -0.325 OA
HETATM   16  C   UNL     1     -41.154  61.937 -60.398  1.00  0.00     0.142 A 
HETATM   17  C   UNL     1     -41.099  61.946 -59.023  1.00  0.00     0.027 A 
HETATM   18  C   UNL     1     -41.626  60.704 -58.600  1.00  0.00     0.036 A 
ENDBRANCH  13  14
ENDBRANCH   9  13
ENDBRANCH   4   7
BRANCH   1  19
HETATM   19  N   UNL     1     -40.668  54.481 -53.410  1.00  0.00    -0.327 N 
HETATM   20  C   UNL     1     -41.051  53.772 -52.283  1.00  0.00     0.227 C 
HETATM   21  O   UNL     1     -42.175  53.767 -51.783  1.00  0.00    -0.273 OA
HETATM   22  H   UNL     1     -39.682  54.468 -53.642  1.00  0.00     0.169 HD
BRANCH  20  23
HETATM   23  C   UNL     1     -39.915  52.915 -51.714  1.00  0.00     0.159 C 
BRANCH  23  24
HETATM   24  C   UNL     1     -39.751  51.599 -52.407  1.00  0.00     0.017 A 
HETATM   25  N   UNL     1     -39.561  50.415 -51.728  1.00  0.00    -0.369 N 
HETATM   26  C   UNL     1     -39.479  49.379 -52.621  1.00  0.00     0.088 A 
HETATM   27  H   UNL     1     -39.484  50.338 -50.717  1.00  0.00     0.165 HD
HETATM   28  C   UNL     1     -39.630  49.895 -53.887  1.00  0.00     0.019 A 
HETATM   29  C   UNL     1     -39.801  51.292 -53.755  1.00  0.00     0.027 A 
ENDBRANCH  23  24
ENDBRANCH  20  23
ENDBRANCH   1  19
TORSDOF 6
ENDMDL
MODEL 9
REMARK VINA RESULT:      -7.0      5.013      8.188
REMARK  6 active torsions:
REMARK  status: ('A' for Active; 'I' for Inactive)
REMARK    1  A    between atoms: C_5  and  C_6 
REMARK    2  A    between atoms: C_6  and  C_7 
REMARK       I    between atoms: C_7  and  N_8 
REMARK    3  A    between atoms: N_8  and  C_9 
REMARK    4  A    between atoms: C_12  and  N_13 
REMARK       I    between atoms: N_13  and  C_14 
REMARK       I    between atoms: C_14  and  N_15 
REMARK    5  A    between atoms: N_15  and  C_16 
REMARK    6  A    between atoms: C_16  and  C_17 
ROOT
HETATM    1  C   UNL     1     -44.027  58.525 -51.600  1.00  0.00     0.034 A 
HETATM    2  C   UNL     1     -43.647  57.275 -51.109  1.00  0.00     0.032 A 
HETATM    3  C   UNL     1     -43.637  56.144 -51.945  1.00  0.00     0.032 A 
HETATM    4  C   UNL     1     -44.025  56.243 -53.280  1.00  0.00     0.036 A 
HETATM    5  C   UNL     1     -44.410  57.498 -53.767  1.00  0.00     0.032 A 
HETATM    6  C   UNL     1     -44.413  58.624 -52.939  1.00  0.00     0.032 A 
ENDROOT
BRANCH   4   7
HETATM    7  N   UNL     1     -44.008  55.195 -54.216  1.00  0.00    -0.309 N 
HETATM    8  C   UNL     1     -43.026  54.531 -54.878  1.00  0.00     0.321 C 
HETATM    9  N   UNL     1     -41.748  54.661 -54.450  1.00  0.00    -0.337 N 
HETATM   10  O   UNL     1     -43.339  53.802 -55.818  1.00  0.00    -0.247 OA
HETATM   11  H   UNL     1     -41.639  54.780 -53.453  1.00  0.00     0.164 HD
HETATM   12  H   UNL     1     -44.913  54.882 -54.548  1.00  0.00     0.170 HD
BRANCH   9  13
HETATM   13  C   UNL     1     -40.722  53.859 -55.078  1.00  0.00     0.189 C 
BRANCH  13  14
HETATM   14  C   UNL     1     -40.308  52.748 -54.186  1.00  0.00     0.070 A 
HETATM   15  O   UNL     1     -40.099  53.037 -52.866  1.00  0.00    -0.325 OA
HETATM   16  C   UNL     1     -39.754  51.875 -52.255  1.00  0.00     0.142 A 
HETATM   17  C   UNL     1     -39.753  50.837 -53.158  1.00  0.00     0.027 A 
HETATM   18  C   UNL     1     -40.112  51.399 -54.405  1.00  0.00     0.036 A 
ENDBRANCH  13  14
ENDBRANCH   9  13
ENDBRANCH   4   7
BRANCH   1  19
HETATM   19  N   UNL     1     -44.005  59.720 -50.853  1.00  0.00    -0.327 N 
HETATM   20  C   UNL     1     -45.004  60.235 -50.041  1.00  0.00     0.227 C 
HETATM   21  O   UNL     1     -46.143  59.784 -49.927  1.00  0.00    -0.273 OA
HETATM   22  H   UNL     1     -43.152  60.260 -50.920  1.00  0.00     0.169 HD
BRANCH  20  23
HETATM   23  C   UNL     1     -44.532  61.440 -49.222  1.00  0.00     0.159 C 
BRANCH  23  24
HETATM   24  C   UNL     1     -45.197  61.555 -47.885  1.00  0.00     0.017 A 
HETATM   25  N   UNL     1     -46.455  62.091 -47.720  1.00  0.00    -0.369 N 
HETATM   26  C   UNL     1     -46.811  62.032 -46.398  1.00  0.00     0.088 A 
HETATM   27  H   UNL     1     -47.019  62.478 -48.473  1.00  0.00     0.165 HD
HETATM   28  C   UNL     1     -45.780  61.443 -45.704  1.00  0.00     0.019 A 
HETATM   29  C   UNL     1     -44.762  61.142 -46.639  1.00  0.00     0.027 A 
ENDBRANCH  23  24
ENDBRANCH  20  23
ENDBRANCH   1  19
TORSDOF 6
ENDMDL
MODEL 10
REMARK VINA RESULT:      -6.8     14.387     16.653
REMARK  6 active torsions:
REMARK  status: ('A' for Active; 'I' for Inactive)
REMARK    1  A    between atoms: C_5  and  C_6 
REMARK    2  A    between atoms: C_6  and  C_7 
REMARK       I    between atoms: C_7  and  N_8 
REMARK    3  A    between atoms: N_8  and  C_9 
REMARK    4  A    between atoms: C_12  and  N_13 
REMARK       I    between atoms: N_13  and  C_14 
REMARK       I    between atoms: C_14  and  N_15 
REMARK    5  A    between atoms: N_15  and  C_16 
REMARK    6  A    between atoms: C_16  and  C_17 
ROOT
HETATM    1  C   UNL     1     -35.402  41.423 -53.260  1.00  0.00     0.034 A 
HETATM    2  C   UNL     1     -35.202  42.085 -52.048  1.00  0.00     0.032 A 
HETATM    3  C   UNL     1     -34.135  41.734 -51.201  1.00  0.00     0.032 A 
HETATM    4  C   UNL     1     -33.263  40.703 -51.546  1.00  0.00     0.036 A 
HETATM    5  C   UNL     1     -33.469  40.039 -52.762  1.00  0.00     0.032 A 
HETATM    6  C   UNL     1     -34.525  40.392 -53.607  1.00  0.00     0.032 A 
ENDROOT
BRANCH   4   7
HETATM    7  N   UNL     1     -32.139  40.301 -50.806  1.00  0.00    -0.309 N 
HETATM    8  C   UNL     1     -31.961  39.613 -49.649  1.00  0.00     0.321 C 
HETATM    9  N   UNL     1     -33.005  38.918 -49.137  1.00  0.00    -0.337 N 
HETATM   10  O   UNL     1     -30.846  39.614 -49.128  1.00  0.00    -0.247 OA
HETATM   11  H   UNL     1     -33.635  38.524 -49.821  1.00  0.00     0.164 HD
HETATM   12  H   UNL     1     -31.244  40.636 -51.142  1.00  0.00     0.170 HD
BRANCH   9  13
HETATM   13  C   UNL     1     -32.781  38.090 -47.974  1.00  0.00     0.189 C 
BRANCH  13  14
HETATM   14  C   UNL     1     -34.016  37.990 -47.157  1.00  0.00     0.070 A 
HETATM   15  O   UNL     1     -33.874  37.793 -45.811  1.00  0.00    -0.325 OA
HETATM   16  C   UNL     1     -35.123  37.756 -45.282  1.00  0.00     0.142 A 
HETATM   17  C   UNL     1     -36.069  37.943 -46.263  1.00  0.00     0.027 A 
HETATM   18  C   UNL     1     -35.356  38.095 -47.474  1.00  0.00     0.036 A 
ENDBRANCH  13  14
ENDBRANCH   9  13
ENDBRANCH   4   7
BRANCH   1  19
HETATM   19  N   UNL     1     -36.403  41.750 -54.197  1.00  0.00    -0.327 N 
HETATM   20  C   UNL     1     -36.238  42.226 -55.489  1.00  0.00     0.227 C 
HETATM   21  O   UNL     1     -35.171  42.559 -56.003  1.00  0.00    -0.273 OA
HETATM   22  H   UNL     1     -37.355  41.616 -53.881  1.00  0.00     0.169 HD
BRANCH  20  23
HETATM   23  C   UNL     1     -37.552  42.257 -56.275  1.00  0.00     0.159 C 
BRANCH  23  24
HETATM   24  C   UNL     1     -37.462  41.606 -57.620  1.00  0.00     0.017 A 
HETATM   25  N   UNL     1     -36.786  42.169 -58.680  1.00  0.00    -0.369 N 
HETATM   26  C   UNL     1     -36.846  41.333 -59.763  1.00  0.00     0.088 A 
HETATM   27  H   UNL     1     -36.325  43.076 -58.651  1.00  0.00     0.165 HD
HETATM   28  C   UNL     1     -37.558  40.214 -59.399  1.00  0.00     0.019 A 
HETATM   29  C   UNL     1     -37.947  40.383 -58.050  1.00  0.00     0.027 A 
ENDBRANCH  23  24
ENDBRANCH  20  23
ENDBRANCH   1  19
TORSDOF 6
ENDMDL
