MODEL 1
REMARK VINA RESULT:      -8.3      0.000      0.000
REMARK  7 active torsions:
REMARK  status: ('A' for Active; 'I' for Inactive)
REMARK    1  A    between atoms: O_2  and  C_3 
REMARK    2  A    between atoms: C_4  and  C_5 
REMARK    3  A    between atoms: C_5  and  N_6 
REMARK    4  A    between atoms: C_5  and  C_12 
REMARK    5  A    between atoms: C_12  and  N_13 
REMARK       I    between atoms: N_13  and  C_14 
REMARK       I    between atoms: C_14  and  N_15 
REMARK    6  A    between atoms: N_15  and  C_16 
REMARK    7  A    between atoms: C_17  and  O_18 
ROOT
HETATM    1  N   UNL     1     -43.269  55.309 -55.264  1.00  0.00    -0.341 N 
HETATM    2  C   UNL     1     -42.008  55.137 -54.783  1.00  0.00     0.316 C 
HETATM    3  N   UNL     1     -41.826  53.938 -54.174  1.00  0.00    -0.332 N 
HETATM    4  O   UNL     1     -41.142  55.996 -54.909  1.00  0.00    -0.247 OA
HETATM    5  H   UNL     1     -43.923  54.547 -55.129  1.00  0.00     0.164 HD
HETATM    6  H   UNL     1     -42.640  53.473 -53.795  1.00  0.00     0.165 HD
ENDROOT
BRANCH   1   7
HETATM    7  C   UNL     1     -43.798  56.599 -55.703  1.00  0.00     0.162 C 
BRANCH   7   8
HETATM    8  C   UNL     1     -43.431  57.030 -57.163  1.00  0.00     0.241 C 
BRANCH   8   9
HETATM    9  C   UNL     1     -44.661  57.453 -57.965  1.00  0.00     0.007 A 
HETATM   10  C   UNL     1     -44.950  56.854 -59.210  1.00  0.00     0.076 A 
HETATM   11  C   UNL     1     -46.052  57.284 -59.957  1.00  0.00     0.037 A 
HETATM   12  C   UNL     1     -46.896  58.280 -59.467  1.00  0.00     0.003 A 
HETATM   13  C   UNL     1     -46.651  58.848 -58.224  1.00  0.00     0.001 A 
HETATM   14  C   UNL     1     -45.548  58.435 -57.478  1.00  0.00     0.012 A 
BRANCH  10  15
HETATM   15  O   UNL     1     -44.091  55.867 -59.622  1.00  0.00    -0.355 OA
HETATM   16  C   UNL     1     -44.670  54.608 -59.962  1.00  0.00     0.210 C 
ENDBRANCH  10  15
ENDBRANCH   8   9
BRANCH   8  17
HETATM   17  N   UNL     1     -42.288  58.051 -57.165  1.00  0.00    -0.061 N 
HETATM   18  H   UNL     1     -41.439  57.489 -56.951  1.00  0.00     0.280 HD
HETATM   19  C   UNL     1     -42.270  59.138 -56.121  1.00  0.00     0.236 C 
HETATM   20  C   UNL     1     -42.447  60.418 -56.909  1.00  0.00     0.029 C 
HETATM   21  C   UNL     1     -41.656  60.136 -58.170  1.00  0.00     0.029 C 
HETATM   22  C   UNL     1     -42.039  58.706 -58.506  1.00  0.00     0.236 C 
ENDBRANCH   8  17
ENDBRANCH   7   8
ENDBRANCH   1   7
BRANCH   3  23
HETATM   23  C   UNL     1     -40.605  53.668 -53.431  1.00  0.00     0.149 C 
HETATM   24  C   UNL     1     -40.724  54.038 -51.920  1.00  0.00     0.149 C 
HETATM   25  C   UNL     1     -39.884  53.008 -51.143  1.00  0.00     0.073 C 
HETATM   26  C   UNL     1     -39.893  51.831 -52.074  1.00  0.00    -0.047 A 
HETATM   27  C   UNL     1     -40.291  52.199 -53.364  1.00  0.00    -0.026 A 
HETATM   28  C   UNL     1     -39.513  50.531 -51.783  1.00  0.00     0.008 A 
HETATM   29  C   UNL     1     -40.304  51.267 -54.393  1.00  0.00     0.010 A 
HETATM   30  C   UNL     1     -39.932  49.952 -54.106  1.00  0.00     0.001 A 
HETATM   31  C   UNL     1     -39.542  49.587 -52.808  1.00  0.00     0.001 A 
BRANCH  24  32
HETATM   32  O   UNL     1     -42.088  53.962 -51.465  1.00  0.00    -0.393 OA
HETATM   33  H   UNL     1     -42.054  53.789 -50.510  1.00  0.00     0.210 HD
ENDBRANCH  24  32
ENDBRANCH   3  23
TORSDOF 7
ENDMDL
MODEL 2
REMARK VINA RESULT:      -8.3      0.931      1.828
REMARK  7 active torsions:
REMARK  status: ('A' for Active; 'I' for Inactive)
REMARK    1  A    between atoms: O_2  and  C_3 
REMARK    2  A    between atoms: C_4  and  C_5 
REMARK    3  A    between atoms: C_5  and  N_6 
REMARK    4  A    between atoms: C_5  and  C_12 
REMARK    5  A    between atoms: C_12  and  N_13 
REMARK       I    between atoms: N_13  and  C_14 
REMARK       I    between atoms: C_14  and  N_15 
REMARK    6  A    between atoms: N_15  and  C_16 
REMARK    7  A    between atoms: C_17  and  O_18 
ROOT
HETATM    1  N   UNL     1     -43.197  55.002 -55.613  1.00  0.00    -0.341 N 
HETATM    2  C   UNL     1     -41.944  54.812 -55.117  1.00  0.00     0.316 C 
HETATM    3  N   UNL     1     -41.876  53.812 -54.202  1.00  0.00    -0.332 N 
HETATM    4  O   UNL     1     -40.991  55.488 -55.487  1.00  0.00    -0.247 OA
HETATM    5  H   UNL     1     -43.929  54.393 -55.265  1.00  0.00     0.164 HD
HETATM    6  H   UNL     1     -42.720  53.573 -53.700  1.00  0.00     0.165 HD
ENDROOT
BRANCH   1   7
HETATM    7  C   UNL     1     -43.592  56.178 -56.386  1.00  0.00     0.162 C 
BRANCH   7   8
HETATM    8  C   UNL     1     -43.008  56.273 -57.836  1.00  0.00     0.241 C 
BRANCH   8   9
HETATM    9  C   UNL     1     -44.092  56.136 -58.903  1.00  0.00     0.007 A 
HETATM   10  C   UNL     1     -45.251  56.941 -58.860  1.00  0.00     0.076 A 
HETATM   11  C   UNL     1     -46.259  56.773 -59.816  1.00  0.00     0.037 A 
HETATM   12  C   UNL     1     -46.117  55.838 -60.839  1.00  0.00     0.003 A 
HETATM   13  C   UNL     1     -44.963  55.069 -60.922  1.00  0.00     0.001 A 
HETATM   14  C   UNL     1     -43.958  55.220 -59.967  1.00  0.00     0.012 A 
BRANCH  10  15
HETATM   15  O   UNL     1     -45.316  57.855 -57.839  1.00  0.00    -0.355 OA
HETATM   16  C   UNL     1     -46.610  58.350 -57.497  1.00  0.00     0.210 C 
ENDBRANCH  10  15
ENDBRANCH   8   9
BRANCH   8  17
HETATM   17  N   UNL     1     -42.115  57.509 -57.990  1.00  0.00    -0.061 N 
HETATM   18  H   UNL     1     -41.151  57.153 -57.828  1.00  0.00     0.280 HD
HETATM   19  C   UNL     1     -42.250  58.642 -57.005  1.00  0.00     0.236 C 
HETATM   20  C   UNL     1     -42.760  59.801 -57.834  1.00  0.00     0.029 C 
HETATM   21  C   UNL     1     -42.028  59.609 -59.147  1.00  0.00     0.029 C 
HETATM   22  C   UNL     1     -42.119  58.112 -59.378  1.00  0.00     0.236 C 
ENDBRANCH   8  17
ENDBRANCH   7   8
ENDBRANCH   1   7
BRANCH   3  23
HETATM   23  C   UNL     1     -40.662  53.605 -53.428  1.00  0.00     0.149 C 
HETATM   24  C   UNL     1     -40.822  54.020 -51.932  1.00  0.00     0.149 C 
HETATM   25  C   UNL     1     -39.967  53.043 -51.106  1.00  0.00     0.073 C 
HETATM   26  C   UNL     1     -39.920  51.837 -51.997  1.00  0.00    -0.047 A 
HETATM   27  C   UNL     1     -40.304  52.150 -53.307  1.00  0.00    -0.026 A 
HETATM   28  C   UNL     1     -39.505  50.560 -51.656  1.00  0.00     0.008 A 
HETATM   29  C   UNL     1     -40.267  51.185 -54.304  1.00  0.00     0.010 A 
HETATM   30  C   UNL     1     -39.859  49.893 -53.966  1.00  0.00     0.001 A 
HETATM   31  C   UNL     1     -39.484  49.583 -52.650  1.00  0.00     0.001 A 
BRANCH  24  32
HETATM   32  O   UNL     1     -42.192  53.915 -51.501  1.00  0.00    -0.393 OA
HETATM   33  H   UNL     1     -42.347  52.981 -51.289  1.00  0.00     0.210 HD
ENDBRANCH  24  32
ENDBRANCH   3  23
TORSDOF 7
ENDMDL
MODEL 3
REMARK VINA RESULT:      -8.2      2.029      3.145
REMARK  7 active torsions:
REMARK  status: ('A' for Active; 'I' for Inactive)
REMARK    1  A    between atoms: O_2  and  C_3 
REMARK    2  A    between atoms: C_4  and  C_5 
REMARK    3  A    between atoms: C_5  and  N_6 
REMARK    4  A    between atoms: C_5  and  C_12 
REMARK    5  A    between atoms: C_12  and  N_13 
REMARK       I    between atoms: N_13  and  C_14 
REMARK       I    between atoms: C_14  and  N_15 
REMARK    6  A    between atoms: N_15  and  C_16 
REMARK    7  A    between atoms: C_17  and  O_18 
ROOT
HETATM    1  N   UNL     1     -42.860  54.859 -55.490  1.00  0.00    -0.341 N 
HETATM    2  C   UNL     1     -41.664  54.415 -55.017  1.00  0.00     0.316 C 
HETATM    3  N   UNL     1     -41.735  53.931 -53.751  1.00  0.00    -0.332 N 
HETATM    4  O   UNL     1     -40.643  54.454 -55.694  1.00  0.00    -0.247 OA
HETATM    5  H   UNL     1     -43.659  54.780 -54.872  1.00  0.00     0.164 HD
HETATM    6  H   UNL     1     -42.484  54.265 -53.159  1.00  0.00     0.165 HD
ENDROOT
BRANCH   1   7
HETATM    7  C   UNL     1     -43.001  55.673 -56.696  1.00  0.00     0.162 C 
BRANCH   7   8
HETATM    8  C   UNL     1     -42.441  57.132 -56.607  1.00  0.00     0.241 C 
BRANCH   8   9
HETATM    9  C   UNL     1     -42.326  57.789 -57.982  1.00  0.00     0.007 A 
HETATM   10  C   UNL     1     -41.934  59.140 -58.104  1.00  0.00     0.076 A 
HETATM   11  C   UNL     1     -41.879  59.744 -59.365  1.00  0.00     0.037 A 
HETATM   12  C   UNL     1     -42.174  59.012 -60.515  1.00  0.00     0.003 A 
HETATM   13  C   UNL     1     -42.517  57.671 -60.415  1.00  0.00     0.001 A 
HETATM   14  C   UNL     1     -42.587  57.063 -59.162  1.00  0.00     0.012 A 
BRANCH  10  15
HETATM   15  O   UNL     1     -41.639  59.793 -56.935  1.00  0.00    -0.355 OA
HETATM   16  C   UNL     1     -42.117  61.132 -56.804  1.00  0.00     0.210 C 
ENDBRANCH  10  15
ENDBRANCH   8   9
BRANCH   8  17
HETATM   17  N   UNL     1     -43.214  57.956 -55.570  1.00  0.00    -0.061 N 
HETATM   18  H   UNL     1     -43.087  58.942 -55.877  1.00  0.00     0.280 HD
HETATM   19  C   UNL     1     -42.746  57.961 -54.138  1.00  0.00     0.236 C 
HETATM   20  C   UNL     1     -43.867  57.291 -53.374  1.00  0.00     0.029 C 
HETATM   21  C   UNL     1     -45.100  57.794 -54.097  1.00  0.00     0.029 C 
HETATM   22  C   UNL     1     -44.706  57.702 -55.559  1.00  0.00     0.236 C 
ENDBRANCH   8  17
ENDBRANCH   7   8
ENDBRANCH   1   7
BRANCH   3  23
HETATM   23  C   UNL     1     -40.521  53.601 -53.020  1.00  0.00     0.149 C 
HETATM   24  C   UNL     1     -40.649  53.867 -51.487  1.00  0.00     0.149 C 
HETATM   25  C   UNL     1     -39.823  52.779 -50.778  1.00  0.00     0.073 C 
HETATM   26  C   UNL     1     -39.832  51.670 -51.788  1.00  0.00    -0.047 A 
HETATM   27  C   UNL     1     -40.218  52.129 -53.053  1.00  0.00    -0.026 A 
HETATM   28  C   UNL     1     -39.463  50.350 -51.585  1.00  0.00     0.008 A 
HETATM   29  C   UNL     1     -40.229  51.271 -54.143  1.00  0.00     0.010 A 
HETATM   30  C   UNL     1     -39.868  49.936 -53.945  1.00  0.00     0.001 A 
HETATM   31  C   UNL     1     -39.490  49.479 -52.673  1.00  0.00     0.001 A 
BRANCH  24  32
HETATM   32  O   UNL     1     -42.017  53.769 -51.049  1.00  0.00    -0.393 OA
HETATM   33  H   UNL     1     -42.461  54.584 -51.336  1.00  0.00     0.210 HD
ENDBRANCH  24  32
ENDBRANCH   3  23
TORSDOF 7
ENDMDL
MODEL 4
REMARK VINA RESULT:      -8.2      2.060      8.528
REMARK  7 active torsions:
REMARK  status: ('A' for Active; 'I' for Inactive)
REMARK    1  A    between atoms: O_2  and  C_3 
REMARK    2  A    between atoms: C_4  and  C_5 
REMARK    3  A    between atoms: C_5  and  N_6 
REMARK    4  A    between atoms: C_5  and  C_12 
REMARK    5  A    between atoms: C_12  and  N_13 
REMARK       I    between atoms: N_13  and  C_14 
REMARK       I    between atoms: C_14  and  N_15 
REMARK    6  A    between atoms: N_15  and  C_16 
REMARK    7  A    between atoms: C_17  and  O_18 
ROOT
HETATM    1  N   UNL     1     -43.942  55.565 -54.817  1.00  0.00    -0.341 N 
HETATM    2  C   UNL     1     -43.175  55.663 -55.935  1.00  0.00     0.316 C 
HETATM    3  N   UNL     1     -43.679  56.521 -56.858  1.00  0.00    -0.332 N 
HETATM    4  O   UNL     1     -42.131  55.032 -56.064  1.00  0.00    -0.247 OA
HETATM    5  H   UNL     1     -44.784  56.129 -54.783  1.00  0.00     0.164 HD
HETATM    6  H   UNL     1     -44.674  56.699 -56.843  1.00  0.00     0.165 HD
ENDROOT
BRANCH   1   7
HETATM    7  C   UNL     1     -43.777  54.517 -53.811  1.00  0.00     0.162 C 
BRANCH   7   8
HETATM    8  C   UNL     1     -42.954  54.911 -52.538  1.00  0.00     0.241 C 
BRANCH   8   9
HETATM    9  C   UNL     1     -41.792  53.953 -52.284  1.00  0.00     0.007 A 
HETATM   10  C   UNL     1     -41.302  53.745 -50.977  1.00  0.00     0.076 A 
HETATM   11  C   UNL     1     -40.206  52.902 -50.763  1.00  0.00     0.037 A 
HETATM   12  C   UNL     1     -39.609  52.231 -51.830  1.00  0.00     0.003 A 
HETATM   13  C   UNL     1     -40.106  52.390 -53.116  1.00  0.00     0.001 A 
HETATM   14  C   UNL     1     -41.190  53.238 -53.341  1.00  0.00     0.012 A 
BRANCH  10  15
HETATM   15  O   UNL     1     -41.949  54.420 -49.973  1.00  0.00    -0.355 OA
HETATM   16  C   UNL     1     -41.160  54.826 -48.855  1.00  0.00     0.210 C 
ENDBRANCH  10  15
ENDBRANCH   8   9
BRANCH   8  17
HETATM   17  N   UNL     1     -42.561  56.393 -52.575  1.00  0.00    -0.061 N 
HETATM   18  H   UNL     1     -42.951  56.741 -53.474  1.00  0.00     0.280 HD
HETATM   19  C   UNL     1     -41.103  56.767 -52.645  1.00  0.00     0.236 C 
HETATM   20  C   UNL     1     -40.833  57.473 -51.335  1.00  0.00     0.029 C 
HETATM   21  C   UNL     1     -42.121  58.237 -51.105  1.00  0.00     0.029 C 
HETATM   22  C   UNL     1     -43.192  57.231 -51.484  1.00  0.00     0.236 C 
ENDBRANCH   8  17
ENDBRANCH   7   8
ENDBRANCH   1   7
BRANCH   3  23
HETATM   23  C   UNL     1     -43.096  56.598 -58.188  1.00  0.00     0.149 C 
HETATM   24  C   UNL     1     -44.113  56.233 -59.314  1.00  0.00     0.149 C 
HETATM   25  C   UNL     1     -43.770  57.117 -60.526  1.00  0.00     0.073 C 
HETATM   26  C   UNL     1     -43.100  58.292 -59.877  1.00  0.00    -0.047 A 
HETATM   27  C   UNL     1     -42.713  58.002 -58.564  1.00  0.00    -0.026 A 
HETATM   28  C   UNL     1     -42.813  59.517 -60.457  1.00  0.00     0.008 A 
HETATM   29  C   UNL     1     -42.018  58.937 -57.809  1.00  0.00     0.010 A 
HETATM   30  C   UNL     1     -41.733  60.178 -58.382  1.00  0.00     0.001 A 
HETATM   31  C   UNL     1     -42.132  60.467 -59.697  1.00  0.00     0.001 A 
BRANCH  24  32
HETATM   32  O   UNL     1     -45.467  56.507 -58.909  1.00  0.00    -0.393 OA
HETATM   33  H   UNL     1     -45.504  56.368 -57.949  1.00  0.00     0.210 HD
ENDBRANCH  24  32
ENDBRANCH   3  23
TORSDOF 7
ENDMDL
MODEL 5
REMARK VINA RESULT:      -8.1      1.336      1.816
REMARK  7 active torsions:
REMARK  status: ('A' for Active; 'I' for Inactive)
REMARK    1  A    between atoms: O_2  and  C_3 
REMARK    2  A    between atoms: C_4  and  C_5 
REMARK    3  A    between atoms: C_5  and  N_6 
REMARK    4  A    between atoms: C_5  and  C_12 
REMARK    5  A    between atoms: C_12  and  N_13 
REMARK       I    between atoms: N_13  and  C_14 
REMARK       I    between atoms: C_14  and  N_15 
REMARK    6  A    between atoms: N_15  and  C_16 
REMARK    7  A    between atoms: C_17  and  O_18 
ROOT
HETATM    1  N   UNL     1     -43.874  56.389 -55.754  1.00  0.00    -0.341 N 
HETATM    2  C   UNL     1     -42.743  56.203 -55.020  1.00  0.00     0.316 C 
HETATM    3  N   UNL     1     -42.922  55.376 -53.960  1.00  0.00    -0.332 N 
HETATM    4  O   UNL     1     -41.681  56.738 -55.319  1.00  0.00    -0.247 OA
HETATM    5  H   UNL     1     -44.708  55.902 -55.448  1.00  0.00     0.164 HD
HETATM    6  H   UNL     1     -43.856  55.286 -53.583  1.00  0.00     0.165 HD
ENDROOT
BRANCH   1   7
HETATM    7  C   UNL     1     -44.021  57.438 -56.762  1.00  0.00     0.162 C 
BRANCH   7   8
HETATM    8  C   UNL     1     -43.683  57.025 -58.235  1.00  0.00     0.241 C 
BRANCH   8   9
HETATM    9  C   UNL     1     -44.926  56.992 -59.122  1.00  0.00     0.007 A 
HETATM   10  C   UNL     1     -45.187  55.882 -59.955  1.00  0.00     0.076 A 
HETATM   11  C   UNL     1     -46.303  55.884 -60.799  1.00  0.00     0.037 A 
HETATM   12  C   UNL     1     -47.186  56.963 -60.803  1.00  0.00     0.003 A 
HETATM   13  C   UNL     1     -46.968  58.043 -59.958  1.00  0.00     0.001 A 
HETATM   14  C   UNL     1     -45.852  58.055 -59.122  1.00  0.00     0.012 A 
BRANCH  10  15
HETATM   15  O   UNL     1     -44.289  54.847 -59.885  1.00  0.00    -0.355 OA
HETATM   16  C   UNL     1     -44.812  53.559 -59.563  1.00  0.00     0.210 C 
ENDBRANCH  10  15
ENDBRANCH   8   9
BRANCH   8  17
HETATM   17  N   UNL     1     -42.526  57.863 -58.789  1.00  0.00    -0.061 N 
HETATM   18  H   UNL     1     -41.671  57.409 -58.407  1.00  0.00     0.280 HD
HETATM   19  C   UNL     1     -42.389  59.302 -58.364  1.00  0.00     0.236 C 
HETATM   20  C   UNL     1     -42.616  60.093 -59.634  1.00  0.00     0.029 C 
HETATM   21  C   UNL     1     -41.953  59.222 -60.682  1.00  0.00     0.029 C 
HETATM   22  C   UNL     1     -42.393  57.821 -60.296  1.00  0.00     0.236 C 
ENDBRANCH   8  17
ENDBRANCH   7   8
ENDBRANCH   1   7
BRANCH   3  23
HETATM   23  C   UNL     1     -41.876  55.224 -52.960  1.00  0.00     0.149 C 
HETATM   24  C   UNL     1     -42.443  55.062 -51.515  1.00  0.00     0.149 C 
HETATM   25  C   UNL     1     -41.495  54.105 -50.771  1.00  0.00     0.073 C 
HETATM   26  C   UNL     1     -40.898  53.316 -51.899  1.00  0.00    -0.047 A 
HETATM   27  C   UNL     1     -41.104  53.946 -53.132  1.00  0.00    -0.026 A 
HETATM   28  C   UNL     1     -40.171  52.141 -51.805  1.00  0.00     0.008 A 
HETATM   29  C   UNL     1     -40.572  53.410 -54.297  1.00  0.00     0.010 A 
HETATM   30  C   UNL     1     -39.846  52.220 -54.213  1.00  0.00     0.001 A 
HETATM   31  C   UNL     1     -39.650  51.589 -52.975  1.00  0.00     0.001 A 
BRANCH  24  32
HETATM   32  O   UNL     1     -43.764  54.489 -51.529  1.00  0.00    -0.393 OA
HETATM   33  H   UNL     1     -43.675  53.576 -51.210  1.00  0.00     0.210 HD
ENDBRANCH  24  32
ENDBRANCH   3  23
TORSDOF 7
ENDMDL
MODEL 6
REMARK VINA RESULT:      -8.0      1.867      8.744
REMARK  7 active torsions:
REMARK  status: ('A' for Active; 'I' for Inactive)
REMARK    1  A    between atoms: O_2  and  C_3 
REMARK    2  A    between atoms: C_4  and  C_5 
REMARK    3  A    between atoms: C_5  and  N_6 
REMARK    4  A    between atoms: C_5  and  C_12 
REMARK    5  A    between atoms: C_12  and  N_13 
REMARK       I    between atoms: N_13  and  C_14 
REMARK       I    between atoms: C_14  and  N_15 
REMARK    6  A    between atoms: N_15  and  C_16 
REMARK    7  A    between atoms: C_17  and  O_18 
ROOT
HETATM    1  N   UNL     1     -41.501  55.600 -55.777  1.00  0.00    -0.341 N 
HETATM    2  C   UNL     1     -41.996  56.775 -56.251  1.00  0.00     0.316 C 
HETATM    3  N   UNL     1     -42.246  56.753 -57.585  1.00  0.00    -0.332 N 
HETATM    4  O   UNL     1     -42.195  57.739 -55.519  1.00  0.00    -0.247 OA
HETATM    5  H   UNL     1     -41.377  54.848 -56.445  1.00  0.00     0.164 HD
HETATM    6  H   UNL     1     -41.729  56.093 -58.151  1.00  0.00     0.165 HD
ENDROOT
BRANCH   1   7
HETATM    7  C   UNL     1     -40.893  55.453 -54.456  1.00  0.00     0.162 C 
BRANCH   7   8
HETATM    8  C   UNL     1     -41.628  54.487 -53.467  1.00  0.00     0.241 C 
BRANCH   8   9
HETATM    9  C   UNL     1     -40.925  53.135 -53.355  1.00  0.00     0.007 A 
HETATM   10  C   UNL     1     -40.151  52.817 -52.218  1.00  0.00     0.076 A 
HETATM   11  C   UNL     1     -39.474  51.594 -52.149  1.00  0.00     0.037 A 
HETATM   12  C   UNL     1     -39.583  50.664 -53.181  1.00  0.00     0.003 A 
HETATM   13  C   UNL     1     -40.376  50.943 -54.287  1.00  0.00     0.001 A 
HETATM   14  C   UNL     1     -41.045  52.163 -54.371  1.00  0.00     0.012 A 
BRANCH  10  15
HETATM   15  O   UNL     1     -40.105  53.769 -51.232  1.00  0.00    -0.355 OA
HETATM   16  C   UNL     1     -40.163  53.305 -49.883  1.00  0.00     0.210 C 
ENDBRANCH  10  15
ENDBRANCH   8   9
BRANCH   8  17
HETATM   17  N   UNL     1     -41.900  55.176 -52.125  1.00  0.00    -0.061 N 
HETATM   18  H   UNL     1     -41.290  54.674 -51.448  1.00  0.00     0.280 HD
HETATM   19  C   UNL     1     -43.274  55.078 -51.512  1.00  0.00     0.236 C 
HETATM   20  C   UNL     1     -43.793  56.499 -51.524  1.00  0.00     0.029 C 
HETATM   21  C   UNL     1     -42.545  57.303 -51.223  1.00  0.00     0.029 C 
HETATM   22  C   UNL     1     -41.485  56.630 -52.075  1.00  0.00     0.236 C 
ENDBRANCH   8  17
ENDBRANCH   7   8
ENDBRANCH   1   7
BRANCH   3  23
HETATM   23  C   UNL     1     -42.589  57.978 -58.291  1.00  0.00     0.149 C 
HETATM   24  C   UNL     1     -41.919  58.070 -59.698  1.00  0.00     0.149 C 
HETATM   25  C   UNL     1     -42.918  58.796 -60.617  1.00  0.00     0.073 C 
HETATM   26  C   UNL     1     -44.229  58.499 -59.952  1.00  0.00    -0.047 A 
HETATM   27  C   UNL     1     -44.049  58.045 -58.640  1.00  0.00    -0.026 A 
HETATM   28  C   UNL     1     -45.496  58.683 -60.481  1.00  0.00     0.008 A 
HETATM   29  C   UNL     1     -45.143  57.776 -57.829  1.00  0.00     0.010 A 
HETATM   30  C   UNL     1     -46.424  57.949 -58.357  1.00  0.00     0.001 A 
HETATM   31  C   UNL     1     -46.598  58.396 -59.676  1.00  0.00     0.001 A 
BRANCH  24  32
HETATM   32  O   UNL     1     -41.654  56.763 -60.241  1.00  0.00    -0.393 OA
HETATM   33  H   UNL     1     -41.972  56.773 -61.159  1.00  0.00     0.210 HD
ENDBRANCH  24  32
ENDBRANCH   3  23
TORSDOF 7
ENDMDL
MODEL 7
REMARK VINA RESULT:      -7.9      1.479      3.628
REMARK  7 active torsions:
REMARK  status: ('A' for Active; 'I' for Inactive)
REMARK    1  A    between atoms: O_2  and  C_3 
REMARK    2  A    between atoms: C_4  and  C_5 
REMARK    3  A    between atoms: C_5  and  N_6 
REMARK    4  A    between atoms: C_5  and  C_12 
REMARK    5  A    between atoms: C_12  and  N_13 
REMARK       I    between atoms: N_13  and  C_14 
REMARK       I    between atoms: C_14  and  N_15 
REMARK    6  A    between atoms: N_15  and  C_16 
REMARK    7  A    between atoms: C_17  and  O_18 
ROOT
HETATM    1  N   UNL     1     -42.871  54.999 -55.572  1.00  0.00    -0.341 N 
HETATM    2  C   UNL     1     -41.661  54.674 -55.041  1.00  0.00     0.316 C 
HETATM    3  N   UNL     1     -41.751  53.834 -53.978  1.00  0.00    -0.332 N 
HETATM    4  O   UNL     1     -40.611  55.106 -55.503  1.00  0.00    -0.247 OA
HETATM    5  H   UNL     1     -43.691  54.590 -55.139  1.00  0.00     0.164 HD
HETATM    6  H   UNL     1     -42.615  53.829 -53.452  1.00  0.00     0.165 HD
ENDROOT
BRANCH   1   7
HETATM    7  C   UNL     1     -43.069  56.089 -56.525  1.00  0.00     0.162 C 
BRANCH   7   8
HETATM    8  C   UNL     1     -44.009  57.249 -56.054  1.00  0.00     0.241 C 
BRANCH   8   9
HETATM    9  C   UNL     1     -43.337  58.151 -55.021  1.00  0.00     0.007 A 
HETATM   10  C   UNL     1     -42.391  59.121 -55.417  1.00  0.00     0.076 A 
HETATM   11  C   UNL     1     -41.747  59.908 -54.456  1.00  0.00     0.037 A 
HETATM   12  C   UNL     1     -42.057  59.770 -53.103  1.00  0.00     0.003 A 
HETATM   13  C   UNL     1     -43.017  58.852 -52.701  1.00  0.00     0.001 A 
HETATM   14  C   UNL     1     -43.656  58.054 -53.650  1.00  0.00     0.012 A 
BRANCH  10  15
HETATM   15  O   UNL     1     -42.150  59.217 -56.764  1.00  0.00    -0.355 OA
HETATM   16  C   UNL     1     -41.996  60.531 -57.300  1.00  0.00     0.210 C 
ENDBRANCH  10  15
ENDBRANCH   8   9
BRANCH   8  17
HETATM   17  N   UNL     1     -44.609  57.992 -57.253  1.00  0.00    -0.061 N 
HETATM   18  H   UNL     1     -43.943  58.770 -57.435  1.00  0.00     0.280 HD
HETATM   19  C   UNL     1     -45.939  58.685 -57.100  1.00  0.00     0.236 C 
HETATM   20  C   UNL     1     -46.866  57.929 -58.027  1.00  0.00     0.029 C 
HETATM   21  C   UNL     1     -45.961  57.602 -59.197  1.00  0.00     0.029 C 
HETATM   22  C   UNL     1     -44.668  57.176 -58.526  1.00  0.00     0.236 C 
ENDBRANCH   8  17
ENDBRANCH   7   8
ENDBRANCH   1   7
BRANCH   3  23
HETATM   23  C   UNL     1     -40.578  53.543 -53.169  1.00  0.00     0.149 C 
HETATM   24  C   UNL     1     -40.805  53.831 -51.652  1.00  0.00     0.149 C 
HETATM   25  C   UNL     1     -40.001  52.773 -50.875  1.00  0.00     0.073 C 
HETATM   26  C   UNL     1     -39.925  51.648 -51.863  1.00  0.00    -0.047 A 
HETATM   27  C   UNL     1     -40.242  52.078 -53.157  1.00  0.00    -0.026 A 
HETATM   28  C   UNL     1     -39.542  50.340 -51.615  1.00  0.00     0.008 A 
HETATM   29  C   UNL     1     -40.169  51.201 -54.231  1.00  0.00     0.010 A 
HETATM   30  C   UNL     1     -39.792  49.879 -53.988  1.00  0.00     0.001 A 
HETATM   31  C   UNL     1     -39.484  49.451 -52.687  1.00  0.00     0.001 A 
BRANCH  24  32
HETATM   32  O   UNL     1     -42.195  53.710 -51.296  1.00  0.00    -0.393 OA
HETATM   33  H   UNL     1     -42.247  53.034 -50.601  1.00  0.00     0.210 HD
ENDBRANCH  24  32
ENDBRANCH   3  23
TORSDOF 7
ENDMDL
MODEL 8
REMARK VINA RESULT:      -7.8      1.982      4.214
REMARK  7 active torsions:
REMARK  status: ('A' for Active; 'I' for Inactive)
REMARK    1  A    between atoms: O_2  and  C_3 
REMARK    2  A    between atoms: C_4  and  C_5 
REMARK    3  A    between atoms: C_5  and  N_6 
REMARK    4  A    between atoms: C_5  and  C_12 
REMARK    5  A    between atoms: C_12  and  N_13 
REMARK       I    between atoms: N_13  and  C_14 
REMARK       I    between atoms: C_14  and  N_15 
REMARK    6  A    between atoms: N_15  and  C_16 
REMARK    7  A    between atoms: C_17  and  O_18 
ROOT
HETATM    1  N   UNL     1     -42.362  55.803 -56.417  1.00  0.00    -0.341 N 
HETATM    2  C   UNL     1     -42.572  54.794 -55.530  1.00  0.00     0.316 C 
HETATM    3  N   UNL     1     -41.883  54.947 -54.371  1.00  0.00    -0.332 N 
HETATM    4  O   UNL     1     -43.321  53.856 -55.778  1.00  0.00    -0.247 OA
HETATM    5  H   UNL     1     -41.737  56.548 -56.131  1.00  0.00     0.164 HD
HETATM    6  H   UNL     1     -41.043  55.511 -54.392  1.00  0.00     0.165 HD
ENDROOT
BRANCH   1   7
HETATM    7  C   UNL     1     -42.753  55.738 -57.824  1.00  0.00     0.162 C 
BRANCH   7   8
HETATM    8  C   UNL     1     -43.877  56.733 -58.270  1.00  0.00     0.241 C 
BRANCH   8   9
HETATM    9  C   UNL     1     -43.319  57.916 -59.059  1.00  0.00     0.007 A 
HETATM   10  C   UNL     1     -43.658  59.241 -58.708  1.00  0.00     0.076 A 
HETATM   11  C   UNL     1     -43.178  60.313 -59.468  1.00  0.00     0.037 A 
HETATM   12  C   UNL     1     -42.334  60.090 -60.555  1.00  0.00     0.003 A 
HETATM   13  C   UNL     1     -41.955  58.796 -60.887  1.00  0.00     0.001 A 
HETATM   14  C   UNL     1     -42.438  57.720 -60.143  1.00  0.00     0.012 A 
BRANCH  10  15
HETATM   15  O   UNL     1     -44.474  59.388 -57.616  1.00  0.00    -0.355 OA
HETATM   16  C   UNL     1     -43.880  59.918 -56.432  1.00  0.00     0.210 C 
ENDBRANCH  10  15
ENDBRANCH   8   9
BRANCH   8  17
HETATM   17  N   UNL     1     -45.026  55.991 -58.963  1.00  0.00    -0.061 N 
HETATM   18  H   UNL     1     -45.586  55.594 -58.181  1.00  0.00     0.280 HD
HETATM   19  C   UNL     1     -44.716  54.796 -59.827  1.00  0.00     0.236 C 
HETATM   20  C   UNL     1     -45.116  55.227 -61.221  1.00  0.00     0.029 C 
HETATM   21  C   UNL     1     -46.351  56.065 -60.961  1.00  0.00     0.029 C 
HETATM   22  C   UNL     1     -45.963  56.885 -59.745  1.00  0.00     0.236 C 
ENDBRANCH   8  17
ENDBRANCH   7   8
ENDBRANCH   1   7
BRANCH   3  23
HETATM   23  C   UNL     1     -41.833  53.870 -53.395  1.00  0.00     0.149 C 
HETATM   24  C   UNL     1     -40.832  52.741 -53.794  1.00  0.00     0.149 C 
HETATM   25  C   UNL     1     -40.220  52.208 -52.485  1.00  0.00     0.073 C 
HETATM   26  C   UNL     1     -40.366  53.387 -51.569  1.00  0.00    -0.047 A 
HETATM   27  C   UNL     1     -41.278  54.321 -52.073  1.00  0.00    -0.026 A 
HETATM   28  C   UNL     1     -39.756  53.571 -50.339  1.00  0.00     0.008 A 
HETATM   29  C   UNL     1     -41.604  55.456 -51.344  1.00  0.00     0.010 A 
HETATM   30  C   UNL     1     -40.986  55.654 -50.107  1.00  0.00     0.001 A 
HETATM   31  C   UNL     1     -40.066  54.718 -49.610  1.00  0.00     0.001 A 
BRANCH  24  32
HETATM   32  O   UNL     1     -39.773  53.247 -54.628  1.00  0.00    -0.393 OA
HETATM   33  H   UNL     1     -39.920  52.883 -55.516  1.00  0.00     0.210 HD
ENDBRANCH  24  32
ENDBRANCH   3  23
TORSDOF 7
ENDMDL
MODEL 9
REMARK VINA RESULT:      -7.7      2.380      3.802
REMARK  7 active torsions:
REMARK  status: ('A' for Active; 'I' for Inactive)
REMARK    1  A    between atoms: O_2  and  C_3 
REMARK    2  A    between atoms: C_4  and  C_5 
REMARK    3  A    between atoms: C_5  and  N_6 
REMARK    4  A    between atoms: C_5  and  C_12 
REMARK    5  A    between atoms: C_12  and  N_13 
REMARK       I    between atoms: N_13  and  C_14 
REMARK       I    between atoms: C_14  and  N_15 
REMARK    6  A    between atoms: N_15  and  C_16 
REMARK    7  A    between atoms: C_17  and  O_18 
ROOT
HETATM    1  N   UNL     1     -42.797  55.345 -55.156  1.00  0.00    -0.341 N 
HETATM    2  C   UNL     1     -41.595  54.861 -54.744  1.00  0.00     0.316 C 
HETATM    3  N   UNL     1     -41.680  54.092 -53.630  1.00  0.00    -0.332 N 
HETATM    4  O   UNL     1     -40.555  55.106 -55.346  1.00  0.00    -0.247 OA
HETATM    5  H   UNL     1     -43.611  55.086 -54.610  1.00  0.00     0.164 HD
HETATM    6  H   UNL     1     -42.466  54.242 -53.011  1.00  0.00     0.165 HD
ENDROOT
BRANCH   1   7
HETATM    7  C   UNL     1     -42.944  56.411 -56.146  1.00  0.00     0.162 C 
BRANCH   7   8
HETATM    8  C   UNL     1     -43.320  57.823 -55.582  1.00  0.00     0.241 C 
BRANCH   8   9
HETATM    9  C   UNL     1     -43.489  57.810 -54.064  1.00  0.00     0.007 A 
HETATM   10  C   UNL     1     -42.365  57.875 -53.213  1.00  0.00     0.076 A 
HETATM   11  C   UNL     1     -42.530  57.814 -51.825  1.00  0.00     0.037 A 
HETATM   12  C   UNL     1     -43.804  57.724 -51.266  1.00  0.00     0.003 A 
HETATM   13  C   UNL     1     -44.923  57.704 -52.088  1.00  0.00     0.001 A 
HETATM   14  C   UNL     1     -44.768  57.752 -53.472  1.00  0.00     0.012 A 
BRANCH  10  15
HETATM   15  O   UNL     1     -41.144  57.984 -53.829  1.00  0.00    -0.355 OA
HETATM   16  C   UNL     1     -40.121  58.678 -53.117  1.00  0.00     0.210 C 
ENDBRANCH  10  15
ENDBRANCH   8   9
BRANCH   8  17
HETATM   17  N   UNL     1     -42.361  58.898 -56.107  1.00  0.00    -0.061 N 
HETATM   18  H   UNL     1     -41.499  58.776 -55.537  1.00  0.00     0.280 HD
HETATM   19  C   UNL     1     -42.712  60.352 -55.921  1.00  0.00     0.236 C 
HETATM   20  C   UNL     1     -42.912  60.872 -57.328  1.00  0.00     0.029 C 
HETATM   21  C   UNL     1     -41.852  60.121 -58.107  1.00  0.00     0.029 C 
HETATM   22  C   UNL     1     -41.947  58.712 -57.551  1.00  0.00     0.236 C 
ENDBRANCH   8  17
ENDBRANCH   7   8
ENDBRANCH   1   7
BRANCH   3  23
HETATM   23  C   UNL     1     -40.475  53.658 -52.940  1.00  0.00     0.149 C 
HETATM   24  C   UNL     1     -40.582  53.804 -51.389  1.00  0.00     0.149 C 
HETATM   25  C   UNL     1     -39.793  52.632 -50.779  1.00  0.00     0.073 C 
HETATM   26  C   UNL     1     -39.852  51.609 -51.874  1.00  0.00    -0.047 A 
HETATM   27  C   UNL     1     -40.228  52.184 -53.094  1.00  0.00    -0.026 A 
HETATM   28  C   UNL     1     -39.531  50.265 -51.782  1.00  0.00     0.008 A 
HETATM   29  C   UNL     1     -40.280  51.417 -54.250  1.00  0.00     0.010 A 
HETATM   30  C   UNL     1     -39.968  50.058 -54.164  1.00  0.00     0.001 A 
HETATM   31  C   UNL     1     -39.600  49.486 -52.937  1.00  0.00     0.001 A 
BRANCH  24  32
HETATM   32  O   UNL     1     -41.949  53.723 -50.946  1.00  0.00    -0.393 OA
HETATM   33  H   UNL     1     -41.996  52.983 -50.319  1.00  0.00     0.210 HD
ENDBRANCH  24  32
ENDBRANCH   3  23
TORSDOF 7
ENDMDL
MODEL 10
REMARK VINA RESULT:      -7.6      1.633      2.218
REMARK  7 active torsions:
REMARK  status: ('A' for Active; 'I' for Inactive)
REMARK    1  A    between atoms: O_2  and  C_3 
REMARK    2  A    between atoms: C_4  and  C_5 
REMARK    3  A    between atoms: C_5  and  N_6 
REMARK    4  A    between atoms: C_5  and  C_12 
REMARK    5  A    between atoms: C_12  and  N_13 
REMARK       I    between atoms: N_13  and  C_14 
REMARK       I    between atoms: C_14  and  N_15 
REMARK    6  A    between atoms: N_15  and  C_16 
REMARK    7  A    between atoms: C_17  and  O_18 
ROOT
HETATM    1  N   UNL     1     -44.219  56.587 -54.782  1.00  0.00    -0.341 N 
HETATM    2  C   UNL     1     -42.915  56.361 -54.466  1.00  0.00     0.316 C 
HETATM    3  N   UNL     1     -42.754  55.440 -53.482  1.00  0.00    -0.332 N 
HETATM    4  O   UNL     1     -41.999  56.941 -55.037  1.00  0.00    -0.247 OA
HETATM    5  H   UNL     1     -44.916  56.058 -54.271  1.00  0.00     0.164 HD
HETATM    6  H   UNL     1     -43.520  55.299 -52.837  1.00  0.00     0.165 HD
ENDROOT
BRANCH   1   7
HETATM    7  C   UNL     1     -44.671  57.716 -55.593  1.00  0.00     0.162 C 
BRANCH   7   8
HETATM    8  C   UNL     1     -44.890  57.422 -57.116  1.00  0.00     0.241 C 
BRANCH   8   9
HETATM    9  C   UNL     1     -45.827  58.436 -57.769  1.00  0.00     0.007 A 
HETATM   10  C   UNL     1     -46.629  58.070 -58.872  1.00  0.00     0.076 A 
HETATM   11  C   UNL     1     -47.447  59.021 -59.491  1.00  0.00     0.037 A 
HETATM   12  C   UNL     1     -47.509  60.326 -59.007  1.00  0.00     0.003 A 
HETATM   13  C   UNL     1     -46.761  60.691 -57.895  1.00  0.00     0.001 A 
HETATM   14  C   UNL     1     -45.933  59.754 -57.278  1.00  0.00     0.012 A 
BRANCH  10  15
HETATM   15  O   UNL     1     -46.534  56.765 -59.283  1.00  0.00    -0.355 OA
HETATM   16  C   UNL     1     -46.839  56.495 -60.651  1.00  0.00     0.210 C 
ENDBRANCH  10  15
ENDBRANCH   8   9
BRANCH   8  17
HETATM   17  N   UNL     1     -43.551  57.235 -57.838  1.00  0.00    -0.061 N 
HETATM   18  H   UNL     1     -42.836  57.362 -57.093  1.00  0.00     0.280 HD
HETATM   19  C   UNL     1     -43.144  58.223 -58.901  1.00  0.00     0.236 C 
HETATM   20  C   UNL     1     -43.120  57.412 -60.178  1.00  0.00     0.029 C 
HETATM   21  C   UNL     1     -42.590  56.075 -59.705  1.00  0.00     0.029 C 
HETATM   22  C   UNL     1     -43.335  55.848 -58.403  1.00  0.00     0.236 C 
ENDBRANCH   8  17
ENDBRANCH   7   8
ENDBRANCH   1   7
BRANCH   3  23
HETATM   23  C   UNL     1     -41.445  55.223 -52.884  1.00  0.00     0.149 C 
HETATM   24  C   UNL     1     -41.481  55.261 -51.324  1.00  0.00     0.149 C 
HETATM   25  C   UNL     1     -40.438  54.242 -50.832  1.00  0.00     0.073 C 
HETATM   26  C   UNL     1     -40.362  53.288 -51.988  1.00  0.00    -0.047 A 
HETATM   27  C   UNL     1     -40.921  53.839 -53.147  1.00  0.00    -0.026 A 
HETATM   28  C   UNL     1     -39.775  52.033 -52.000  1.00  0.00     0.008 A 
HETATM   29  C   UNL     1     -40.892  53.141 -54.346  1.00  0.00     0.010 A 
HETATM   30  C   UNL     1     -40.312  51.871 -54.365  1.00  0.00     0.001 A 
HETATM   31  C   UNL     1     -39.760  51.320 -53.198  1.00  0.00     0.001 A 
BRANCH  24  32
HETATM   32  O   UNL     1     -42.775  54.881 -50.819  1.00  0.00    -0.393 OA
HETATM   33  H   UNL     1     -43.372  54.841 -51.583  1.00  0.00     0.210 HD
ENDBRANCH  24  32
ENDBRANCH   3  23
TORSDOF 7
ENDMDL
