MODEL 1
REMARK VINA RESULT:      -8.9      0.000      0.000
REMARK  5 active torsions:
REMARK  status: ('A' for Active; 'I' for Inactive)
REMARK    1  A    between atoms: C_2  and  C_3 
REMARK    2  A    between atoms: C_14  and  C_17 
REMARK       I    between atoms: C_17  and  N_19 
REMARK    3  A    between atoms: N_19  and  C_20 
REMARK    4  A    between atoms: C_20  and  C_22 
REMARK    5  A    between atoms: C_26  and  O_27 
ROOT
HETATM    1  C   UNL     1     -40.517  53.784 -51.320  1.00  0.00     0.162 C 
HETATM    2  O   UNL     1     -39.670  52.630 -51.167  1.00  0.00    -0.339 OA
HETATM    3  C   UNL     1     -39.765  51.688 -52.153  1.00  0.00     0.098 A 
HETATM    4  C   UNL     1     -39.395  50.389 -51.830  1.00  0.00     0.153 A 
HETATM    5  N   UNL     1     -39.436  49.354 -52.699  1.00  0.00    -0.270 NA
HETATM    6  C   UNL     1     -39.855  49.641 -53.946  1.00  0.00     0.117 A 
HETATM    7  C   UNL     1     -40.224  50.912 -54.368  1.00  0.00     0.034 A 
HETATM    8  C   UNL     1     -40.172  51.979 -53.461  1.00  0.00     0.011 A 
HETATM    9  C   UNL     1     -40.509  53.367 -53.803  1.00  0.00    -0.014 A 
HETATM   10  C   UNL     1     -40.670  53.842 -55.113  1.00  0.00     0.014 A 
HETATM   11  C   UNL     1     -41.001  55.180 -55.360  1.00  0.00     0.018 A 
HETATM   12  C   UNL     1     -41.179  56.085 -54.308  1.00  0.00     0.032 A 
HETATM   13  C   UNL     1     -41.004  55.626 -52.999  1.00  0.00     0.027 A 
HETATM   14  C   UNL     1     -40.666  54.280 -52.748  1.00  0.00    -0.017 A 
ENDROOT
BRANCH  12  15
HETATM   15  C   UNL     1     -41.578  57.487 -54.653  1.00  0.00     0.252 C 
HETATM   16  O   UNL     1     -41.135  58.426 -54.000  1.00  0.00    -0.268 OA
HETATM   17  N   UNL     1     -42.423  57.668 -55.725  1.00  0.00    -0.349 N 
HETATM   18  H   UNL     1     -42.808  56.889 -56.233  1.00  0.00     0.163 HD
BRANCH  17  19
HETATM   19  C   UNL     1     -42.801  58.992 -56.196  1.00  0.00     0.114 C 
HETATM   20  C   UNL     1     -44.163  59.401 -55.631  1.00  0.00     0.037 C 
BRANCH  19  21
HETATM   21  C   UNL     1     -42.704  59.001 -57.715  1.00  0.00    -0.033 A 
HETATM   22  C   UNL     1     -42.158  60.135 -58.343  1.00  0.00     0.009 A 
HETATM   23  C   UNL     1     -41.988  60.173 -59.726  1.00  0.00     0.003 A 
HETATM   24  C   UNL     1     -42.357  59.075 -60.499  1.00  0.00     0.037 A 
HETATM   25  C   UNL     1     -42.899  57.936 -59.901  1.00  0.00     0.068 A 
HETATM   26  C   UNL     1     -43.060  57.898 -58.513  1.00  0.00     0.046 A 
BRANCH  25  27
HETATM   27  O   UNL     1     -43.211  56.931 -60.775  1.00  0.00    -0.356 OA
HETATM   28  C   UNL     1     -44.337  56.124 -60.452  1.00  0.00     0.210 C 
ENDBRANCH  25  27
ENDBRANCH  19  21
ENDBRANCH  17  19
ENDBRANCH  12  15
BRANCH   1  29
HETATM   29  C   UNL     1     -41.887  53.524 -50.669  1.00  0.00     0.033 C 
HETATM   30  C   UNL     1     -42.378  54.716 -49.858  1.00  0.00     0.008 C 
ENDBRANCH   1  29
TORSDOF 5
ENDMDL
MODEL 2
REMARK VINA RESULT:      -8.8      2.172      8.842
REMARK  5 active torsions:
REMARK  status: ('A' for Active; 'I' for Inactive)
REMARK    1  A    between atoms: C_2  and  C_3 
REMARK    2  A    between atoms: C_14  and  C_17 
REMARK       I    between atoms: C_17  and  N_19 
REMARK    3  A    between atoms: N_19  and  C_20 
REMARK    4  A    between atoms: C_20  and  C_22 
REMARK    5  A    between atoms: C_26  and  O_27 
ROOT
HETATM    1  C   UNL     1     -42.845  56.164 -59.459  1.00  0.00     0.162 C 
HETATM    2  O   UNL     1     -42.068  56.938 -60.391  1.00  0.00    -0.339 OA
HETATM    3  C   UNL     1     -42.052  58.288 -60.174  1.00  0.00     0.098 A 
HETATM    4  C   UNL     1     -41.776  59.104 -61.263  1.00  0.00     0.153 A 
HETATM    5  N   UNL     1     -41.726  60.454 -61.201  1.00  0.00    -0.270 NA
HETATM    6  C   UNL     1     -41.951  61.003 -59.992  1.00  0.00     0.117 A 
HETATM    7  C   UNL     1     -42.213  60.268 -58.843  1.00  0.00     0.034 A 
HETATM    8  C   UNL     1     -42.256  58.869 -58.917  1.00  0.00     0.011 A 
HETATM    9  C   UNL     1     -42.494  57.991 -57.763  1.00  0.00    -0.014 A 
HETATM   10  C   UNL     1     -42.448  58.413 -56.427  1.00  0.00     0.014 A 
HETATM   11  C   UNL     1     -42.695  57.517 -55.378  1.00  0.00     0.018 A 
HETATM   12  C   UNL     1     -42.993  56.174 -55.633  1.00  0.00     0.032 A 
HETATM   13  C   UNL     1     -43.023  55.740 -56.962  1.00  0.00     0.027 A 
HETATM   14  C   UNL     1     -42.770  56.639 -58.018  1.00  0.00    -0.017 A 
ENDROOT
BRANCH  12  15
HETATM   15  C   UNL     1     -43.290  55.290 -54.460  1.00  0.00     0.252 C 
HETATM   16  O   UNL     1     -44.116  54.389 -54.568  1.00  0.00    -0.268 OA
HETATM   17  N   UNL     1     -42.594  55.516 -53.295  1.00  0.00    -0.349 N 
HETATM   18  H   UNL     1     -41.944  56.279 -53.205  1.00  0.00     0.163 HD
BRANCH  17  19
HETATM   19  C   UNL     1     -42.744  54.660 -52.126  1.00  0.00     0.114 C 
HETATM   20  C   UNL     1     -42.916  55.499 -50.858  1.00  0.00     0.037 C 
BRANCH  19  21
HETATM   21  C   UNL     1     -41.578  53.683 -52.100  1.00  0.00    -0.033 A 
HETATM   22  C   UNL     1     -40.995  53.372 -50.859  1.00  0.00     0.009 A 
HETATM   23  C   UNL     1     -39.965  52.437 -50.767  1.00  0.00     0.003 A 
HETATM   24  C   UNL     1     -39.508  51.797 -51.916  1.00  0.00     0.037 A 
HETATM   25  C   UNL     1     -40.071  52.085 -53.161  1.00  0.00     0.068 A 
HETATM   26  C   UNL     1     -41.109  53.017 -53.248  1.00  0.00     0.046 A 
BRANCH  25  27
HETATM   27  O   UNL     1     -39.533  51.381 -54.203  1.00  0.00    -0.356 OA
HETATM   28  C   UNL     1     -39.973  50.038 -54.368  1.00  0.00     0.210 C 
ENDBRANCH  25  27
ENDBRANCH  19  21
ENDBRANCH  17  19
ENDBRANCH  12  15
BRANCH   1  29
HETATM   29  C   UNL     1     -44.303  56.062 -59.943  1.00  0.00     0.033 C 
HETATM   30  C   UNL     1     -44.747  54.618 -60.139  1.00  0.00     0.008 C 
ENDBRANCH   1  29
TORSDOF 5
ENDMDL
MODEL 3
REMARK VINA RESULT:      -8.2      2.626      3.830
REMARK  5 active torsions:
REMARK  status: ('A' for Active; 'I' for Inactive)
REMARK    1  A    between atoms: C_2  and  C_3 
REMARK    2  A    between atoms: C_14  and  C_17 
REMARK       I    between atoms: C_17  and  N_19 
REMARK    3  A    between atoms: N_19  and  C_20 
REMARK    4  A    between atoms: C_20  and  C_22 
REMARK    5  A    between atoms: C_26  and  O_27 
ROOT
HETATM    1  C   UNL     1     -42.651  56.734 -51.576  1.00  0.00     0.162 C 
HETATM    2  O   UNL     1     -41.840  56.606 -50.394  1.00  0.00    -0.339 OA
HETATM    3  C   UNL     1     -41.416  55.341 -50.098  1.00  0.00     0.098 A 
HETATM    4  C   UNL     1     -41.093  55.071 -48.775  1.00  0.00     0.153 A 
HETATM    5  N   UNL     1     -40.661  53.869 -48.333  1.00  0.00    -0.270 NA
HETATM    6  C   UNL     1     -40.539  52.902 -49.262  1.00  0.00     0.117 A 
HETATM    7  C   UNL     1     -40.818  53.083 -50.610  1.00  0.00     0.034 A 
HETATM    8  C   UNL     1     -41.259  54.335 -51.059  1.00  0.00     0.011 A 
HETATM    9  C   UNL     1     -41.554  54.649 -52.464  1.00  0.00    -0.014 A 
HETATM   10  C   UNL     1     -41.192  53.837 -53.548  1.00  0.00     0.014 A 
HETATM   11  C   UNL     1     -41.517  54.199 -54.862  1.00  0.00     0.018 A 
HETATM   12  C   UNL     1     -42.210  55.384 -55.132  1.00  0.00     0.032 A 
HETATM   13  C   UNL     1     -42.560  56.209 -54.059  1.00  0.00     0.027 A 
HETATM   14  C   UNL     1     -42.231  55.848 -52.736  1.00  0.00    -0.017 A 
ENDROOT
BRANCH  12  15
HETATM   15  C   UNL     1     -42.561  55.678 -56.558  1.00  0.00     0.252 C 
HETATM   16  O   UNL     1     -43.067  54.805 -57.256  1.00  0.00    -0.268 OA
HETATM   17  N   UNL     1     -42.316  56.948 -57.030  1.00  0.00    -0.349 N 
HETATM   18  H   UNL     1     -41.869  57.647 -56.461  1.00  0.00     0.163 HD
BRANCH  17  19
HETATM   19  C   UNL     1     -42.700  57.361 -58.372  1.00  0.00     0.114 C 
HETATM   20  C   UNL     1     -41.974  58.647 -58.772  1.00  0.00     0.037 C 
BRANCH  19  21
HETATM   21  C   UNL     1     -44.219  57.432 -58.431  1.00  0.00    -0.033 A 
HETATM   22  C   UNL     1     -44.879  58.333 -57.576  1.00  0.00     0.009 A 
HETATM   23  C   UNL     1     -46.263  58.486 -57.631  1.00  0.00     0.003 A 
HETATM   24  C   UNL     1     -47.006  57.743 -58.545  1.00  0.00     0.037 A 
HETATM   25  C   UNL     1     -46.376  56.844 -59.407  1.00  0.00     0.068 A 
HETATM   26  C   UNL     1     -44.986  56.699 -59.356  1.00  0.00     0.046 A 
BRANCH  25  27
HETATM   27  O   UNL     1     -47.222  56.185 -60.257  1.00  0.00    -0.356 OA
HETATM   28  C   UNL     1     -47.701  56.914 -61.381  1.00  0.00     0.210 C 
ENDBRANCH  25  27
ENDBRANCH  19  21
ENDBRANCH  17  19
ENDBRANCH  12  15
BRANCH   1  29
HETATM   29  C   UNL     1     -44.135  56.531 -51.223  1.00  0.00     0.033 C 
HETATM   30  C   UNL     1     -44.920  57.836 -51.253  1.00  0.00     0.008 C 
ENDBRANCH   1  29
TORSDOF 5
ENDMDL
MODEL 4
REMARK VINA RESULT:      -8.2      2.011      2.792
REMARK  5 active torsions:
REMARK  status: ('A' for Active; 'I' for Inactive)
REMARK    1  A    between atoms: C_2  and  C_3 
REMARK    2  A    between atoms: C_14  and  C_17 
REMARK       I    between atoms: C_17  and  N_19 
REMARK    3  A    between atoms: N_19  and  C_20 
REMARK    4  A    between atoms: C_20  and  C_22 
REMARK    5  A    between atoms: C_26  and  O_27 
ROOT
HETATM    1  C   UNL     1     -42.239  54.731 -51.829  1.00  0.00     0.162 C 
HETATM    2  O   UNL     1     -41.064  54.046 -51.358  1.00  0.00    -0.339 OA
HETATM    3  C   UNL     1     -40.587  53.056 -52.172  1.00  0.00     0.098 A 
HETATM    4  C   UNL     1     -39.821  52.060 -51.581  1.00  0.00     0.153 A 
HETATM    5  N   UNL     1     -39.283  51.020 -52.257  1.00  0.00    -0.270 NA
HETATM    6  C   UNL     1     -39.517  50.987 -53.583  1.00  0.00     0.117 A 
HETATM    7  C   UNL     1     -40.252  51.948 -54.265  1.00  0.00     0.034 A 
HETATM    8  C   UNL     1     -40.799  53.026 -53.555  1.00  0.00     0.011 A 
HETATM    9  C   UNL     1     -41.568  54.114 -54.176  1.00  0.00    -0.014 A 
HETATM   10  C   UNL     1     -41.629  54.351 -55.556  1.00  0.00     0.014 A 
HETATM   11  C   UNL     1     -42.391  55.406 -56.075  1.00  0.00     0.018 A 
HETATM   12  C   UNL     1     -43.113  56.257 -55.230  1.00  0.00     0.032 A 
HETATM   13  C   UNL     1     -43.044  56.040 -53.851  1.00  0.00     0.027 A 
HETATM   14  C   UNL     1     -42.274  54.981 -53.327  1.00  0.00    -0.017 A 
ENDROOT
BRANCH  12  15
HETATM   15  C   UNL     1     -43.941  57.332 -55.864  1.00  0.00     0.252 C 
HETATM   16  O   UNL     1     -44.759  57.950 -55.192  1.00  0.00    -0.268 OA
HETATM   17  N   UNL     1     -43.727  57.603 -57.197  1.00  0.00    -0.349 N 
HETATM   18  H   UNL     1     -43.078  57.068 -57.749  1.00  0.00     0.163 HD
BRANCH  17  19
HETATM   19  C   UNL     1     -44.415  58.686 -57.885  1.00  0.00     0.114 C 
HETATM   20  C   UNL     1     -45.557  58.142 -58.746  1.00  0.00     0.037 C 
BRANCH  19  21
HETATM   21  C   UNL     1     -43.377  59.507 -58.636  1.00  0.00    -0.033 A 
HETATM   22  C   UNL     1     -43.501  59.626 -60.031  1.00  0.00     0.009 A 
HETATM   23  C   UNL     1     -42.616  60.417 -60.763  1.00  0.00     0.003 A 
HETATM   24  C   UNL     1     -41.597  61.103 -60.107  1.00  0.00     0.037 A 
HETATM   25  C   UNL     1     -41.453  61.004 -58.722  1.00  0.00     0.068 A 
HETATM   26  C   UNL     1     -42.348  60.217 -57.991  1.00  0.00     0.046 A 
BRANCH  25  27
HETATM   27  O   UNL     1     -40.416  61.733 -58.206  1.00  0.00    -0.356 OA
HETATM   28  C   UNL     1     -39.769  62.644 -59.086  1.00  0.00     0.210 C 
ENDBRANCH  25  27
ENDBRANCH  19  21
ENDBRANCH  17  19
ENDBRANCH  12  15
BRANCH   1  29
HETATM   29  C   UNL     1     -43.505  53.998 -51.351  1.00  0.00     0.033 C 
HETATM   30  C   UNL     1     -44.237  54.762 -50.256  1.00  0.00     0.008 C 
ENDBRANCH   1  29
TORSDOF 5
ENDMDL
MODEL 5
REMARK VINA RESULT:      -8.1      2.433      3.967
REMARK  5 active torsions:
REMARK  status: ('A' for Active; 'I' for Inactive)
REMARK    1  A    between atoms: C_2  and  C_3 
REMARK    2  A    between atoms: C_14  and  C_17 
REMARK       I    between atoms: C_17  and  N_19 
REMARK    3  A    between atoms: N_19  and  C_20 
REMARK    4  A    between atoms: C_20  and  C_22 
REMARK    5  A    between atoms: C_26  and  O_27 
ROOT
HETATM    1  C   UNL     1     -41.744  53.581 -53.626  1.00  0.00     0.162 C 
HETATM    2  O   UNL     1     -41.747  52.835 -52.395  1.00  0.00    -0.339 OA
HETATM    3  C   UNL     1     -41.320  53.513 -51.287  1.00  0.00     0.098 A 
HETATM    4  C   UNL     1     -40.826  52.760 -50.231  1.00  0.00     0.153 A 
HETATM    5  N   UNL     1     -40.369  53.290 -49.074  1.00  0.00    -0.270 NA
HETATM    6  C   UNL     1     -40.422  54.632 -48.973  1.00  0.00     0.117 A 
HETATM    7  C   UNL     1     -40.918  55.466 -49.966  1.00  0.00     0.034 A 
HETATM    8  C   UNL     1     -41.396  54.905 -51.158  1.00  0.00     0.011 A 
HETATM    9  C   UNL     1     -41.970  55.687 -52.263  1.00  0.00    -0.014 A 
HETATM   10  C   UNL     1     -42.348  57.033 -52.166  1.00  0.00     0.014 A 
HETATM   11  C   UNL     1     -42.882  57.715 -53.267  1.00  0.00     0.018 A 
HETATM   12  C   UNL     1     -43.056  57.072 -54.497  1.00  0.00     0.032 A 
HETATM   13  C   UNL     1     -42.699  55.724 -54.600  1.00  0.00     0.027 A 
HETATM   14  C   UNL     1     -42.165  55.034 -53.491  1.00  0.00    -0.017 A 
ENDROOT
BRANCH  12  15
HETATM   15  C   UNL     1     -43.589  57.881 -55.639  1.00  0.00     0.252 C 
HETATM   16  O   UNL     1     -43.297  59.069 -55.735  1.00  0.00    -0.268 OA
HETATM   17  N   UNL     1     -44.382  57.240 -56.565  1.00  0.00    -0.349 N 
HETATM   18  H   UNL     1     -44.644  56.275 -56.459  1.00  0.00     0.163 HD
BRANCH  17  19
HETATM   19  C   UNL     1     -44.878  57.914 -57.756  1.00  0.00     0.114 C 
HETATM   20  C   UNL     1     -46.189  58.644 -57.460  1.00  0.00     0.037 C 
BRANCH  19  21
HETATM   21  C   UNL     1     -44.948  56.894 -58.884  1.00  0.00    -0.033 A 
HETATM   22  C   UNL     1     -44.041  55.819 -58.869  1.00  0.00     0.009 A 
HETATM   23  C   UNL     1     -44.100  54.822 -59.841  1.00  0.00     0.003 A 
HETATM   24  C   UNL     1     -45.070  54.884 -60.839  1.00  0.00     0.037 A 
HETATM   25  C   UNL     1     -45.984  55.939 -60.875  1.00  0.00     0.068 A 
HETATM   26  C   UNL     1     -45.927  56.933 -59.893  1.00  0.00     0.046 A 
BRANCH  25  27
HETATM   27  O   UNL     1     -46.885  55.874 -61.902  1.00  0.00    -0.356 OA
HETATM   28  C   UNL     1     -48.049  56.684 -61.789  1.00  0.00     0.210 C 
ENDBRANCH  25  27
ENDBRANCH  19  21
ENDBRANCH  17  19
ENDBRANCH  12  15
BRANCH   1  29
HETATM   29  C   UNL     1     -40.375  53.454 -54.317  1.00  0.00     0.033 C 
HETATM   30  C   UNL     1     -39.895  52.010 -54.389  1.00  0.00     0.008 C 
ENDBRANCH   1  29
TORSDOF 5
ENDMDL
MODEL 6
REMARK VINA RESULT:      -7.9      1.743      3.172
REMARK  5 active torsions:
REMARK  status: ('A' for Active; 'I' for Inactive)
REMARK    1  A    between atoms: C_2  and  C_3 
REMARK    2  A    between atoms: C_14  and  C_17 
REMARK       I    between atoms: C_17  and  N_19 
REMARK    3  A    between atoms: N_19  and  C_20 
REMARK    4  A    between atoms: C_20  and  C_22 
REMARK    5  A    between atoms: C_26  and  O_27 
ROOT
HETATM    1  C   UNL     1     -41.642  54.169 -53.728  1.00  0.00     0.162 C 
HETATM    2  O   UNL     1     -41.843  53.302 -52.596  1.00  0.00    -0.339 OA
HETATM    3  C   UNL     1     -41.262  53.707 -51.427  1.00  0.00     0.098 A 
HETATM    4  C   UNL     1     -40.982  52.729 -50.483  1.00  0.00     0.153 A 
HETATM    5  N   UNL     1     -40.411  52.978 -49.283  1.00  0.00    -0.270 NA
HETATM    6  C   UNL     1     -40.119  54.266 -49.019  1.00  0.00     0.117 A 
HETATM    7  C   UNL     1     -40.381  55.314 -49.891  1.00  0.00     0.034 A 
HETATM    8  C   UNL     1     -40.979  55.046 -51.129  1.00  0.00     0.011 A 
HETATM    9  C   UNL     1     -41.329  56.078 -52.115  1.00  0.00    -0.014 A 
HETATM   10  C   UNL     1     -41.350  57.453 -51.846  1.00  0.00     0.014 A 
HETATM   11  C   UNL     1     -41.686  58.379 -52.843  1.00  0.00     0.018 A 
HETATM   12  C   UNL     1     -42.012  57.958 -54.137  1.00  0.00     0.032 A 
HETATM   13  C   UNL     1     -42.011  56.587 -54.411  1.00  0.00     0.027 A 
HETATM   14  C   UNL     1     -41.678  55.653 -53.407  1.00  0.00    -0.017 A 
ENDROOT
BRANCH  12  15
HETATM   15  C   UNL     1     -42.314  59.011 -55.158  1.00  0.00     0.252 C 
HETATM   16  O   UNL     1     -41.525  59.934 -55.337  1.00  0.00    -0.268 OA
HETATM   17  N   UNL     1     -43.477  58.886 -55.884  1.00  0.00    -0.349 N 
HETATM   18  H   UNL     1     -44.135  58.145 -55.707  1.00  0.00     0.163 HD
BRANCH  17  19
HETATM   19  C   UNL     1     -43.821  59.805 -56.959  1.00  0.00     0.114 C 
HETATM   20  C   UNL     1     -45.326  60.078 -56.979  1.00  0.00     0.037 C 
BRANCH  19  21
HETATM   21  C   UNL     1     -43.248  59.254 -58.257  1.00  0.00    -0.033 A 
HETATM   22  C   UNL     1     -42.619  60.147 -59.142  1.00  0.00     0.009 A 
HETATM   23  C   UNL     1     -42.023  59.688 -60.315  1.00  0.00     0.003 A 
HETATM   24  C   UNL     1     -42.043  58.329 -60.617  1.00  0.00     0.037 A 
HETATM   25  C   UNL     1     -42.659  57.420 -59.754  1.00  0.00     0.068 A 
HETATM   26  C   UNL     1     -43.249  57.883 -58.574  1.00  0.00     0.046 A 
BRANCH  25  27
HETATM   27  O   UNL     1     -42.601  56.117 -60.167  1.00  0.00    -0.356 OA
HETATM   28  C   UNL     1     -43.718  55.293 -59.855  1.00  0.00     0.210 C 
ENDBRANCH  25  27
ENDBRANCH  19  21
ENDBRANCH  17  19
ENDBRANCH  12  15
BRANCH   1  29
HETATM   29  C   UNL     1     -40.347  53.784 -54.466  1.00  0.00     0.033 C 
HETATM   30  C   UNL     1     -40.087  52.284 -54.432  1.00  0.00     0.008 C 
ENDBRANCH   1  29
TORSDOF 5
ENDMDL
MODEL 7
REMARK VINA RESULT:      -7.9      2.398      3.702
REMARK  5 active torsions:
REMARK  status: ('A' for Active; 'I' for Inactive)
REMARK    1  A    between atoms: C_2  and  C_3 
REMARK    2  A    between atoms: C_14  and  C_17 
REMARK       I    between atoms: C_17  and  N_19 
REMARK    3  A    between atoms: N_19  and  C_20 
REMARK    4  A    between atoms: C_20  and  C_22 
REMARK    5  A    between atoms: C_26  and  O_27 
ROOT
HETATM    1  C   UNL     1     -42.434  56.782 -52.035  1.00  0.00     0.162 C 
HETATM    2  O   UNL     1     -41.556  56.564 -50.915  1.00  0.00    -0.339 OA
HETATM    3  C   UNL     1     -41.151  55.273 -50.720  1.00  0.00     0.098 A 
HETATM    4  C   UNL     1     -40.756  54.917 -49.437  1.00  0.00     0.153 A 
HETATM    5  N   UNL     1     -40.332  53.681 -49.093  1.00  0.00    -0.270 NA
HETATM    6  C   UNL     1     -40.294  52.768 -50.083  1.00  0.00     0.117 A 
HETATM    7  C   UNL     1     -40.649  53.036 -51.398  1.00  0.00     0.034 A 
HETATM    8  C   UNL     1     -41.081  54.323 -51.745  1.00  0.00     0.011 A 
HETATM    9  C   UNL     1     -41.452  54.727 -53.109  1.00  0.00    -0.014 A 
HETATM   10  C   UNL     1     -41.179  53.972 -54.258  1.00  0.00     0.014 A 
HETATM   11  C   UNL     1     -41.572  54.420 -55.527  1.00  0.00     0.018 A 
HETATM   12  C   UNL     1     -42.247  55.635 -55.684  1.00  0.00     0.032 A 
HETATM   13  C   UNL     1     -42.508  56.404 -54.545  1.00  0.00     0.027 A 
HETATM   14  C   UNL     1     -42.109  55.957 -53.269  1.00  0.00    -0.017 A 
ENDROOT
BRANCH  12  15
HETATM   15  C   UNL     1     -42.675  56.022 -57.066  1.00  0.00     0.252 C 
HETATM   16  O   UNL     1     -43.507  55.344 -57.661  1.00  0.00    -0.268 OA
HETATM   17  N   UNL     1     -42.123  57.157 -57.614  1.00  0.00    -0.349 N 
HETATM   18  H   UNL     1     -41.415  57.687 -57.133  1.00  0.00     0.163 HD
BRANCH  17  19
HETATM   19  C   UNL     1     -42.535  57.668 -58.914  1.00  0.00     0.114 C 
HETATM   20  C   UNL     1     -41.977  56.796 -60.041  1.00  0.00     0.037 C 
BRANCH  19  21
HETATM   21  C   UNL     1     -42.154  59.139 -58.989  1.00  0.00    -0.033 A 
HETATM   22  C   UNL     1     -41.886  59.822 -57.789  1.00  0.00     0.009 A 
HETATM   23  C   UNL     1     -41.473  61.152 -57.801  1.00  0.00     0.003 A 
HETATM   24  C   UNL     1     -41.317  61.818 -59.015  1.00  0.00     0.037 A 
HETATM   25  C   UNL     1     -41.574  61.163 -60.221  1.00  0.00     0.068 A 
HETATM   26  C   UNL     1     -41.981  59.826 -60.205  1.00  0.00     0.046 A 
BRANCH  25  27
HETATM   27  O   UNL     1     -41.376  61.930 -61.336  1.00  0.00    -0.356 OA
HETATM   28  C   UNL     1     -42.138  61.598 -62.490  1.00  0.00     0.210 C 
ENDBRANCH  25  27
ENDBRANCH  19  21
ENDBRANCH  17  19
ENDBRANCH  12  15
BRANCH   1  29
HETATM   29  C   UNL     1     -43.899  56.595 -51.603  1.00  0.00     0.033 C 
HETATM   30  C   UNL     1     -44.734  57.847 -51.834  1.00  0.00     0.008 C 
ENDBRANCH   1  29
TORSDOF 5
ENDMDL
MODEL 8
REMARK VINA RESULT:      -7.9      2.287      3.294
REMARK  5 active torsions:
REMARK  status: ('A' for Active; 'I' for Inactive)
REMARK    1  A    between atoms: C_2  and  C_3 
REMARK    2  A    between atoms: C_14  and  C_17 
REMARK       I    between atoms: C_17  and  N_19 
REMARK    3  A    between atoms: N_19  and  C_20 
REMARK    4  A    between atoms: C_20  and  C_22 
REMARK    5  A    between atoms: C_26  and  O_27 
ROOT
HETATM    1  C   UNL     1     -42.040  56.333 -51.577  1.00  0.00     0.162 C 
HETATM    2  O   UNL     1     -41.002  55.667 -50.834  1.00  0.00    -0.339 OA
HETATM    3  C   UNL     1     -40.666  54.417 -51.274  1.00  0.00     0.098 A 
HETATM    4  C   UNL     1     -40.084  53.554 -50.355  1.00  0.00     0.153 A 
HETATM    5  N   UNL     1     -39.699  52.291 -50.643  1.00  0.00    -0.270 NA
HETATM    6  C   UNL     1     -39.898  51.883 -51.911  1.00  0.00     0.117 A 
HETATM    7  C   UNL     1     -40.453  52.680 -52.904  1.00  0.00     0.034 A 
HETATM    8  C   UNL     1     -40.842  53.990 -52.596  1.00  0.00     0.011 A 
HETATM    9  C   UNL     1     -41.410  54.931 -53.572  1.00  0.00    -0.014 A 
HETATM   10  C   UNL     1     -41.394  54.735 -54.960  1.00  0.00     0.014 A 
HETATM   11  C   UNL     1     -41.965  55.675 -55.828  1.00  0.00     0.018 A 
HETATM   12  C   UNL     1     -42.566  56.839 -55.336  1.00  0.00     0.032 A 
HETATM   13  C   UNL     1     -42.571  57.052 -53.954  1.00  0.00     0.027 A 
HETATM   14  C   UNL     1     -41.993  56.109 -53.079  1.00  0.00    -0.017 A 
ENDROOT
BRANCH  12  15
HETATM   15  C   UNL     1     -43.195  57.771 -56.325  1.00  0.00     0.252 C 
HETATM   16  O   UNL     1     -42.578  58.759 -56.712  1.00  0.00    -0.268 OA
HETATM   17  N   UNL     1     -44.454  57.463 -56.787  1.00  0.00    -0.349 N 
HETATM   18  H   UNL     1     -44.966  56.669 -56.438  1.00  0.00     0.163 HD
BRANCH  17  19
HETATM   19  C   UNL     1     -45.117  58.254 -57.813  1.00  0.00     0.114 C 
HETATM   20  C   UNL     1     -46.343  58.969 -57.239  1.00  0.00     0.037 C 
BRANCH  19  21
HETATM   21  C   UNL     1     -45.398  57.349 -59.003  1.00  0.00    -0.033 A 
HETATM   22  C   UNL     1     -44.366  56.514 -59.466  1.00  0.00     0.009 A 
HETATM   23  C   UNL     1     -44.584  55.620 -60.512  1.00  0.00     0.003 A 
HETATM   24  C   UNL     1     -45.841  55.545 -61.107  1.00  0.00     0.037 A 
HETATM   25  C   UNL     1     -46.885  56.361 -60.666  1.00  0.00     0.068 A 
HETATM   26  C   UNL     1     -46.664  57.250 -59.610  1.00  0.00     0.046 A 
BRANCH  25  27
HETATM   27  O   UNL     1     -48.066  56.181 -61.332  1.00  0.00    -0.356 OA
HETATM   28  C   UNL     1     -48.490  57.236 -62.187  1.00  0.00     0.210 C 
ENDBRANCH  25  27
ENDBRANCH  19  21
ENDBRANCH  17  19
ENDBRANCH  12  15
BRANCH   1  29
HETATM   29  C   UNL     1     -43.420  55.971 -50.997  1.00  0.00     0.033 C 
HETATM   30  C   UNL     1     -44.457  57.058 -51.251  1.00  0.00     0.008 C 
ENDBRANCH   1  29
TORSDOF 5
ENDMDL
MODEL 9
REMARK VINA RESULT:      -7.7      2.434      4.429
REMARK  5 active torsions:
REMARK  status: ('A' for Active; 'I' for Inactive)
REMARK    1  A    between atoms: C_2  and  C_3 
REMARK    2  A    between atoms: C_14  and  C_17 
REMARK       I    between atoms: C_17  and  N_19 
REMARK    3  A    between atoms: N_19  and  C_20 
REMARK    4  A    between atoms: C_20  and  C_22 
REMARK    5  A    between atoms: C_26  and  O_27 
ROOT
HETATM    1  C   UNL     1     -41.875  53.692 -53.902  1.00  0.00     0.162 C 
HETATM    2  O   UNL     1     -42.094  53.334 -52.525  1.00  0.00    -0.339 OA
HETATM    3  C   UNL     1     -41.781  54.295 -51.605  1.00  0.00     0.098 A 
HETATM    4  C   UNL     1     -41.484  53.871 -50.317  1.00  0.00     0.153 A 
HETATM    5  N   UNL     1     -41.158  54.703 -49.303  1.00  0.00    -0.270 NA
HETATM    6  C   UNL     1     -41.140  56.018 -49.595  1.00  0.00     0.117 A 
HETATM    7  C   UNL     1     -41.443  56.538 -50.847  1.00  0.00     0.034 A 
HETATM    8  C   UNL     1     -41.787  55.666 -51.888  1.00  0.00     0.011 A 
HETATM    9  C   UNL     1     -42.154  56.106 -53.242  1.00  0.00    -0.014 A 
HETATM   10  C   UNL     1     -42.457  57.430 -53.587  1.00  0.00     0.014 A 
HETATM   11  C   UNL     1     -42.791  57.775 -54.904  1.00  0.00     0.018 A 
HETATM   12  C   UNL     1     -42.835  56.807 -55.913  1.00  0.00     0.032 A 
HETATM   13  C   UNL     1     -42.552  55.480 -55.575  1.00  0.00     0.027 A 
HETATM   14  C   UNL     1     -42.219  55.131 -54.249  1.00  0.00    -0.017 A 
ENDROOT
BRANCH  12  15
HETATM   15  C   UNL     1     -43.154  57.262 -57.304  1.00  0.00     0.252 C 
HETATM   16  O   UNL     1     -44.301  57.166 -57.730  1.00  0.00    -0.268 OA
HETATM   17  N   UNL     1     -42.133  57.801 -58.053  1.00  0.00    -0.349 N 
HETATM   18  H   UNL     1     -41.189  57.844 -57.707  1.00  0.00     0.163 HD
BRANCH  17  19
HETATM   19  C   UNL     1     -42.356  58.353 -59.381  1.00  0.00     0.114 C 
HETATM   20  C   UNL     1     -41.695  57.479 -60.449  1.00  0.00     0.037 C 
BRANCH  19  21
HETATM   21  C   UNL     1     -41.911  59.808 -59.372  1.00  0.00    -0.033 A 
HETATM   22  C   UNL     1     -41.530  60.383 -58.147  1.00  0.00     0.009 A 
HETATM   23  C   UNL     1     -41.054  61.691 -58.088  1.00  0.00     0.003 A 
HETATM   24  C   UNL     1     -40.949  62.442 -59.256  1.00  0.00     0.037 A 
HETATM   25  C   UNL     1     -41.317  61.895 -60.487  1.00  0.00     0.068 A 
HETATM   26  C   UNL     1     -41.786  60.579 -60.543  1.00  0.00     0.046 A 
BRANCH  25  27
HETATM   27  O   UNL     1     -41.157  62.738 -61.553  1.00  0.00    -0.356 OA
HETATM   28  C   UNL     1     -39.834  62.909 -62.045  1.00  0.00     0.210 C 
ENDBRANCH  25  27
ENDBRANCH  19  21
ENDBRANCH  17  19
ENDBRANCH  12  15
BRANCH   1  29
HETATM   29  C   UNL     1     -40.435  53.343 -54.317  1.00  0.00     0.033 C 
HETATM   30  C   UNL     1     -40.076  51.897 -53.999  1.00  0.00     0.008 C 
ENDBRANCH   1  29
TORSDOF 5
ENDMDL
MODEL 10
REMARK VINA RESULT:      -7.7      2.962      8.732
REMARK  5 active torsions:
REMARK  status: ('A' for Active; 'I' for Inactive)
REMARK    1  A    between atoms: C_2  and  C_3 
REMARK    2  A    between atoms: C_14  and  C_17 
REMARK       I    between atoms: C_17  and  N_19 
REMARK    3  A    between atoms: N_19  and  C_20 
REMARK    4  A    between atoms: C_20  and  C_22 
REMARK    5  A    between atoms: C_26  and  O_27 
ROOT
HETATM    1  C   UNL     1     -43.777  59.379 -53.074  1.00  0.00     0.162 C 
HETATM    2  O   UNL     1     -44.646  60.006 -54.036  1.00  0.00    -0.339 OA
HETATM    3  C   UNL     1     -44.615  59.479 -55.297  1.00  0.00     0.098 A 
HETATM    4  C   UNL     1     -45.003  60.306 -56.342  1.00  0.00     0.153 A 
HETATM    5  N   UNL     1     -45.025  59.924 -57.639  1.00  0.00    -0.270 NA
HETATM    6  C   UNL     1     -44.651  58.655 -57.892  1.00  0.00     0.117 A 
HETATM    7  C   UNL     1     -44.269  57.749 -56.912  1.00  0.00     0.034 A 
HETATM    8  C   UNL     1     -44.256  58.153 -55.570  1.00  0.00     0.011 A 
HETATM    9  C   UNL     1     -43.899  57.273 -54.449  1.00  0.00    -0.014 A 
HETATM   10  C   UNL     1     -43.781  55.879 -54.545  1.00  0.00     0.014 A 
HETATM   11  C   UNL     1     -43.428  55.106 -53.431  1.00  0.00     0.018 A 
HETATM   12  C   UNL     1     -43.183  55.701 -52.189  1.00  0.00     0.032 A 
HETATM   13  C   UNL     1     -43.316  57.089 -52.078  1.00  0.00     0.027 A 
HETATM   14  C   UNL     1     -43.676  57.868 -53.197  1.00  0.00    -0.017 A 
ENDROOT
BRANCH  12  15
HETATM   15  C   UNL     1     -42.765  54.812 -51.059  1.00  0.00     0.252 C 
HETATM   16  O   UNL     1     -43.612  54.335 -50.310  1.00  0.00    -0.268 OA
HETATM   17  N   UNL     1     -41.422  54.541 -50.919  1.00  0.00    -0.349 N 
HETATM   18  H   UNL     1     -40.732  54.964 -51.517  1.00  0.00     0.163 HD
BRANCH  17  19
HETATM   19  C   UNL     1     -40.920  53.620 -49.909  1.00  0.00     0.114 C 
HETATM   20  C   UNL     1     -39.909  54.317 -48.996  1.00  0.00     0.037 C 
BRANCH  19  21
HETATM   21  C   UNL     1     -40.400  52.377 -50.617  1.00  0.00    -0.033 A 
HETATM   22  C   UNL     1     -40.391  51.162 -49.911  1.00  0.00     0.009 A 
HETATM   23  C   UNL     1     -39.985  49.980 -50.527  1.00  0.00     0.003 A 
HETATM   24  C   UNL     1     -39.587  49.997 -51.862  1.00  0.00     0.037 A 
HETATM   25  C   UNL     1     -39.589  51.190 -52.587  1.00  0.00     0.068 A 
HETATM   26  C   UNL     1     -40.005  52.372 -51.967  1.00  0.00     0.046 A 
BRANCH  25  27
HETATM   27  O   UNL     1     -39.181  51.064 -53.887  1.00  0.00    -0.356 OA
HETATM   28  C   UNL     1     -39.539  49.864 -54.561  1.00  0.00     0.210 C 
ENDBRANCH  25  27
ENDBRANCH  19  21
ENDBRANCH  17  19
ENDBRANCH  12  15
BRANCH   1  29
HETATM   29  C   UNL     1     -42.388  60.041 -53.106  1.00  0.00     0.033 C 
HETATM   30  C   UNL     1     -41.518  59.616 -51.930  1.00  0.00     0.008 C 
ENDBRANCH   1  29
TORSDOF 5
ENDMDL
