MODEL 1
REMARK VINA RESULT:      -9.3      0.000      0.000
REMARK  6 active torsions:
REMARK  status: ('A' for Active; 'I' for Inactive)
REMARK    1  A    between atoms: C_4  and  C_5 
REMARK    2  A    between atoms: C_8  and  C_9 
REMARK    3  A    between atoms: C_9  and  N_10 
REMARK       I    between atoms: N_10  and  C_11 
REMARK       I    between atoms: C_11  and  N_12 
REMARK    4  A    between atoms: N_12  and  C_13 
REMARK    5  A    between atoms: C_15  and  C_16 
REMARK    6  A    between atoms: C_30  and  C_31 
ROOT
HETATM    1  C   UNL     1     -43.554  59.333 -53.455  1.00  0.00     0.068 C 
HETATM    2  C   UNL     1     -42.245  60.117 -53.130  1.00  0.00     0.001 C 
HETATM    3  C   UNL     1     -41.327  59.345 -52.153  1.00  0.00     0.040 C 
HETATM    4  C   UNL     1     -42.080  58.968 -50.868  1.00  0.00     0.206 C 
HETATM    5  N   UNL     1     -43.479  59.571 -50.986  1.00  0.00    -0.065 N 
HETATM    6  H   UNL     1     -43.990  59.306 -50.115  1.00  0.00     0.280 HD
HETATM    7  C   UNL     1     -44.281  59.007 -52.140  1.00  0.00     0.246 C 
HETATM    8  C   UNL     1     -42.668  61.414 -52.393  1.00  0.00     0.033 C 
HETATM    9  C   UNL     1     -43.399  61.075 -51.087  1.00  0.00     0.236 C 
ENDROOT
BRANCH   4  10
HETATM   10  C   UNL     1     -42.084  57.441 -50.576  1.00  0.00     0.157 C 
BRANCH  10  11
HETATM   11  N   UNL     1     -41.332  56.603 -51.511  1.00  0.00    -0.341 N 
HETATM   12  C   UNL     1     -41.226  55.235 -51.398  1.00  0.00     0.320 C 
HETATM   13  N   UNL     1     -40.588  54.681 -52.477  1.00  0.00    -0.309 N 
HETATM   14  O   UNL     1     -41.633  54.647 -50.402  1.00  0.00    -0.247 OA
HETATM   15  H   UNL     1     -40.188  55.322 -53.148  1.00  0.00     0.170 HD
HETATM   16  H   UNL     1     -41.309  56.945 -52.464  1.00  0.00     0.164 HD
BRANCH  13  17
HETATM   17  C   UNL     1     -40.330  53.312 -52.716  1.00  0.00     0.037 A 
HETATM   18  C   UNL     1     -40.158  52.364 -51.705  1.00  0.00     0.045 A 
HETATM   19  C   UNL     1     -39.901  51.015 -52.012  1.00  0.00     0.050 A 
HETATM   20  C   UNL     1     -39.814  50.626 -53.356  1.00  0.00     0.016 A 
HETATM   21  C   UNL     1     -39.993  51.564 -54.370  1.00  0.00     0.003 A 
HETATM   22  C   UNL     1     -40.252  52.899 -54.051  1.00  0.00     0.029 A 
BRANCH  19  23
HETATM   23  C   UNL     1     -39.685  50.002 -50.914  1.00  0.00     0.417 C 
HETATM   24  F   UNL     1     -40.370  48.840 -51.113  1.00  0.00    -0.166 F 
HETATM   25  F   UNL     1     -38.380  49.645 -50.771  1.00  0.00    -0.166 F 
HETATM   26  F   UNL     1     -40.087  50.466 -49.699  1.00  0.00    -0.166 F 
ENDBRANCH  19  23
ENDBRANCH  13  17
ENDBRANCH  10  11
ENDBRANCH   4  10
BRANCH   1  27
HETATM   27  C   UNL     1     -43.406  58.080 -54.296  1.00  0.00     0.045 A 
HETATM   28  N   UNL     1     -43.683  56.897 -53.723  1.00  0.00    -0.238 NA
HETATM   29  C   UNL     1     -43.577  55.795 -54.490  1.00  0.00     0.123 A 
HETATM   30  C   UNL     1     -43.811  54.463 -53.849  1.00  0.00     0.093 C 
HETATM   31  N   UNL     1     -43.299  55.811 -55.799  1.00  0.00    -0.233 NA
HETATM   32  C   UNL     1     -43.059  57.008 -56.371  1.00  0.00     0.077 A 
HETATM   33  C   UNL     1     -43.086  58.182 -55.640  1.00  0.00     0.060 A 
BRANCH  32  34
HETATM   34  C   UNL     1     -42.810  56.937 -57.822  1.00  0.00     0.033 A 
HETATM   35  S   UNL     1     -42.041  58.216 -58.681  1.00  0.00    -0.100 SA
HETATM   36  C   UNL     1     -42.170  57.404 -60.176  1.00  0.00     0.050 A 
HETATM   37  C   UNL     1     -42.782  56.180 -60.045  1.00  0.00     0.008 A 
HETATM   38  C   UNL     1     -43.147  55.913 -58.695  1.00  0.00     0.021 A 
ENDBRANCH  32  34
ENDBRANCH   1  27
TORSDOF 6
ENDMDL
MODEL 2
REMARK VINA RESULT:      -9.0      1.913      2.405
REMARK  6 active torsions:
REMARK  status: ('A' for Active; 'I' for Inactive)
REMARK    1  A    between atoms: C_4  and  C_5 
REMARK    2  A    between atoms: C_8  and  C_9 
REMARK    3  A    between atoms: C_9  and  N_10 
REMARK       I    between atoms: N_10  and  C_11 
REMARK       I    between atoms: C_11  and  N_12 
REMARK    4  A    between atoms: N_12  and  C_13 
REMARK    5  A    between atoms: C_15  and  C_16 
REMARK    6  A    between atoms: C_30  and  C_31 
ROOT
HETATM    1  C   UNL     1     -43.333  59.192 -54.968  1.00  0.00     0.068 C 
HETATM    2  C   UNL     1     -42.107  59.781 -54.204  1.00  0.00     0.001 C 
HETATM    3  C   UNL     1     -41.688  58.900 -53.003  1.00  0.00     0.040 C 
HETATM    4  C   UNL     1     -42.872  58.664 -52.051  1.00  0.00     0.206 C 
HETATM    5  N   UNL     1     -44.048  59.465 -52.607  1.00  0.00    -0.065 N 
HETATM    6  H   UNL     1     -44.852  59.296 -51.963  1.00  0.00     0.280 HD
HETATM    7  C   UNL     1     -44.495  59.004 -53.978  1.00  0.00     0.246 C 
HETATM    8  C   UNL     1     -42.556  61.140 -53.609  1.00  0.00     0.033 C 
HETATM    9  C   UNL     1     -43.720  60.938 -52.629  1.00  0.00     0.236 C 
ENDROOT
BRANCH   4  10
HETATM   10  C   UNL     1     -43.196  57.161 -51.824  1.00  0.00     0.157 C 
BRANCH  10  11
HETATM   11  N   UNL     1     -42.053  56.289 -51.544  1.00  0.00    -0.341 N 
HETATM   12  C   UNL     1     -42.070  54.925 -51.723  1.00  0.00     0.320 C 
HETATM   13  N   UNL     1     -40.834  54.368 -51.523  1.00  0.00    -0.309 N 
HETATM   14  O   UNL     1     -43.111  54.332 -51.982  1.00  0.00    -0.247 OA
HETATM   15  H   UNL     1     -40.109  54.980 -51.174  1.00  0.00     0.170 HD
HETATM   16  H   UNL     1     -41.147  56.718 -51.689  1.00  0.00     0.164 HD
BRANCH  13  17
HETATM   17  C   UNL     1     -40.471  53.008 -51.648  1.00  0.00     0.037 A 
HETATM   18  C   UNL     1     -40.290  52.359 -52.871  1.00  0.00     0.045 A 
HETATM   19  C   UNL     1     -39.930  51.000 -52.926  1.00  0.00     0.050 A 
HETATM   20  C   UNL     1     -39.756  50.293 -51.728  1.00  0.00     0.016 A 
HETATM   21  C   UNL     1     -39.926  50.935 -50.504  1.00  0.00     0.003 A 
HETATM   22  C   UNL     1     -40.279  52.285 -50.465  1.00  0.00     0.029 A 
BRANCH  19  23
HETATM   23  C   UNL     1     -39.768  50.298 -54.252  1.00  0.00     0.417 C 
HETATM   24  F   UNL     1     -39.497  51.150 -55.281  1.00  0.00    -0.166 F 
HETATM   25  F   UNL     1     -38.759  49.385 -54.249  1.00  0.00    -0.166 F 
HETATM   26  F   UNL     1     -40.891  49.621 -54.618  1.00  0.00    -0.166 F 
ENDBRANCH  19  23
ENDBRANCH  13  17
ENDBRANCH  10  11
ENDBRANCH   4  10
BRANCH   1  27
HETATM   27  C   UNL     1     -43.099  57.915 -55.751  1.00  0.00     0.045 A 
HETATM   28  N   UNL     1     -42.328  56.965 -55.195  1.00  0.00    -0.238 NA
HETATM   29  C   UNL     1     -42.154  55.824 -55.888  1.00  0.00     0.123 A 
HETATM   30  C   UNL     1     -41.240  54.785 -55.317  1.00  0.00     0.093 C 
HETATM   31  N   UNL     1     -42.763  55.542 -57.045  1.00  0.00    -0.233 NA
HETATM   32  C   UNL     1     -43.563  56.490 -57.574  1.00  0.00     0.077 A 
HETATM   33  C   UNL     1     -43.747  57.714 -56.958  1.00  0.00     0.060 A 
BRANCH  32  34
HETATM   34  C   UNL     1     -44.231  56.078 -58.823  1.00  0.00     0.033 A 
HETATM   35  S   UNL     1     -45.513  56.993 -59.517  1.00  0.00    -0.100 SA
HETATM   36  C   UNL     1     -45.715  55.892 -60.805  1.00  0.00     0.050 A 
HETATM   37  C   UNL     1     -44.832  54.842 -60.727  1.00  0.00     0.008 A 
HETATM   38  C   UNL     1     -43.980  54.950 -59.591  1.00  0.00     0.021 A 
ENDBRANCH  32  34
ENDBRANCH   1  27
TORSDOF 6
ENDMDL
MODEL 3
REMARK VINA RESULT:      -9.0      2.166      3.235
REMARK  6 active torsions:
REMARK  status: ('A' for Active; 'I' for Inactive)
REMARK    1  A    between atoms: C_4  and  C_5 
REMARK    2  A    between atoms: C_8  and  C_9 
REMARK    3  A    between atoms: C_9  and  N_10 
REMARK       I    between atoms: N_10  and  C_11 
REMARK       I    between atoms: C_11  and  N_12 
REMARK    4  A    between atoms: N_12  and  C_13 
REMARK    5  A    between atoms: C_15  and  C_16 
REMARK    6  A    between atoms: C_30  and  C_31 
ROOT
HETATM    1  C   UNL     1     -44.411  60.961 -53.207  1.00  0.00     0.068 C 
HETATM    2  C   UNL     1     -44.084  61.644 -51.843  1.00  0.00     0.001 C 
HETATM    3  C   UNL     1     -44.045  60.630 -50.675  1.00  0.00     0.040 C 
HETATM    4  C   UNL     1     -45.356  59.830 -50.594  1.00  0.00     0.206 C 
HETATM    5  N   UNL     1     -46.278  60.389 -51.676  1.00  0.00    -0.065 N 
HETATM    6  H   UNL     1     -47.163  59.838 -51.624  1.00  0.00     0.280 HD
HETATM    7  C   UNL     1     -45.742  60.201 -53.080  1.00  0.00     0.246 C 
HETATM    8  C   UNL     1     -45.252  62.616 -51.535  1.00  0.00     0.033 C 
HETATM    9  C   UNL     1     -46.574  61.846 -51.417  1.00  0.00     0.236 C 
ENDROOT
BRANCH   4  10
HETATM   10  C   UNL     1     -45.151  58.292 -50.686  1.00  0.00     0.157 C 
BRANCH  10  11
HETATM   11  N   UNL     1     -43.782  57.836 -50.936  1.00  0.00    -0.341 N 
HETATM   12  C   UNL     1     -43.406  56.512 -50.950  1.00  0.00     0.320 C 
HETATM   13  N   UNL     1     -42.103  56.355 -51.346  1.00  0.00    -0.309 N 
HETATM   14  O   UNL     1     -44.179  55.630 -50.594  1.00  0.00    -0.247 OA
HETATM   15  H   UNL     1     -41.559  57.198 -51.468  1.00  0.00     0.170 HD
HETATM   16  H   UNL     1     -43.244  58.429 -51.556  1.00  0.00     0.164 HD
BRANCH  13  17
HETATM   17  C   UNL     1     -41.392  55.144 -51.505  1.00  0.00     0.037 A 
HETATM   18  C   UNL     1     -41.242  54.484 -52.726  1.00  0.00     0.045 A 
HETATM   19  C   UNL     1     -40.522  53.278 -52.816  1.00  0.00     0.050 A 
HETATM   20  C   UNL     1     -39.951  52.738 -51.655  1.00  0.00     0.016 A 
HETATM   21  C   UNL     1     -40.088  53.395 -50.435  1.00  0.00     0.003 A 
HETATM   22  C   UNL     1     -40.803  54.592 -50.362  1.00  0.00     0.029 A 
BRANCH  19  23
HETATM   23  C   UNL     1     -40.392  52.554 -54.134  1.00  0.00     0.417 C 
HETATM   24  F   UNL     1     -39.428  51.589 -54.124  1.00  0.00    -0.166 F 
HETATM   25  F   UNL     1     -41.540  51.929 -54.512  1.00  0.00    -0.166 F 
HETATM   26  F   UNL     1     -40.063  53.395 -55.153  1.00  0.00    -0.166 F 
ENDBRANCH  19  23
ENDBRANCH  13  17
ENDBRANCH  10  11
ENDBRANCH   4  10
BRANCH   1  27
HETATM   27  C   UNL     1     -43.343  60.055 -53.788  1.00  0.00     0.045 A 
HETATM   28  N   UNL     1     -42.223  59.859 -53.073  1.00  0.00    -0.238 NA
HETATM   29  C   UNL     1     -41.296  59.028 -53.586  1.00  0.00     0.123 A 
HETATM   30  C   UNL     1     -40.011  58.854 -52.837  1.00  0.00     0.093 C 
HETATM   31  N   UNL     1     -41.454  58.323 -54.712  1.00  0.00    -0.233 NA
HETATM   32  C   UNL     1     -42.600  58.501 -55.402  1.00  0.00     0.077 A 
HETATM   33  C   UNL     1     -43.575  59.383 -54.976  1.00  0.00     0.060 A 
BRANCH  32  34
HETATM   34  C   UNL     1     -42.712  57.650 -56.601  1.00  0.00     0.033 A 
HETATM   35  S   UNL     1     -42.686  58.308 -58.192  1.00  0.00    -0.100 SA
HETATM   36  C   UNL     1     -42.886  56.777 -58.920  1.00  0.00     0.050 A 
HETATM   37  C   UNL     1     -42.971  55.772 -57.986  1.00  0.00     0.008 A 
HETATM   38  C   UNL     1     -42.869  56.273 -56.658  1.00  0.00     0.021 A 
ENDBRANCH  32  34
ENDBRANCH   1  27
TORSDOF 6
ENDMDL
MODEL 4
REMARK VINA RESULT:      -9.0      2.666      5.737
REMARK  6 active torsions:
REMARK  status: ('A' for Active; 'I' for Inactive)
REMARK    1  A    between atoms: C_4  and  C_5 
REMARK    2  A    between atoms: C_8  and  C_9 
REMARK    3  A    between atoms: C_9  and  N_10 
REMARK       I    between atoms: N_10  and  C_11 
REMARK       I    between atoms: C_11  and  N_12 
REMARK    4  A    between atoms: N_12  and  C_13 
REMARK    5  A    between atoms: C_15  and  C_16 
REMARK    6  A    between atoms: C_30  and  C_31 
ROOT
HETATM    1  C   UNL     1     -42.998  59.725 -58.181  1.00  0.00     0.068 C 
HETATM    2  C   UNL     1     -43.790  59.333 -59.466  1.00  0.00     0.001 C 
HETATM    3  C   UNL     1     -44.359  57.896 -59.388  1.00  0.00     0.040 C 
HETATM    4  C   UNL     1     -43.247  56.877 -59.090  1.00  0.00     0.206 C 
HETATM    5  N   UNL     1     -41.935  57.659 -59.052  1.00  0.00    -0.065 N 
HETATM    6  H   UNL     1     -41.184  56.965 -58.841  1.00  0.00     0.280 HD
HETATM    7  C   UNL     1     -41.883  58.692 -57.946  1.00  0.00     0.246 C 
HETATM    8  C   UNL     1     -42.776  59.334 -60.639  1.00  0.00     0.033 C 
HETATM    9  C   UNL     1     -41.666  58.304 -60.389  1.00  0.00     0.236 C 
ENDROOT
BRANCH   4  10
HETATM   10  C   UNL     1     -43.506  56.033 -57.811  1.00  0.00     0.157 C 
BRANCH  10  11
HETATM   11  N   UNL     1     -42.333  55.734 -56.986  1.00  0.00    -0.341 N 
HETATM   12  C   UNL     1     -42.331  54.811 -55.965  1.00  0.00     0.320 C 
HETATM   13  N   UNL     1     -41.075  54.624 -55.449  1.00  0.00    -0.309 N 
HETATM   14  O   UNL     1     -43.370  54.289 -55.579  1.00  0.00    -0.247 OA
HETATM   15  H   UNL     1     -40.347  55.239 -55.786  1.00  0.00     0.170 HD
HETATM   16  H   UNL     1     -41.444  55.833 -57.461  1.00  0.00     0.164 HD
BRANCH  13  17
HETATM   17  C   UNL     1     -40.691  53.737 -54.418  1.00  0.00     0.037 A 
HETATM   18  C   UNL     1     -40.411  52.383 -54.619  1.00  0.00     0.045 A 
HETATM   19  C   UNL     1     -40.036  51.553 -53.547  1.00  0.00     0.050 A 
HETATM   20  C   UNL     1     -39.946  52.101 -52.260  1.00  0.00     0.016 A 
HETATM   21  C   UNL     1     -40.214  53.452 -52.052  1.00  0.00     0.003 A 
HETATM   22  C   UNL     1     -40.582  54.265 -53.127  1.00  0.00     0.029 A 
BRANCH  19  23
HETATM   23  C   UNL     1     -39.766  50.084 -53.767  1.00  0.00     0.417 C 
HETATM   24  F   UNL     1     -38.679  49.850 -54.556  1.00  0.00    -0.166 F 
HETATM   25  F   UNL     1     -39.539  49.407 -52.609  1.00  0.00    -0.166 F 
HETATM   26  F   UNL     1     -40.809  49.455 -54.376  1.00  0.00    -0.166 F 
ENDBRANCH  19  23
ENDBRANCH  13  17
ENDBRANCH  10  11
ENDBRANCH   4  10
BRANCH   1  27
HETATM   27  C   UNL     1     -43.808  59.919 -56.914  1.00  0.00     0.045 A 
HETATM   28  N   UNL     1     -44.859  60.754 -56.958  1.00  0.00    -0.238 NA
HETATM   29  C   UNL     1     -45.589  60.894 -55.834  1.00  0.00     0.123 A 
HETATM   30  C   UNL     1     -46.719  61.875 -55.844  1.00  0.00     0.093 C 
HETATM   31  N   UNL     1     -45.386  60.195 -54.711  1.00  0.00    -0.233 NA
HETATM   32  C   UNL     1     -44.350  59.332 -54.693  1.00  0.00     0.077 A 
HETATM   33  C   UNL     1     -43.515  59.175 -55.783  1.00  0.00     0.060 A 
BRANCH  32  34
HETATM   34  C   UNL     1     -44.232  58.569 -53.437  1.00  0.00     0.033 A 
HETATM   35  S   UNL     1     -43.023  57.364 -53.211  1.00  0.00    -0.100 SA
HETATM   36  C   UNL     1     -43.570  56.988 -51.639  1.00  0.00     0.050 A 
HETATM   37  C   UNL     1     -44.650  57.756 -51.274  1.00  0.00     0.008 A 
HETATM   38  C   UNL     1     -45.027  58.663 -52.304  1.00  0.00     0.021 A 
ENDBRANCH  32  34
ENDBRANCH   1  27
TORSDOF 6
ENDMDL
MODEL 5
REMARK VINA RESULT:      -8.9      2.752      5.673
REMARK  6 active torsions:
REMARK  status: ('A' for Active; 'I' for Inactive)
REMARK    1  A    between atoms: C_4  and  C_5 
REMARK    2  A    between atoms: C_8  and  C_9 
REMARK    3  A    between atoms: C_9  and  N_10 
REMARK       I    between atoms: N_10  and  C_11 
REMARK       I    between atoms: C_11  and  N_12 
REMARK    4  A    between atoms: N_12  and  C_13 
REMARK    5  A    between atoms: C_15  and  C_16 
REMARK    6  A    between atoms: C_30  and  C_31 
ROOT
HETATM    1  C   UNL     1     -42.958  59.467 -57.936  1.00  0.00     0.068 C 
HETATM    2  C   UNL     1     -43.817  59.092 -59.183  1.00  0.00     0.001 C 
HETATM    3  C   UNL     1     -44.384  57.655 -59.093  1.00  0.00     0.040 C 
HETATM    4  C   UNL     1     -43.260  56.631 -58.866  1.00  0.00     0.206 C 
HETATM    5  N   UNL     1     -41.946  57.411 -58.886  1.00  0.00    -0.065 N 
HETATM    6  H   UNL     1     -41.186  56.714 -58.724  1.00  0.00     0.280 HD
HETATM    7  C   UNL     1     -41.835  58.430 -57.772  1.00  0.00     0.246 C 
HETATM    8  C   UNL     1     -42.866  59.107 -60.407  1.00  0.00     0.033 C 
HETATM    9  C   UNL     1     -41.746  58.073 -60.228  1.00  0.00     0.236 C 
ENDROOT
BRANCH   4  10
HETATM   10  C   UNL     1     -43.452  55.771 -57.587  1.00  0.00     0.157 C 
BRANCH  10  11
HETATM   11  N   UNL     1     -42.240  55.465 -56.825  1.00  0.00    -0.341 N 
HETATM   12  C   UNL     1     -42.219  54.656 -55.712  1.00  0.00     0.320 C 
HETATM   13  N   UNL     1     -40.941  54.421 -55.274  1.00  0.00    -0.309 N 
HETATM   14  O   UNL     1     -43.258  54.264 -55.193  1.00  0.00    -0.247 OA
HETATM   15  H   UNL     1     -40.201  54.937 -55.732  1.00  0.00     0.170 HD
HETATM   16  H   UNL     1     -41.389  55.441 -57.374  1.00  0.00     0.164 HD
BRANCH  13  17
HETATM   17  C   UNL     1     -40.537  53.618 -54.185  1.00  0.00     0.037 A 
HETATM   18  C   UNL     1     -40.638  54.009 -52.848  1.00  0.00     0.045 A 
HETATM   19  C   UNL     1     -40.215  53.160 -51.809  1.00  0.00     0.050 A 
HETATM   20  C   UNL     1     -39.682  51.904 -52.130  1.00  0.00     0.016 A 
HETATM   21  C   UNL     1     -39.586  51.502 -53.460  1.00  0.00     0.003 A 
HETATM   22  C   UNL     1     -40.014  52.354 -54.481  1.00  0.00     0.029 A 
BRANCH  19  23
HETATM   23  C   UNL     1     -40.298  53.604 -50.368  1.00  0.00     0.417 C 
HETATM   24  F   UNL     1     -39.193  54.287 -49.952  1.00  0.00    -0.166 F 
HETATM   25  F   UNL     1     -41.356  54.423 -50.126  1.00  0.00    -0.166 F 
HETATM   26  F   UNL     1     -40.427  52.552 -49.513  1.00  0.00    -0.166 F 
ENDBRANCH  19  23
ENDBRANCH  13  17
ENDBRANCH  10  11
ENDBRANCH   4  10
BRANCH   1  27
HETATM   27  C   UNL     1     -43.701  59.646 -56.626  1.00  0.00     0.045 A 
HETATM   28  N   UNL     1     -44.670  60.575 -56.571  1.00  0.00    -0.238 NA
HETATM   29  C   UNL     1     -45.343  60.702 -55.411  1.00  0.00     0.123 A 
HETATM   30  C   UNL     1     -46.376  61.781 -55.309  1.00  0.00     0.093 C 
HETATM   31  N   UNL     1     -45.168  59.911 -54.346  1.00  0.00    -0.233 NA
HETATM   32  C   UNL     1     -44.217  58.958 -54.428  1.00  0.00     0.077 A 
HETATM   33  C   UNL     1     -43.440  58.802 -55.560  1.00  0.00     0.060 A 
BRANCH  32  34
HETATM   34  C   UNL     1     -44.126  58.103 -53.231  1.00  0.00     0.033 A 
HETATM   35  S   UNL     1     -45.082  58.392 -51.828  1.00  0.00    -0.100 SA
HETATM   36  C   UNL     1     -44.391  57.081 -50.982  1.00  0.00     0.050 A 
HETATM   37  C   UNL     1     -43.449  56.422 -51.737  1.00  0.00     0.008 A 
HETATM   38  C   UNL     1     -43.300  57.007 -53.026  1.00  0.00     0.021 A 
ENDBRANCH  32  34
ENDBRANCH   1  27
TORSDOF 6
ENDMDL
MODEL 6
REMARK VINA RESULT:      -8.9      2.414      3.655
REMARK  6 active torsions:
REMARK  status: ('A' for Active; 'I' for Inactive)
REMARK    1  A    between atoms: C_4  and  C_5 
REMARK    2  A    between atoms: C_8  and  C_9 
REMARK    3  A    between atoms: C_9  and  N_10 
REMARK       I    between atoms: N_10  and  C_11 
REMARK       I    between atoms: C_11  and  N_12 
REMARK    4  A    between atoms: N_12  and  C_13 
REMARK    5  A    between atoms: C_15  and  C_16 
REMARK    6  A    between atoms: C_30  and  C_31 
ROOT
HETATM    1  C   UNL     1     -45.762  60.339 -51.941  1.00  0.00     0.068 C 
HETATM    2  C   UNL     1     -45.236  61.745 -51.516  1.00  0.00     0.001 C 
HETATM    3  C   UNL     1     -43.694  61.777 -51.385  1.00  0.00     0.040 C 
HETATM    4  C   UNL     1     -43.199  60.686 -50.423  1.00  0.00     0.206 C 
HETATM    5  N   UNL     1     -44.442  59.991 -49.870  1.00  0.00    -0.065 N 
HETATM    6  H   UNL     1     -44.101  59.245 -49.223  1.00  0.00     0.280 HD
HETATM    7  C   UNL     1     -45.262  59.292 -50.932  1.00  0.00     0.246 C 
HETATM    8  C   UNL     1     -45.797  62.026 -50.099  1.00  0.00     0.033 C 
HETATM    9  C   UNL     1     -45.297  60.971 -49.103  1.00  0.00     0.236 C 
ENDROOT
BRANCH   4  10
HETATM   10  C   UNL     1     -42.175  59.709 -51.066  1.00  0.00     0.157 C 
BRANCH  10  11
HETATM   11  N   UNL     1     -42.272  58.307 -50.653  1.00  0.00    -0.341 N 
HETATM   12  C   UNL     1     -41.605  57.278 -51.277  1.00  0.00     0.320 C 
HETATM   13  N   UNL     1     -41.756  56.091 -50.609  1.00  0.00    -0.309 N 
HETATM   14  O   UNL     1     -41.003  57.458 -52.330  1.00  0.00    -0.247 OA
HETATM   15  H   UNL     1     -42.403  56.086 -49.832  1.00  0.00     0.170 HD
HETATM   16  H   UNL     1     -42.422  58.167 -49.662  1.00  0.00     0.164 HD
BRANCH  13  17
HETATM   17  C   UNL     1     -41.193  54.838 -50.939  1.00  0.00     0.037 A 
HETATM   18  C   UNL     1     -41.032  54.376 -52.246  1.00  0.00     0.045 A 
HETATM   19  C   UNL     1     -40.464  53.115 -52.506  1.00  0.00     0.050 A 
HETATM   20  C   UNL     1     -40.059  52.315 -51.428  1.00  0.00     0.016 A 
HETATM   21  C   UNL     1     -40.207  52.773 -50.121  1.00  0.00     0.003 A 
HETATM   22  C   UNL     1     -40.769  54.028 -49.879  1.00  0.00     0.029 A 
BRANCH  19  23
HETATM   23  C   UNL     1     -40.324  52.609 -53.921  1.00  0.00     0.417 C 
HETATM   24  F   UNL     1     -41.478  52.080 -54.420  1.00  0.00    -0.166 F 
HETATM   25  F   UNL     1     -39.950  53.581 -54.797  1.00  0.00    -0.166 F 
HETATM   26  F   UNL     1     -39.389  51.624 -54.025  1.00  0.00    -0.166 F 
ENDBRANCH  19  23
ENDBRANCH  13  17
ENDBRANCH  10  11
ENDBRANCH   4  10
BRANCH   1  27
HETATM   27  C   UNL     1     -45.450  59.894 -53.356  1.00  0.00     0.045 A 
HETATM   28  N   UNL     1     -45.638  60.776 -54.352  1.00  0.00    -0.238 NA
HETATM   29  C   UNL     1     -45.327  60.379 -55.601  1.00  0.00     0.123 A 
HETATM   30  C   UNL     1     -45.599  61.323 -56.731  1.00  0.00     0.093 C 
HETATM   31  N   UNL     1     -44.767  59.201 -55.901  1.00  0.00    -0.233 NA
HETATM   32  C   UNL     1     -44.548  58.339 -54.887  1.00  0.00     0.077 A 
HETATM   33  C   UNL     1     -44.896  58.646 -53.584  1.00  0.00     0.060 A 
BRANCH  32  34
HETATM   34  C   UNL     1     -43.884  57.090 -55.300  1.00  0.00     0.033 A 
HETATM   35  S   UNL     1     -43.191  56.898 -56.864  1.00  0.00    -0.100 SA
HETATM   36  C   UNL     1     -42.708  55.292 -56.548  1.00  0.00     0.050 A 
HETATM   37  C   UNL     1     -43.058  54.891 -55.280  1.00  0.00     0.008 A 
HETATM   38  C   UNL     1     -43.730  55.923 -54.565  1.00  0.00     0.021 A 
ENDBRANCH  32  34
ENDBRANCH   1  27
TORSDOF 6
ENDMDL
MODEL 7
REMARK VINA RESULT:      -8.9      3.714      6.234
REMARK  6 active torsions:
REMARK  status: ('A' for Active; 'I' for Inactive)
REMARK    1  A    between atoms: C_4  and  C_5 
REMARK    2  A    between atoms: C_8  and  C_9 
REMARK    3  A    between atoms: C_9  and  N_10 
REMARK       I    between atoms: N_10  and  C_11 
REMARK       I    between atoms: C_11  and  N_12 
REMARK    4  A    between atoms: N_12  and  C_13 
REMARK    5  A    between atoms: C_15  and  C_16 
REMARK    6  A    between atoms: C_30  and  C_31 
ROOT
HETATM    1  C   UNL     1     -43.501  58.383 -60.366  1.00  0.00     0.068 C 
HETATM    2  C   UNL     1     -44.860  57.768 -59.913  1.00  0.00     0.001 C 
HETATM    3  C   UNL     1     -44.917  57.535 -58.384  1.00  0.00     0.040 C 
HETATM    4  C   UNL     1     -43.734  56.673 -57.913  1.00  0.00     0.206 C 
HETATM    5  N   UNL     1     -42.949  56.284 -59.164  1.00  0.00    -0.065 N 
HETATM    6  H   UNL     1     -42.142  55.706 -58.839  1.00  0.00     0.280 HD
HETATM    7  C   UNL     1     -42.356  57.470 -59.895  1.00  0.00     0.246 C 
HETATM    8  C   UNL     1     -44.962  56.367 -60.569  1.00  0.00     0.033 C 
HETATM    9  C   UNL     1     -43.811  55.468 -60.096  1.00  0.00     0.236 C 
ENDROOT
BRANCH   4  10
HETATM   10  C   UNL     1     -42.864  57.357 -56.821  1.00  0.00     0.157 C 
BRANCH  10  11
HETATM   11  N   UNL     1     -41.751  56.566 -56.293  1.00  0.00    -0.341 N 
HETATM   12  C   UNL     1     -41.879  55.646 -55.278  1.00  0.00     0.320 C 
HETATM   13  N   UNL     1     -40.718  54.947 -55.072  1.00  0.00    -0.309 N 
HETATM   14  O   UNL     1     -42.921  55.546 -54.640  1.00  0.00    -0.247 OA
HETATM   15  H   UNL     1     -39.905  55.251 -55.591  1.00  0.00     0.170 HD
HETATM   16  H   UNL     1     -41.030  56.344 -56.969  1.00  0.00     0.164 HD
BRANCH  13  17
HETATM   17  C   UNL     1     -40.490  53.909 -54.140  1.00  0.00     0.037 A 
HETATM   18  C   UNL     1     -40.280  52.575 -54.495  1.00  0.00     0.045 A 
HETATM   19  C   UNL     1     -40.061  51.589 -53.515  1.00  0.00     0.050 A 
HETATM   20  C   UNL     1     -40.059  51.961 -52.163  1.00  0.00     0.016 A 
HETATM   21  C   UNL     1     -40.260  53.291 -51.802  1.00  0.00     0.003 A 
HETATM   22  C   UNL     1     -40.472  54.259 -52.785  1.00  0.00     0.029 A 
BRANCH  19  23
HETATM   23  C   UNL     1     -39.866  50.144 -53.905  1.00  0.00     0.417 C 
HETATM   24  F   UNL     1     -38.782  49.946 -54.709  1.00  0.00    -0.166 F 
HETATM   25  F   UNL     1     -39.691  49.325 -52.834  1.00  0.00    -0.166 F 
HETATM   26  F   UNL     1     -40.932  49.648 -54.593  1.00  0.00    -0.166 F 
ENDBRANCH  19  23
ENDBRANCH  13  17
ENDBRANCH  10  11
ENDBRANCH   4  10
BRANCH   1  27
HETATM   27  C   UNL     1     -43.231  59.817 -59.953  1.00  0.00     0.045 A 
HETATM   28  N   UNL     1     -44.072  60.391 -59.077  1.00  0.00    -0.238 NA
HETATM   29  C   UNL     1     -43.804  61.655 -58.695  1.00  0.00     0.123 A 
HETATM   30  C   UNL     1     -44.769  62.334 -57.775  1.00  0.00     0.093 C 
HETATM   31  N   UNL     1     -42.715  62.339 -59.063  1.00  0.00    -0.233 NA
HETATM   32  C   UNL     1     -41.859  61.737 -59.914  1.00  0.00     0.077 A 
HETATM   33  C   UNL     1     -42.093  60.466 -60.403  1.00  0.00     0.060 A 
BRANCH  32  34
HETATM   34  C   UNL     1     -40.664  62.543 -60.227  1.00  0.00     0.033 A 
HETATM   35  S   UNL     1     -40.155  62.829 -61.847  1.00  0.00    -0.100 SA
HETATM   36  C   UNL     1     -38.798  63.737 -61.351  1.00  0.00     0.050 A 
HETATM   37  C   UNL     1     -38.718  63.833 -59.982  1.00  0.00     0.008 A 
HETATM   38  C   UNL     1     -39.789  63.151 -59.339  1.00  0.00     0.021 A 
ENDBRANCH  32  34
ENDBRANCH   1  27
TORSDOF 6
ENDMDL
MODEL 8
REMARK VINA RESULT:      -8.8      2.609      5.210
REMARK  6 active torsions:
REMARK  status: ('A' for Active; 'I' for Inactive)
REMARK    1  A    between atoms: C_4  and  C_5 
REMARK    2  A    between atoms: C_8  and  C_9 
REMARK    3  A    between atoms: C_9  and  N_10 
REMARK       I    between atoms: N_10  and  C_11 
REMARK       I    between atoms: C_11  and  N_12 
REMARK    4  A    between atoms: N_12  and  C_13 
REMARK    5  A    between atoms: C_15  and  C_16 
REMARK    6  A    between atoms: C_30  and  C_31 
ROOT
HETATM    1  C   UNL     1     -42.770  60.320 -55.359  1.00  0.00     0.068 C 
HETATM    2  C   UNL     1     -43.731  60.728 -56.519  1.00  0.00     0.001 C 
HETATM    3  C   UNL     1     -44.456  59.508 -57.135  1.00  0.00     0.040 C 
HETATM    4  C   UNL     1     -43.449  58.443 -57.599  1.00  0.00     0.206 C 
HETATM    5  N   UNL     1     -42.056  59.017 -57.347  1.00  0.00    -0.065 N 
HETATM    6  H   UNL     1     -41.375  58.288 -57.656  1.00  0.00     0.280 HD
HETATM    7  C   UNL     1     -41.768  59.277 -55.884  1.00  0.00     0.246 C 
HETATM    8  C   UNL     1     -42.849  61.323 -57.646  1.00  0.00     0.033 C 
HETATM    9  C   UNL     1     -41.850  60.275 -58.156  1.00  0.00     0.236 C 
ENDROOT
BRANCH   4  10
HETATM   10  C   UNL     1     -43.674  57.050 -56.947  1.00  0.00     0.157 C 
BRANCH  10  11
HETATM   11  N   UNL     1     -42.467  56.311 -56.568  1.00  0.00    -0.341 N 
HETATM   12  C   UNL     1     -42.384  55.498 -55.462  1.00  0.00     0.320 C 
HETATM   13  N   UNL     1     -41.195  54.817 -55.416  1.00  0.00    -0.309 N 
HETATM   14  O   UNL     1     -43.282  55.466 -54.628  1.00  0.00    -0.247 OA
HETATM   15  H   UNL     1     -40.502  55.064 -56.109  1.00  0.00     0.170 HD
HETATM   16  H   UNL     1     -41.888  56.019 -57.346  1.00  0.00     0.164 HD
BRANCH  13  17
HETATM   17  C   UNL     1     -40.777  53.877 -54.448  1.00  0.00     0.037 A 
HETATM   18  C   UNL     1     -40.551  52.526 -54.719  1.00  0.00     0.045 A 
HETATM   19  C   UNL     1     -40.137  51.641 -53.706  1.00  0.00     0.050 A 
HETATM   20  C   UNL     1     -39.954  52.132 -52.406  1.00  0.00     0.016 A 
HETATM   21  C   UNL     1     -40.168  53.480 -52.129  1.00  0.00     0.003 A 
HETATM   22  C   UNL     1     -40.575  54.347 -53.145  1.00  0.00     0.029 A 
BRANCH  19  23
HETATM   23  C   UNL     1     -39.926  50.176 -54.001  1.00  0.00     0.417 C 
HETATM   24  F   UNL     1     -40.919  49.633 -54.762  1.00  0.00    -0.166 F 
HETATM   25  F   UNL     1     -38.768  49.931 -54.671  1.00  0.00    -0.166 F 
HETATM   26  F   UNL     1     -39.876  49.425 -52.867  1.00  0.00    -0.166 F 
ENDBRANCH  19  23
ENDBRANCH  13  17
ENDBRANCH  10  11
ENDBRANCH   4  10
BRANCH   1  27
HETATM   27  C   UNL     1     -43.417  59.827 -54.080  1.00  0.00     0.045 A 
HETATM   28  N   UNL     1     -44.606  60.349 -53.731  1.00  0.00    -0.238 NA
HETATM   29  C   UNL     1     -45.184  59.881 -52.609  1.00  0.00     0.123 A 
HETATM   30  C   UNL     1     -46.473  60.501 -52.167  1.00  0.00     0.093 C 
HETATM   31  N   UNL     1     -44.696  58.877 -51.871  1.00  0.00    -0.233 NA
HETATM   32  C   UNL     1     -43.521  58.337 -52.252  1.00  0.00     0.077 A 
HETATM   33  C   UNL     1     -42.832  58.802 -53.357  1.00  0.00     0.060 A 
BRANCH  32  34
HETATM   34  C   UNL     1     -43.084  57.207 -51.413  1.00  0.00     0.033 A 
HETATM   35  S   UNL     1     -41.547  57.187 -50.637  1.00  0.00    -0.100 SA
HETATM   36  C   UNL     1     -41.812  55.643 -49.961  1.00  0.00     0.050 A 
HETATM   37  C   UNL     1     -43.043  55.136 -50.306  1.00  0.00     0.008 A 
HETATM   38  C   UNL     1     -43.771  56.034 -51.136  1.00  0.00     0.021 A 
ENDBRANCH  32  34
ENDBRANCH   1  27
TORSDOF 6
ENDMDL
MODEL 9
REMARK VINA RESULT:      -8.8      3.771      6.575
REMARK  6 active torsions:
REMARK  status: ('A' for Active; 'I' for Inactive)
REMARK    1  A    between atoms: C_4  and  C_5 
REMARK    2  A    between atoms: C_8  and  C_9 
REMARK    3  A    between atoms: C_9  and  N_10 
REMARK       I    between atoms: N_10  and  C_11 
REMARK       I    between atoms: C_11  and  N_12 
REMARK    4  A    between atoms: N_12  and  C_13 
REMARK    5  A    between atoms: C_15  and  C_16 
REMARK    6  A    between atoms: C_30  and  C_31 
ROOT
HETATM    1  C   UNL     1     -45.009  60.115 -59.155  1.00  0.00     0.068 C 
HETATM    2  C   UNL     1     -46.215  59.398 -58.474  1.00  0.00     0.001 C 
HETATM    3  C   UNL     1     -45.964  57.884 -58.282  1.00  0.00     0.040 C 
HETATM    4  C   UNL     1     -45.601  57.210 -59.615  1.00  0.00     0.206 C 
HETATM    5  N   UNL     1     -45.694  58.291 -60.691  1.00  0.00    -0.065 N 
HETATM    6  H   UNL     1     -45.439  57.832 -61.594  1.00  0.00     0.280 HD
HETATM    7  C   UNL     1     -44.707  59.422 -60.495  1.00  0.00     0.246 C 
HETATM    8  C   UNL     1     -47.418  59.518 -59.444  1.00  0.00     0.033 C 
HETATM    9  C   UNL     1     -47.101  58.829 -60.779  1.00  0.00     0.236 C 
ENDROOT
BRANCH   4  10
HETATM   10  C   UNL     1     -44.231  56.477 -59.588  1.00  0.00     0.157 C 
BRANCH  10  11
HETATM   11  N   UNL     1     -44.042  55.500 -58.514  1.00  0.00    -0.341 N 
HETATM   12  C   UNL     1     -43.167  55.674 -57.466  1.00  0.00     0.320 C 
HETATM   13  N   UNL     1     -43.287  54.680 -56.529  1.00  0.00    -0.309 N 
HETATM   14  O   UNL     1     -42.367  56.602 -57.455  1.00  0.00    -0.247 OA
HETATM   15  H   UNL     1     -43.898  53.909 -56.760  1.00  0.00     0.170 HD
HETATM   16  H   UNL     1     -44.867  54.959 -58.283  1.00  0.00     0.164 HD
BRANCH  13  17
HETATM   17  C   UNL     1     -42.576  54.550 -55.316  1.00  0.00     0.037 A 
HETATM   18  C   UNL     1     -43.181  54.519 -54.057  1.00  0.00     0.045 A 
HETATM   19  C   UNL     1     -42.413  54.390 -52.885  1.00  0.00     0.050 A 
HETATM   20  C   UNL     1     -41.018  54.294 -52.992  1.00  0.00     0.016 A 
HETATM   21  C   UNL     1     -40.408  54.314 -54.243  1.00  0.00     0.003 A 
HETATM   22  C   UNL     1     -41.183  54.440 -55.398  1.00  0.00     0.029 A 
BRANCH  19  23
HETATM   23  C   UNL     1     -43.072  54.389 -51.527  1.00  0.00     0.417 C 
HETATM   24  F   UNL     1     -43.598  55.601 -51.185  1.00  0.00    -0.166 F 
HETATM   25  F   UNL     1     -44.097  53.500 -51.436  1.00  0.00    -0.166 F 
HETATM   26  F   UNL     1     -42.200  54.069 -50.532  1.00  0.00    -0.166 F 
ENDBRANCH  19  23
ENDBRANCH  13  17
ENDBRANCH  10  11
ENDBRANCH   4  10
BRANCH   1  27
HETATM   27  C   UNL     1     -43.741  60.244 -58.335  1.00  0.00     0.045 A 
HETATM   28  N   UNL     1     -42.742  60.996 -58.827  1.00  0.00    -0.238 NA
HETATM   29  C   UNL     1     -41.633  61.127 -58.074  1.00  0.00     0.123 A 
HETATM   30  C   UNL     1     -40.484  61.901 -58.639  1.00  0.00     0.093 C 
HETATM   31  N   UNL     1     -41.497  60.630 -56.839  1.00  0.00    -0.233 NA
HETATM   32  C   UNL     1     -42.522  59.909 -56.341  1.00  0.00     0.077 A 
HETATM   33  C   UNL     1     -43.670  59.675 -57.074  1.00  0.00     0.060 A 
BRANCH  32  34
HETATM   34  C   UNL     1     -42.306  59.443 -54.959  1.00  0.00     0.033 A 
HETATM   35  S   UNL     1     -42.509  60.485 -53.603  1.00  0.00    -0.100 SA
HETATM   36  C   UNL     1     -42.068  59.266 -52.493  1.00  0.00     0.050 A 
HETATM   37  C   UNL     1     -41.771  58.081 -53.123  1.00  0.00     0.008 A 
HETATM   38  C   UNL     1     -41.910  58.183 -54.536  1.00  0.00     0.021 A 
ENDBRANCH  32  34
ENDBRANCH   1  27
TORSDOF 6
ENDMDL
MODEL 10
REMARK VINA RESULT:      -8.6      2.539      3.579
REMARK  6 active torsions:
REMARK  status: ('A' for Active; 'I' for Inactive)
REMARK    1  A    between atoms: C_4  and  C_5 
REMARK    2  A    between atoms: C_8  and  C_9 
REMARK    3  A    between atoms: C_9  and  N_10 
REMARK       I    between atoms: N_10  and  C_11 
REMARK       I    between atoms: C_11  and  N_12 
REMARK    4  A    between atoms: N_12  and  C_13 
REMARK    5  A    between atoms: C_15  and  C_16 
REMARK    6  A    between atoms: C_30  and  C_31 
ROOT
HETATM    1  C   UNL     1     -44.136  60.851 -56.012  1.00  0.00     0.068 C 
HETATM    2  C   UNL     1     -42.905  61.174 -55.109  1.00  0.00     0.001 C 
HETATM    3  C   UNL     1     -42.222  59.894 -54.571  1.00  0.00     0.040 C 
HETATM    4  C   UNL     1     -43.231  58.998 -53.834  1.00  0.00     0.206 C 
HETATM    5  N   UNL     1     -44.562  59.746 -53.832  1.00  0.00    -0.065 N 
HETATM    6  H   UNL     1     -45.247  59.131 -53.338  1.00  0.00     0.280 HD
HETATM    7  C   UNL     1     -45.123  59.979 -55.219  1.00  0.00     0.246 C 
HETATM    8  C   UNL     1     -43.443  61.932 -53.869  1.00  0.00     0.033 C 
HETATM    9  C   UNL     1     -44.432  61.054 -53.090  1.00  0.00     0.236 C 
ENDROOT
BRANCH   4  10
HETATM   10  C   UNL     1     -43.326  57.560 -54.417  1.00  0.00     0.157 C 
BRANCH  10  11
HETATM   11  N   UNL     1     -42.131  56.726 -54.278  1.00  0.00    -0.341 N 
HETATM   12  C   UNL     1     -42.077  55.589 -53.504  1.00  0.00     0.320 C 
HETATM   13  N   UNL     1     -40.890  54.921 -53.660  1.00  0.00    -0.309 N 
HETATM   14  O   UNL     1     -42.996  55.290 -52.751  1.00  0.00    -0.247 OA
HETATM   15  H   UNL     1     -40.179  55.378 -54.213  1.00  0.00     0.170 HD
HETATM   16  H   UNL     1     -41.531  56.704 -55.094  1.00  0.00     0.164 HD
BRANCH  13  17
HETATM   17  C   UNL     1     -40.499  53.708 -53.051  1.00  0.00     0.037 A 
HETATM   18  C   UNL     1     -40.309  52.512 -53.746  1.00  0.00     0.045 A 
HETATM   19  C   UNL     1     -39.921  51.336 -53.078  1.00  0.00     0.050 A 
HETATM   20  C   UNL     1     -39.725  51.375 -51.690  1.00  0.00     0.016 A 
HETATM   21  C   UNL     1     -39.904  52.566 -50.990  1.00  0.00     0.003 A 
HETATM   22  C   UNL     1     -40.286  53.725 -51.667  1.00  0.00     0.029 A 
BRANCH  19  23
HETATM   23  C   UNL     1     -39.749  50.040 -53.832  1.00  0.00     0.417 C 
HETATM   24  F   UNL     1     -40.870  49.660 -54.509  1.00  0.00    -0.166 F 
HETATM   25  F   UNL     1     -38.754  50.094 -54.759  1.00  0.00    -0.166 F 
HETATM   26  F   UNL     1     -39.444  49.001 -53.007  1.00  0.00    -0.166 F 
ENDBRANCH  19  23
ENDBRANCH  13  17
ENDBRANCH  10  11
ENDBRANCH   4  10
BRANCH   1  27
HETATM   27  C   UNL     1     -43.844  60.220 -57.360  1.00  0.00     0.045 A 
HETATM   28  N   UNL     1     -42.942  60.817 -58.156  1.00  0.00    -0.238 NA
HETATM   29  C   UNL     1     -42.669  60.229 -59.337  1.00  0.00     0.123 A 
HETATM   30  C   UNL     1     -41.721  60.919 -60.267  1.00  0.00     0.093 C 
HETATM   31  N   UNL     1     -43.173  59.053 -59.728  1.00  0.00    -0.233 NA
HETATM   32  C   UNL     1     -44.050  58.445 -58.902  1.00  0.00     0.077 A 
HETATM   33  C   UNL     1     -44.430  59.012 -57.701  1.00  0.00     0.060 A 
BRANCH  32  34
HETATM   34  C   UNL     1     -44.515  57.133 -59.389  1.00  0.00     0.033 A 
HETATM   35  S   UNL     1     -43.547  55.715 -59.256  1.00  0.00    -0.100 SA
HETATM   36  C   UNL     1     -44.718  54.740 -60.024  1.00  0.00     0.050 A 
HETATM   37  C   UNL     1     -45.833  55.462 -60.381  1.00  0.00     0.008 A 
HETATM   38  C   UNL     1     -45.716  56.832 -60.014  1.00  0.00     0.021 A 
ENDBRANCH  32  34
ENDBRANCH   1  27
TORSDOF 6
ENDMDL
