MODEL 1
REMARK VINA RESULT:      -8.4      0.000      0.000
REMARK  8 active torsions:
REMARK  status: ('A' for Active; 'I' for Inactive)
REMARK    1  A    between atoms: C_2  and  C_3 
REMARK    2  A    between atoms: C_5  and  C_6 
REMARK       I    between atoms: C_6  and  N_7 
REMARK    3  A    between atoms: N_7  and  C_8 
REMARK    4  A    between atoms: C_8  and  C_9 
REMARK    5  A    between atoms: C_9  and  N_10 
REMARK    6  A    between atoms: C_9  and  C_20 
REMARK       I    between atoms: N_10  and  C_11 
REMARK    7  A    between atoms: C_11  and  C_12 
REMARK    8  A    between atoms: C_14  and  C_15 
ROOT
HETATM    1  C   UNL     1     -41.376  55.536 -53.854  1.00  0.00     0.136 C 
ENDROOT
BRANCH   1   2
HETATM    2  C   UNL     1     -42.777  55.349 -54.490  1.00  0.00     0.153 C 
BRANCH   2   3
HETATM    3  N   UNL     1     -42.791  55.559 -55.926  1.00  0.00    -0.353 N 
HETATM    4  C   UNL     1     -43.258  56.720 -56.500  1.00  0.00     0.275 C 
HETATM    5  O   UNL     1     -43.672  57.660 -55.825  1.00  0.00    -0.265 OA
HETATM    6  H   UNL     1     -42.553  54.786 -56.538  1.00  0.00     0.162 HD
BRANCH   4   7
HETATM    7  C   UNL     1     -43.216  56.725 -57.946  1.00  0.00     0.143 A 
HETATM    8  O   UNL     1     -44.136  55.995 -58.653  1.00  0.00    -0.310 OA
HETATM    9  C   UNL     1     -43.865  56.176 -59.977  1.00  0.00     0.053 A 
HETATM   10  C   UNL     1     -42.778  57.010 -60.130  1.00  0.00     0.036 A 
HETATM   11  C   UNL     1     -42.364  57.367 -58.825  1.00  0.00     0.045 A 
BRANCH   9  12
HETATM   12  C   UNL     1     -44.753  55.473 -60.935  1.00  0.00     0.060 C 
HETATM   13  C   UNL     1     -46.210  55.848 -60.727  1.00  0.00     0.012 C 
ENDBRANCH   9  12
ENDBRANCH   4   7
ENDBRANCH   2   3
ENDBRANCH   1   2
BRANCH   1  14
HETATM   14  N   UNL     1     -41.265  56.594 -52.852  1.00  0.00    -0.345 N 
HETATM   15  C   UNL     1     -41.108  57.936 -53.107  1.00  0.00     0.276 C 
HETATM   16  O   UNL     1     -40.904  58.389 -54.228  1.00  0.00    -0.265 OA
HETATM   17  H   UNL     1     -41.513  56.355 -51.900  1.00  0.00     0.163 HD
BRANCH  15  18
HETATM   18  C   UNL     1     -41.199  58.771 -51.925  1.00  0.00     0.143 A 
HETATM   19  O   UNL     1     -42.083  59.820 -51.902  1.00  0.00    -0.310 OA
HETATM   20  C   UNL     1     -41.958  60.425 -50.686  1.00  0.00     0.053 A 
HETATM   21  C   UNL     1     -41.008  59.778 -49.927  1.00  0.00     0.036 A 
HETATM   22  C   UNL     1     -40.516  58.718 -50.725  1.00  0.00     0.045 A 
BRANCH  20  23
HETATM   23  C   UNL     1     -42.832  61.599 -50.435  1.00  0.00     0.060 C 
HETATM   24  C   UNL     1     -44.093  61.207 -49.682  1.00  0.00     0.012 C 
ENDBRANCH  20  23
ENDBRANCH  15  18
ENDBRANCH   1  14
BRANCH   1  25
HETATM   25  C   UNL     1     -40.814  54.226 -53.325  1.00  0.00    -0.031 A 
HETATM   26  C   UNL     1     -40.683  53.123 -54.188  1.00  0.00     0.049 A 
HETATM   27  C   UNL     1     -40.193  51.906 -53.716  1.00  0.00     0.102 A 
HETATM   28  C   UNL     1     -39.849  51.763 -52.370  1.00  0.00     0.102 A 
HETATM   29  O   UNL     1     -40.093  50.888 -54.631  1.00  0.00    -0.346 OA
HETATM   30  O   UNL     1     -39.406  50.584 -51.828  1.00  0.00    -0.346 OA
HETATM   31  C   UNL     1     -39.948  52.851 -51.509  1.00  0.00     0.040 A 
HETATM   32  C   UNL     1     -39.693  49.478 -52.692  1.00  0.00     0.202 C 
HETATM   33  C   UNL     1     -39.303  49.806 -54.125  1.00  0.00     0.202 C 
HETATM   34  C   UNL     1     -40.429  54.075 -51.982  1.00  0.00     0.012 A 
ENDBRANCH   1  25
TORSDOF 8
ENDMDL
MODEL 2
REMARK VINA RESULT:      -8.3      1.473      6.804
REMARK  8 active torsions:
REMARK  status: ('A' for Active; 'I' for Inactive)
REMARK    1  A    between atoms: C_2  and  C_3 
REMARK    2  A    between atoms: C_5  and  C_6 
REMARK       I    between atoms: C_6  and  N_7 
REMARK    3  A    between atoms: N_7  and  C_8 
REMARK    4  A    between atoms: C_8  and  C_9 
REMARK    5  A    between atoms: C_9  and  N_10 
REMARK    6  A    between atoms: C_9  and  C_20 
REMARK       I    between atoms: N_10  and  C_11 
REMARK    7  A    between atoms: C_11  and  C_12 
REMARK    8  A    between atoms: C_14  and  C_15 
ROOT
HETATM    1  C   UNL     1     -41.841  55.544 -52.544  1.00  0.00     0.136 C 
ENDROOT
BRANCH   1   2
HETATM    2  C   UNL     1     -41.274  56.636 -51.602  1.00  0.00     0.153 C 
BRANCH   2   3
HETATM    3  N   UNL     1     -42.289  57.539 -51.089  1.00  0.00    -0.353 N 
HETATM    4  C   UNL     1     -42.758  58.613 -51.811  1.00  0.00     0.275 C 
HETATM    5  O   UNL     1     -42.359  58.859 -52.947  1.00  0.00    -0.265 OA
HETATM    6  H   UNL     1     -42.588  57.445 -50.125  1.00  0.00     0.162 HD
BRANCH   4   7
HETATM    7  C   UNL     1     -43.747  59.408 -51.117  1.00  0.00     0.143 A 
HETATM    8  O   UNL     1     -43.376  60.595 -50.538  1.00  0.00    -0.310 OA
HETATM    9  C   UNL     1     -44.488  61.127 -49.956  1.00  0.00     0.053 A 
HETATM   10  C   UNL     1     -45.570  60.294 -50.151  1.00  0.00     0.036 A 
HETATM   11  C   UNL     1     -45.095  59.193 -50.901  1.00  0.00     0.045 A 
BRANCH   9  12
HETATM   12  C   UNL     1     -44.317  62.430 -49.269  1.00  0.00     0.060 C 
HETATM   13  C   UNL     1     -45.041  62.458 -47.934  1.00  0.00     0.012 C 
ENDBRANCH   9  12
ENDBRANCH   4   7
ENDBRANCH   2   3
ENDBRANCH   1   2
BRANCH   1  14
HETATM   14  N   UNL     1     -41.932  55.903 -53.957  1.00  0.00    -0.345 N 
HETATM   15  C   UNL     1     -43.043  55.768 -54.757  1.00  0.00     0.276 C 
HETATM   16  O   UNL     1     -44.065  55.192 -54.397  1.00  0.00    -0.265 OA
HETATM   17  H   UNL     1     -41.187  56.474 -54.337  1.00  0.00     0.163 HD
BRANCH  15  18
HETATM   18  C   UNL     1     -42.897  56.365 -56.070  1.00  0.00     0.143 A 
HETATM   19  O   UNL     1     -43.099  55.598 -57.190  1.00  0.00    -0.310 OA
HETATM   20  C   UNL     1     -42.897  56.404 -58.271  1.00  0.00     0.053 A 
HETATM   21  C   UNL     1     -42.570  57.678 -57.861  1.00  0.00     0.036 A 
HETATM   22  C   UNL     1     -42.566  57.652 -56.447  1.00  0.00     0.045 A 
BRANCH  20  23
HETATM   23  C   UNL     1     -43.066  55.779 -59.607  1.00  0.00     0.060 C 
HETATM   24  C   UNL     1     -44.263  54.843 -59.640  1.00  0.00     0.012 C 
ENDBRANCH  20  23
ENDBRANCH  15  18
ENDBRANCH   1  14
BRANCH   1  25
HETATM   25  C   UNL     1     -41.124  54.215 -52.367  1.00  0.00    -0.031 A 
HETATM   26  C   UNL     1     -41.072  53.301 -53.434  1.00  0.00     0.049 A 
HETATM   27  C   UNL     1     -40.440  52.067 -53.283  1.00  0.00     0.102 A 
HETATM   28  C   UNL     1     -39.871  51.717 -52.057  1.00  0.00     0.102 A 
HETATM   29  O   UNL     1     -40.432  51.243 -54.380  1.00  0.00    -0.346 OA
HETATM   30  O   UNL     1     -39.275  50.504 -51.824  1.00  0.00    -0.346 OA
HETATM   31  C   UNL     1     -39.890  52.620 -50.998  1.00  0.00     0.040 A 
HETATM   32  C   UNL     1     -39.635  49.550 -52.830  1.00  0.00     0.202 C 
HETATM   33  C   UNL     1     -39.507  50.162 -54.215  1.00  0.00     0.202 C 
HETATM   34  C   UNL     1     -40.514  53.861 -51.151  1.00  0.00     0.012 A 
ENDBRANCH   1  25
TORSDOF 8
ENDMDL
MODEL 3
REMARK VINA RESULT:      -8.3      1.694      2.486
REMARK  8 active torsions:
REMARK  status: ('A' for Active; 'I' for Inactive)
REMARK    1  A    between atoms: C_2  and  C_3 
REMARK    2  A    between atoms: C_5  and  C_6 
REMARK       I    between atoms: C_6  and  N_7 
REMARK    3  A    between atoms: N_7  and  C_8 
REMARK    4  A    between atoms: C_8  and  C_9 
REMARK    5  A    between atoms: C_9  and  N_10 
REMARK    6  A    between atoms: C_9  and  C_20 
REMARK       I    between atoms: N_10  and  C_11 
REMARK    7  A    between atoms: C_11  and  C_12 
REMARK    8  A    between atoms: C_14  and  C_15 
ROOT
HETATM    1  C   UNL     1     -41.660  55.232 -54.397  1.00  0.00     0.136 C 
ENDROOT
BRANCH   1   2
HETATM    2  C   UNL     1     -42.399  54.818 -55.695  1.00  0.00     0.153 C 
BRANCH   2   3
HETATM    3  N   UNL     1     -42.177  55.730 -56.802  1.00  0.00    -0.353 N 
HETATM    4  C   UNL     1     -42.923  56.873 -56.980  1.00  0.00     0.275 C 
HETATM    5  O   UNL     1     -43.811  57.202 -56.197  1.00  0.00    -0.265 OA
HETATM    6  H   UNL     1     -41.526  55.466 -57.533  1.00  0.00     0.162 HD
BRANCH   4   7
HETATM    7  C   UNL     1     -42.568  57.635 -58.158  1.00  0.00     0.143 A 
HETATM    8  O   UNL     1     -42.463  59.000 -58.075  1.00  0.00    -0.310 OA
HETATM    9  C   UNL     1     -42.125  59.456 -59.314  1.00  0.00     0.053 A 
HETATM   10  C   UNL     1     -42.017  58.401 -60.196  1.00  0.00     0.036 A 
HETATM   11  C   UNL     1     -42.297  57.231 -59.451  1.00  0.00     0.045 A 
BRANCH   9  12
HETATM   12  C   UNL     1     -41.951  60.922 -59.455  1.00  0.00     0.060 C 
HETATM   13  C   UNL     1     -41.004  61.477 -58.404  1.00  0.00     0.012 C 
ENDBRANCH   9  12
ENDBRANCH   4   7
ENDBRANCH   2   3
ENDBRANCH   1   2
BRANCH   1  14
HETATM   14  N   UNL     1     -42.430  56.038 -53.453  1.00  0.00    -0.345 N 
HETATM   15  C   UNL     1     -42.156  57.334 -53.083  1.00  0.00     0.276 C 
HETATM   16  O   UNL     1     -41.133  57.926 -53.411  1.00  0.00    -0.265 OA
HETATM   17  H   UNL     1     -43.345  55.693 -53.191  1.00  0.00     0.163 HD
BRANCH  15  18
HETATM   18  C   UNL     1     -43.186  57.939 -52.261  1.00  0.00     0.143 A 
HETATM   19  O   UNL     1     -42.978  59.183 -51.719  1.00  0.00    -0.310 OA
HETATM   20  C   UNL     1     -44.094  59.501 -51.003  1.00  0.00     0.053 A 
HETATM   21  C   UNL     1     -45.017  58.481 -51.080  1.00  0.00     0.036 A 
HETATM   22  C   UNL     1     -44.431  57.475 -51.884  1.00  0.00     0.045 A 
BRANCH  20  23
HETATM   23  C   UNL     1     -44.093  60.821 -50.322  1.00  0.00     0.060 C 
HETATM   24  C   UNL     1     -42.848  61.625 -50.662  1.00  0.00     0.012 C 
ENDBRANCH  20  23
ENDBRANCH  15  18
ENDBRANCH   1  14
BRANCH   1  25
HETATM   25  C   UNL     1     -41.024  54.040 -53.702  1.00  0.00    -0.031 A 
HETATM   26  C   UNL     1     -40.816  52.845 -54.414  1.00  0.00     0.049 A 
HETATM   27  C   UNL     1     -40.257  51.732 -53.787  1.00  0.00     0.102 A 
HETATM   28  C   UNL     1     -39.918  51.787 -52.433  1.00  0.00     0.102 A 
HETATM   29  O   UNL     1     -40.085  50.612 -54.561  1.00  0.00    -0.346 OA
HETATM   30  O   UNL     1     -39.408  50.718 -51.741  1.00  0.00    -0.346 OA
HETATM   31  C   UNL     1     -40.092  52.969 -51.720  1.00  0.00     0.040 A 
HETATM   32  C   UNL     1     -39.617  49.494 -52.455  1.00  0.00     0.202 C 
HETATM   33  C   UNL     1     -39.234  49.656 -53.917  1.00  0.00     0.202 C 
HETATM   34  C   UNL     1     -40.643  54.089 -52.350  1.00  0.00     0.012 A 
ENDBRANCH   1  25
TORSDOF 8
ENDMDL
MODEL 4
REMARK VINA RESULT:      -8.0      2.048      6.986
REMARK  8 active torsions:
REMARK  status: ('A' for Active; 'I' for Inactive)
REMARK    1  A    between atoms: C_2  and  C_3 
REMARK    2  A    between atoms: C_5  and  C_6 
REMARK       I    between atoms: C_6  and  N_7 
REMARK    3  A    between atoms: N_7  and  C_8 
REMARK    4  A    between atoms: C_8  and  C_9 
REMARK    5  A    between atoms: C_9  and  N_10 
REMARK    6  A    between atoms: C_9  and  C_20 
REMARK       I    between atoms: N_10  and  C_11 
REMARK    7  A    between atoms: C_11  and  C_12 
REMARK    8  A    between atoms: C_14  and  C_15 
ROOT
HETATM    1  C   UNL     1     -44.487  57.321 -53.564  1.00  0.00     0.136 C 
ENDROOT
BRANCH   1   2
HETATM    2  C   UNL     1     -45.223  57.921 -54.789  1.00  0.00     0.153 C 
BRANCH   2   3
HETATM    3  N   UNL     1     -44.734  57.418 -56.060  1.00  0.00    -0.353 N 
HETATM    4  C   UNL     1     -43.610  57.924 -56.673  1.00  0.00     0.275 C 
HETATM    5  O   UNL     1     -42.939  58.821 -56.168  1.00  0.00    -0.265 OA
HETATM    6  H   UNL     1     -45.296  56.747 -56.571  1.00  0.00     0.162 HD
BRANCH   4   7
HETATM    7  C   UNL     1     -43.302  57.310 -57.947  1.00  0.00     0.143 A 
HETATM    8  O   UNL     1     -44.035  56.231 -58.373  1.00  0.00    -0.310 OA
HETATM    9  C   UNL     1     -43.535  55.856 -59.584  1.00  0.00     0.053 A 
HETATM   10  C   UNL     1     -42.486  56.677 -59.940  1.00  0.00     0.036 A 
HETATM   11  C   UNL     1     -42.340  57.614 -58.891  1.00  0.00     0.045 A 
BRANCH   9  12
HETATM   12  C   UNL     1     -44.190  54.698 -60.240  1.00  0.00     0.060 C 
HETATM   13  C   UNL     1     -45.188  55.144 -61.295  1.00  0.00     0.012 C 
ENDBRANCH   9  12
ENDBRANCH   4   7
ENDBRANCH   2   3
ENDBRANCH   1   2
BRANCH   1  14
HETATM   14  N   UNL     1     -43.306  56.513 -53.861  1.00  0.00    -0.345 N 
HETATM   15  C   UNL     1     -42.895  55.396 -53.172  1.00  0.00     0.276 C 
HETATM   16  O   UNL     1     -43.413  55.024 -52.125  1.00  0.00    -0.265 OA
HETATM   17  H   UNL     1     -42.856  56.665 -54.756  1.00  0.00     0.163 HD
BRANCH  15  18
HETATM   18  C   UNL     1     -41.787  54.699 -53.794  1.00  0.00     0.143 A 
HETATM   19  O   UNL     1     -41.436  53.449 -53.349  1.00  0.00    -0.310 OA
HETATM   20  C   UNL     1     -40.376  53.037 -54.101  1.00  0.00     0.053 A 
HETATM   21  C   UNL     1     -40.042  54.003 -55.025  1.00  0.00     0.036 A 
HETATM   22  C   UNL     1     -40.946  55.073 -54.824  1.00  0.00     0.045 A 
BRANCH  20  23
HETATM   23  C   UNL     1     -39.824  51.693 -53.792  1.00  0.00     0.060 C 
HETATM   24  C   UNL     1     -39.562  51.524 -52.304  1.00  0.00     0.012 C 
ENDBRANCH  20  23
ENDBRANCH  15  18
ENDBRANCH   1  14
BRANCH   1  25
HETATM   25  C   UNL     1     -44.174  58.378 -52.518  1.00  0.00    -0.031 A 
HETATM   26  C   UNL     1     -45.169  58.776 -51.607  1.00  0.00     0.049 A 
HETATM   27  C   UNL     1     -44.908  59.761 -50.656  1.00  0.00     0.102 A 
HETATM   28  C   UNL     1     -43.658  60.382 -50.613  1.00  0.00     0.102 A 
HETATM   29  O   UNL     1     -45.936  60.081 -49.804  1.00  0.00    -0.346 OA
HETATM   30  O   UNL     1     -43.347  61.389 -49.737  1.00  0.00    -0.346 OA
HETATM   31  C   UNL     1     -42.653  59.981 -51.490  1.00  0.00     0.040 A 
HETATM   32  C   UNL     1     -44.530  61.955 -49.160  1.00  0.00     0.202 C 
HETATM   33  C   UNL     1     -45.473  60.858 -48.694  1.00  0.00     0.202 C 
HETATM   34  C   UNL     1     -42.910  58.986 -52.438  1.00  0.00     0.012 A 
ENDBRANCH   1  25
TORSDOF 8
ENDMDL
MODEL 5
REMARK VINA RESULT:      -8.0      1.737      7.036
REMARK  8 active torsions:
REMARK  status: ('A' for Active; 'I' for Inactive)
REMARK    1  A    between atoms: C_2  and  C_3 
REMARK    2  A    between atoms: C_5  and  C_6 
REMARK       I    between atoms: C_6  and  N_7 
REMARK    3  A    between atoms: N_7  and  C_8 
REMARK    4  A    between atoms: C_8  and  C_9 
REMARK    5  A    between atoms: C_9  and  N_10 
REMARK    6  A    between atoms: C_9  and  C_20 
REMARK       I    between atoms: N_10  and  C_11 
REMARK    7  A    between atoms: C_11  and  C_12 
REMARK    8  A    between atoms: C_14  and  C_15 
ROOT
HETATM    1  C   UNL     1     -43.153  57.044 -54.037  1.00  0.00     0.136 C 
ENDROOT
BRANCH   1   2
HETATM    2  C   UNL     1     -42.751  57.639 -55.410  1.00  0.00     0.153 C 
BRANCH   2   3
HETATM    3  N   UNL     1     -43.393  56.982 -56.534  1.00  0.00    -0.353 N 
HETATM    4  C   UNL     1     -43.004  57.194 -57.837  1.00  0.00     0.275 C 
HETATM    5  O   UNL     1     -42.070  57.939 -58.126  1.00  0.00    -0.265 OA
HETATM    6  H   UNL     1     -44.229  56.432 -56.369  1.00  0.00     0.162 HD
BRANCH   4   7
HETATM    7  C   UNL     1     -43.786  56.470 -58.815  1.00  0.00     0.143 A 
HETATM    8  O   UNL     1     -45.073  56.863 -59.079  1.00  0.00    -0.310 OA
HETATM    9  C   UNL     1     -45.570  56.015 -60.024  1.00  0.00     0.053 A 
HETATM   10  C   UNL     1     -44.619  55.077 -60.368  1.00  0.00     0.036 A 
HETATM   11  C   UNL     1     -43.471  55.373 -59.595  1.00  0.00     0.045 A 
BRANCH   9  12
HETATM   12  C   UNL     1     -46.963  56.264 -60.469  1.00  0.00     0.060 C 
HETATM   13  C   UNL     1     -47.194  57.729 -60.796  1.00  0.00     0.012 C 
ENDBRANCH   9  12
ENDBRANCH   4   7
ENDBRANCH   2   3
ENDBRANCH   1   2
BRANCH   1  14
HETATM   14  N   UNL     1     -42.429  55.845 -53.622  1.00  0.00    -0.345 N 
HETATM   15  C   UNL     1     -42.575  54.586 -54.155  1.00  0.00     0.276 C 
HETATM   16  O   UNL     1     -43.448  54.296 -54.967  1.00  0.00    -0.265 OA
HETATM   17  H   UNL     1     -41.618  55.978 -53.031  1.00  0.00     0.163 HD
BRANCH  15  18
HETATM   18  C   UNL     1     -41.605  53.626 -53.666  1.00  0.00     0.143 A 
HETATM   19  O   UNL     1     -41.338  52.497 -54.399  1.00  0.00    -0.310 OA
HETATM   20  C   UNL     1     -40.402  51.783 -53.713  1.00  0.00     0.053 A 
HETATM   21  C   UNL     1     -40.061  52.438 -52.549  1.00  0.00     0.036 A 
HETATM   22  C   UNL     1     -40.838  53.620 -52.517  1.00  0.00     0.045 A 
BRANCH  20  23
HETATM   23  C   UNL     1     -39.955  50.507 -54.328  1.00  0.00     0.060 C 
HETATM   24  C   UNL     1     -39.559  49.486 -53.273  1.00  0.00     0.012 C 
ENDBRANCH  20  23
ENDBRANCH  15  18
ENDBRANCH   1  14
BRANCH   1  25
HETATM   25  C   UNL     1     -43.139  58.095 -52.939  1.00  0.00    -0.031 A 
HETATM   26  C   UNL     1     -44.341  58.464 -52.309  1.00  0.00     0.049 A 
HETATM   27  C   UNL     1     -44.353  59.444 -51.317  1.00  0.00     0.102 A 
HETATM   28  C   UNL     1     -43.167  60.087 -50.954  1.00  0.00     0.102 A 
HETATM   29  O   UNL     1     -45.569  59.734 -50.754  1.00  0.00    -0.346 OA
HETATM   30  O   UNL     1     -43.111  61.090 -50.021  1.00  0.00    -0.346 OA
HETATM   31  C   UNL     1     -41.965  59.715 -51.547  1.00  0.00     0.040 A 
HETATM   32  C   UNL     1     -44.413  61.627 -49.761  1.00  0.00     0.202 C 
HETATM   33  C   UNL     1     -45.421  60.507 -49.558  1.00  0.00     0.202 C 
HETATM   34  C   UNL     1     -41.950  58.726 -52.535  1.00  0.00     0.012 A 
ENDBRANCH   1  25
TORSDOF 8
ENDMDL
MODEL 6
REMARK VINA RESULT:      -8.0      2.609      8.868
REMARK  8 active torsions:
REMARK  status: ('A' for Active; 'I' for Inactive)
REMARK    1  A    between atoms: C_2  and  C_3 
REMARK    2  A    between atoms: C_5  and  C_6 
REMARK       I    between atoms: C_6  and  N_7 
REMARK    3  A    between atoms: N_7  and  C_8 
REMARK    4  A    between atoms: C_8  and  C_9 
REMARK    5  A    between atoms: C_9  and  N_10 
REMARK    6  A    between atoms: C_9  and  C_20 
REMARK       I    between atoms: N_10  and  C_11 
REMARK    7  A    between atoms: C_11  and  C_12 
REMARK    8  A    between atoms: C_14  and  C_15 
ROOT
HETATM    1  C   UNL     1     -43.250  57.185 -52.512  1.00  0.00     0.136 C 
ENDROOT
BRANCH   1   2
HETATM    2  C   UNL     1     -44.408  57.198 -51.482  1.00  0.00     0.153 C 
BRANCH   2   3
HETATM    3  N   UNL     1     -44.396  58.363 -50.616  1.00  0.00    -0.353 N 
HETATM    4  C   UNL     1     -45.518  59.125 -50.383  1.00  0.00     0.275 C 
HETATM    5  O   UNL     1     -46.608  58.850 -50.881  1.00  0.00    -0.265 OA
HETATM    6  H   UNL     1     -43.509  58.696 -50.253  1.00  0.00     0.162 HD
BRANCH   4   7
HETATM    7  C   UNL     1     -45.295  60.260 -49.514  1.00  0.00     0.143 A 
HETATM    8  O   UNL     1     -45.790  60.240 -48.235  1.00  0.00    -0.310 OA
HETATM    9  C   UNL     1     -45.442  61.421 -47.649  1.00  0.00     0.053 A 
HETATM   10  C   UNL     1     -44.734  62.202 -48.536  1.00  0.00     0.036 A 
HETATM   11  C   UNL     1     -44.635  61.453 -49.733  1.00  0.00     0.045 A 
BRANCH   9  12
HETATM   12  C   UNL     1     -45.875  61.614 -46.243  1.00  0.00     0.060 C 
HETATM   13  C   UNL     1     -44.736  61.369 -45.268  1.00  0.00     0.012 C 
ENDBRANCH   9  12
ENDBRANCH   4   7
ENDBRANCH   2   3
ENDBRANCH   1   2
BRANCH   1  14
HETATM   14  N   UNL     1     -42.391  56.003 -52.492  1.00  0.00    -0.345 N 
HETATM   15  C   UNL     1     -41.427  55.719 -51.554  1.00  0.00     0.276 C 
HETATM   16  O   UNL     1     -41.081  56.511 -50.683  1.00  0.00    -0.265 OA
HETATM   17  H   UNL     1     -42.647  55.236 -53.102  1.00  0.00     0.163 HD
BRANCH  15  18
HETATM   18  C   UNL     1     -40.849  54.397 -51.689  1.00  0.00     0.143 A 
HETATM   19  O   UNL     1     -40.829  53.787 -52.919  1.00  0.00    -0.310 OA
HETATM   20  C   UNL     1     -40.236  52.570 -52.755  1.00  0.00     0.053 A 
HETATM   21  C   UNL     1     -39.873  52.390 -51.438  1.00  0.00     0.036 A 
HETATM   22  C   UNL     1     -40.271  53.562 -50.752  1.00  0.00     0.045 A 
BRANCH  20  23
HETATM   23  C   UNL     1     -40.103  51.726 -53.969  1.00  0.00     0.060 C 
HETATM   24  C   UNL     1     -39.681  50.307 -53.622  1.00  0.00     0.012 C 
ENDBRANCH  20  23
ENDBRANCH  15  18
ENDBRANCH   1  14
BRANCH   1  25
HETATM   25  C   UNL     1     -43.742  57.476 -53.921  1.00  0.00    -0.031 A 
HETATM   26  C   UNL     1     -43.188  56.782 -55.011  1.00  0.00     0.049 A 
HETATM   27  C   UNL     1     -43.608  57.052 -56.313  1.00  0.00     0.102 A 
HETATM   28  C   UNL     1     -44.571  58.036 -56.549  1.00  0.00     0.102 A 
HETATM   29  O   UNL     1     -43.018  56.321 -57.313  1.00  0.00    -0.346 OA
HETATM   30  O   UNL     1     -44.996  58.387 -57.805  1.00  0.00    -0.346 OA
HETATM   31  C   UNL     1     -45.148  58.714 -55.479  1.00  0.00     0.040 A 
HETATM   32  C   UNL     1     -44.094  57.907 -58.808  1.00  0.00     0.202 C 
HETATM   33  C   UNL     1     -43.732  56.453 -58.548  1.00  0.00     0.202 C 
HETATM   34  C   UNL     1     -44.735  58.437 -54.173  1.00  0.00     0.012 A 
ENDBRANCH   1  25
TORSDOF 8
ENDMDL
MODEL 7
REMARK VINA RESULT:      -7.9      1.684      2.564
REMARK  8 active torsions:
REMARK  status: ('A' for Active; 'I' for Inactive)
REMARK    1  A    between atoms: C_2  and  C_3 
REMARK    2  A    between atoms: C_5  and  C_6 
REMARK       I    between atoms: C_6  and  N_7 
REMARK    3  A    between atoms: N_7  and  C_8 
REMARK    4  A    between atoms: C_8  and  C_9 
REMARK    5  A    between atoms: C_9  and  N_10 
REMARK    6  A    between atoms: C_9  and  C_20 
REMARK       I    between atoms: N_10  and  C_11 
REMARK    7  A    between atoms: C_11  and  C_12 
REMARK    8  A    between atoms: C_14  and  C_15 
ROOT
HETATM    1  C   UNL     1     -41.293  56.423 -54.484  1.00  0.00     0.136 C 
ENDROOT
BRANCH   1   2
HETATM    2  C   UNL     1     -42.582  56.454 -55.344  1.00  0.00     0.153 C 
BRANCH   2   3
HETATM    3  N   UNL     1     -42.450  57.246 -56.553  1.00  0.00    -0.353 N 
HETATM    4  C   UNL     1     -42.813  56.771 -57.793  1.00  0.00     0.275 C 
HETATM    5  O   UNL     1     -43.293  55.651 -57.947  1.00  0.00    -0.265 OA
HETATM    6  H   UNL     1     -41.973  58.140 -56.505  1.00  0.00     0.162 HD
BRANCH   4   7
HETATM    7  C   UNL     1     -42.578  57.701 -58.877  1.00  0.00     0.143 A 
HETATM    8  O   UNL     1     -43.221  58.912 -58.880  1.00  0.00    -0.310 OA
HETATM    9  C   UNL     1     -42.824  59.577 -60.003  1.00  0.00     0.053 A 
HETATM   10  C   UNL     1     -41.938  58.805 -60.724  1.00  0.00     0.036 A 
HETATM   11  C   UNL     1     -41.775  57.602 -59.997  1.00  0.00     0.045 A 
BRANCH   9  12
HETATM   12  C   UNL     1     -43.398  60.929 -60.209  1.00  0.00     0.060 C 
HETATM   13  C   UNL     1     -42.337  62.010 -60.102  1.00  0.00     0.012 C 
ENDBRANCH   9  12
ENDBRANCH   4   7
ENDBRANCH   2   3
ENDBRANCH   1   2
BRANCH   1  14
HETATM   14  N   UNL     1     -41.260  57.343 -53.349  1.00  0.00    -0.345 N 
HETATM   15  C   UNL     1     -41.277  58.716 -53.419  1.00  0.00     0.276 C 
HETATM   16  O   UNL     1     -41.184  59.337 -54.473  1.00  0.00    -0.265 OA
HETATM   17  H   UNL     1     -41.431  56.950 -52.432  1.00  0.00     0.163 HD
BRANCH  15  18
HETATM   18  C   UNL     1     -41.408  59.368 -52.131  1.00  0.00     0.143 A 
HETATM   19  O   UNL     1     -42.367  60.333 -51.953  1.00  0.00    -0.310 OA
HETATM   20  C   UNL     1     -42.265  60.768 -50.665  1.00  0.00     0.053 A 
HETATM   21  C   UNL     1     -41.256  60.095 -50.012  1.00  0.00     0.036 A 
HETATM   22  C   UNL     1     -40.701  59.198 -50.956  1.00  0.00     0.045 A 
BRANCH  20  23
HETATM   23  C   UNL     1     -43.219  61.826 -50.243  1.00  0.00     0.060 C 
HETATM   24  C   UNL     1     -44.378  61.249 -49.446  1.00  0.00     0.012 C 
ENDBRANCH  20  23
ENDBRANCH  15  18
ENDBRANCH   1  14
BRANCH   1  25
HETATM   25  C   UNL     1     -40.936  55.011 -54.050  1.00  0.00    -0.031 A 
HETATM   26  C   UNL     1     -40.816  54.710 -52.681  1.00  0.00     0.049 A 
HETATM   27  C   UNL     1     -40.464  53.427 -52.264  1.00  0.00     0.102 A 
HETATM   28  C   UNL     1     -40.204  52.430 -53.206  1.00  0.00     0.102 A 
HETATM   29  O   UNL     1     -40.378  53.223 -50.910  1.00  0.00    -0.346 OA
HETATM   30  O   UNL     1     -39.809  51.160 -52.869  1.00  0.00    -0.346 OA
HETATM   31  C   UNL     1     -40.344  52.703 -54.564  1.00  0.00     0.040 A 
HETATM   32  C   UNL     1     -39.351  51.105 -51.514  1.00  0.00     0.202 C 
HETATM   33  C   UNL     1     -40.322  51.828 -50.593  1.00  0.00     0.202 C 
HETATM   34  C   UNL     1     -40.706  53.987 -54.984  1.00  0.00     0.012 A 
ENDBRANCH   1  25
TORSDOF 8
ENDMDL
MODEL 8
REMARK VINA RESULT:      -7.8      2.142      8.627
REMARK  8 active torsions:
REMARK  status: ('A' for Active; 'I' for Inactive)
REMARK    1  A    between atoms: C_2  and  C_3 
REMARK    2  A    between atoms: C_5  and  C_6 
REMARK       I    between atoms: C_6  and  N_7 
REMARK    3  A    between atoms: N_7  and  C_8 
REMARK    4  A    between atoms: C_8  and  C_9 
REMARK    5  A    between atoms: C_9  and  N_10 
REMARK    6  A    between atoms: C_9  and  C_20 
REMARK       I    between atoms: N_10  and  C_11 
REMARK    7  A    between atoms: C_11  and  C_12 
REMARK    8  A    between atoms: C_14  and  C_15 
ROOT
HETATM    1  C   UNL     1     -42.551  58.175 -51.945  1.00  0.00     0.136 C 
ENDROOT
BRANCH   1   2
HETATM    2  C   UNL     1     -43.139  56.914 -51.263  1.00  0.00     0.153 C 
BRANCH   2   3
HETATM    3  N   UNL     1     -42.428  55.693 -51.595  1.00  0.00    -0.353 N 
HETATM    4  C   UNL     1     -41.305  55.281 -50.914  1.00  0.00     0.275 C 
HETATM    5  O   UNL     1     -40.849  55.914 -49.965  1.00  0.00    -0.265 OA
HETATM    6  H   UNL     1     -42.698  55.178 -52.427  1.00  0.00     0.162 HD
BRANCH   4   7
HETATM    7  C   UNL     1     -40.725  54.053 -51.415  1.00  0.00     0.143 A 
HETATM    8  O   UNL     1     -40.869  53.727 -52.739  1.00  0.00    -0.310 OA
HETATM    9  C   UNL     1     -40.237  52.535 -52.932  1.00  0.00     0.053 A 
HETATM   10  C   UNL     1     -39.692  52.088 -51.748  1.00  0.00     0.036 A 
HETATM   11  C   UNL     1     -40.001  53.066 -50.774  1.00  0.00     0.045 A 
BRANCH   9  12
HETATM   12  C   UNL     1     -40.263  51.989 -54.311  1.00  0.00     0.060 C 
HETATM   13  C   UNL     1     -39.960  50.500 -54.330  1.00  0.00     0.012 C 
ENDBRANCH   9  12
ENDBRANCH   4   7
ENDBRANCH   2   3
ENDBRANCH   1   2
BRANCH   1  14
HETATM   14  N   UNL     1     -42.733  58.262 -53.393  1.00  0.00    -0.345 N 
HETATM   15  C   UNL     1     -41.846  58.812 -54.288  1.00  0.00     0.276 C 
HETATM   16  O   UNL     1     -40.840  59.425 -53.948  1.00  0.00    -0.265 OA
HETATM   17  H   UNL     1     -43.476  57.707 -53.798  1.00  0.00     0.163 HD
BRANCH  15  18
HETATM   18  C   UNL     1     -42.211  58.606 -55.676  1.00  0.00     0.143 A 
HETATM   19  O   UNL     1     -42.459  57.336 -56.132  1.00  0.00    -0.310 OA
HETATM   20  C   UNL     1     -42.775  57.437 -57.454  1.00  0.00     0.053 A 
HETATM   21  C   UNL     1     -42.736  58.755 -57.854  1.00  0.00     0.036 A 
HETATM   22  C   UNL     1     -42.369  59.506 -56.712  1.00  0.00     0.045 A 
BRANCH  20  23
HETATM   23  C   UNL     1     -43.086  56.169 -58.163  1.00  0.00     0.060 C 
HETATM   24  C   UNL     1     -42.687  56.235 -59.628  1.00  0.00     0.012 C 
ENDBRANCH  20  23
ENDBRANCH  15  18
ENDBRANCH   1  14
BRANCH   1  25
HETATM   25  C   UNL     1     -43.007  59.454 -51.262  1.00  0.00    -0.031 A 
HETATM   26  C   UNL     1     -44.373  59.654 -50.994  1.00  0.00     0.049 A 
HETATM   27  C   UNL     1     -44.814  60.831 -50.391  1.00  0.00     0.102 A 
HETATM   28  C   UNL     1     -43.901  61.837 -50.067  1.00  0.00     0.102 A 
HETATM   29  O   UNL     1     -46.162  60.936 -50.162  1.00  0.00    -0.346 OA
HETATM   30  O   UNL     1     -44.269  63.038 -49.516  1.00  0.00    -0.346 OA
HETATM   31  C   UNL     1     -42.543  61.645 -50.301  1.00  0.00     0.040 A 
HETATM   32  C   UNL     1     -45.675  63.264 -49.663  1.00  0.00     0.202 C 
HETATM   33  C   UNL     1     -46.459  62.021 -49.275  1.00  0.00     0.202 C 
HETATM   34  C   UNL     1     -42.098  60.461 -50.897  1.00  0.00     0.012 A 
ENDBRANCH   1  25
TORSDOF 8
ENDMDL
MODEL 9
REMARK VINA RESULT:      -7.6      1.995      8.420
REMARK  8 active torsions:
REMARK  status: ('A' for Active; 'I' for Inactive)
REMARK    1  A    between atoms: C_2  and  C_3 
REMARK    2  A    between atoms: C_5  and  C_6 
REMARK       I    between atoms: C_6  and  N_7 
REMARK    3  A    between atoms: N_7  and  C_8 
REMARK    4  A    between atoms: C_8  and  C_9 
REMARK    5  A    between atoms: C_9  and  N_10 
REMARK    6  A    between atoms: C_9  and  C_20 
REMARK       I    between atoms: N_10  and  C_11 
REMARK    7  A    between atoms: C_11  and  C_12 
REMARK    8  A    between atoms: C_14  and  C_15 
ROOT
HETATM    1  C   UNL     1     -42.256  56.222 -54.626  1.00  0.00     0.136 C 
ENDROOT
BRANCH   1   2
HETATM    2  C   UNL     1     -43.548  56.413 -53.792  1.00  0.00     0.153 C 
BRANCH   2   3
HETATM    3  N   UNL     1     -43.428  57.434 -52.767  1.00  0.00    -0.353 N 
HETATM    4  C   UNL     1     -44.142  58.609 -52.805  1.00  0.00     0.275 C 
HETATM    5  O   UNL     1     -44.946  58.856 -53.702  1.00  0.00    -0.265 OA
HETATM    6  H   UNL     1     -42.713  57.332 -52.054  1.00  0.00     0.162 HD
BRANCH   4   7
HETATM    7  C   UNL     1     -43.862  59.510 -51.708  1.00  0.00     0.143 A 
HETATM    8  O   UNL     1     -44.894  59.986 -50.942  1.00  0.00    -0.310 OA
HETATM    9  C   UNL     1     -44.353  60.805 -49.997  1.00  0.00     0.053 A 
HETATM   10  C   UNL     1     -42.984  60.867 -50.149  1.00  0.00     0.036 A 
HETATM   11  C   UNL     1     -42.668  60.030 -51.245  1.00  0.00     0.045 A 
BRANCH   9  12
HETATM   12  C   UNL     1     -45.300  61.432 -49.043  1.00  0.00     0.060 C 
HETATM   13  C   UNL     1     -44.805  61.326 -47.610  1.00  0.00     0.012 C 
ENDBRANCH   9  12
ENDBRANCH   4   7
ENDBRANCH   2   3
ENDBRANCH   1   2
BRANCH   1  14
HETATM   14  N   UNL     1     -41.539  54.967 -54.416  1.00  0.00    -0.345 N 
HETATM   15  C   UNL     1     -41.013  54.524 -53.226  1.00  0.00     0.276 C 
HETATM   16  O   UNL     1     -40.969  55.213 -52.212  1.00  0.00    -0.265 OA
HETATM   17  H   UNL     1     -41.596  54.274 -55.153  1.00  0.00     0.163 HD
BRANCH  15  18
HETATM   18  C   UNL     1     -40.507  53.167 -53.277  1.00  0.00     0.143 A 
HETATM   19  O   UNL     1     -40.173  52.522 -52.112  1.00  0.00    -0.310 OA
HETATM   20  C   UNL     1     -39.732  51.278 -52.452  1.00  0.00     0.053 A 
HETATM   21  C   UNL     1     -39.779  51.113 -53.819  1.00  0.00     0.036 A 
HETATM   22  C   UNL     1     -40.273  52.328 -54.350  1.00  0.00     0.045 A 
BRANCH  20  23
HETATM   23  C   UNL     1     -39.313  50.392 -51.336  1.00  0.00     0.060 C 
HETATM   24  C   UNL     1     -40.273  50.481 -50.161  1.00  0.00     0.012 C 
ENDBRANCH  20  23
ENDBRANCH  15  18
ENDBRANCH   1  14
BRANCH   1  25
HETATM   25  C   UNL     1     -42.497  56.470 -56.107  1.00  0.00    -0.031 A 
HETATM   26  C   UNL     1     -42.339  57.764 -56.633  1.00  0.00     0.049 A 
HETATM   27  C   UNL     1     -42.579  58.017 -57.983  1.00  0.00     0.102 A 
HETATM   28  C   UNL     1     -43.003  56.986 -58.825  1.00  0.00     0.102 A 
HETATM   29  O   UNL     1     -42.392  59.307 -58.410  1.00  0.00    -0.346 OA
HETATM   30  O   UNL     1     -43.301  57.171 -60.150  1.00  0.00    -0.346 OA
HETATM   31  C   UNL     1     -43.138  55.694 -58.326  1.00  0.00     0.040 A 
HETATM   32  C   UNL     1     -43.482  58.560 -60.449  1.00  0.00     0.202 C 
HETATM   33  C   UNL     1     -42.361  59.387 -59.839  1.00  0.00     0.202 C 
HETATM   34  C   UNL     1     -42.889  55.437 -56.975  1.00  0.00     0.012 A 
ENDBRANCH   1  25
TORSDOF 8
ENDMDL
MODEL 10
REMARK VINA RESULT:      -7.6      2.104      6.780
REMARK  8 active torsions:
REMARK  status: ('A' for Active; 'I' for Inactive)
REMARK    1  A    between atoms: C_2  and  C_3 
REMARK    2  A    between atoms: C_5  and  C_6 
REMARK       I    between atoms: C_6  and  N_7 
REMARK    3  A    between atoms: N_7  and  C_8 
REMARK    4  A    between atoms: C_8  and  C_9 
REMARK    5  A    between atoms: C_9  and  N_10 
REMARK    6  A    between atoms: C_9  and  C_20 
REMARK       I    between atoms: N_10  and  C_11 
REMARK    7  A    between atoms: C_11  and  C_12 
REMARK    8  A    between atoms: C_14  and  C_15 
ROOT
HETATM    1  C   UNL     1     -43.039  56.130 -54.575  1.00  0.00     0.136 C 
ENDROOT
BRANCH   1   2
HETATM    2  C   UNL     1     -42.636  56.563 -56.007  1.00  0.00     0.153 C 
BRANCH   2   3
HETATM    3  N   UNL     1     -43.770  56.763 -56.890  1.00  0.00    -0.353 N 
HETATM    4  C   UNL     1     -44.105  57.999 -57.397  1.00  0.00     0.275 C 
HETATM    5  O   UNL     1     -43.446  59.006 -57.148  1.00  0.00    -0.265 OA
HETATM    6  H   UNL     1     -44.407  55.992 -57.055  1.00  0.00     0.162 HD
BRANCH   4   7
HETATM    7  C   UNL     1     -45.285  57.997 -58.234  1.00  0.00     0.143 A 
HETATM    8  O   UNL     1     -45.522  56.934 -59.068  1.00  0.00    -0.310 OA
HETATM    9  C   UNL     1     -46.682  57.193 -59.734  1.00  0.00     0.053 A 
HETATM   10  C   UNL     1     -47.193  58.412 -59.343  1.00  0.00     0.036 A 
HETATM   11  C   UNL     1     -46.297  58.926 -58.375  1.00  0.00     0.045 A 
BRANCH   9  12
HETATM   12  C   UNL     1     -47.138  56.160 -60.696  1.00  0.00     0.060 C 
HETATM   13  C   UNL     1     -48.003  56.757 -61.792  1.00  0.00     0.012 C 
ENDBRANCH   9  12
ENDBRANCH   4   7
ENDBRANCH   2   3
ENDBRANCH   1   2
BRANCH   1  14
HETATM   14  N   UNL     1     -42.115  55.224 -53.896  1.00  0.00    -0.345 N 
HETATM   15  C   UNL     1     -42.447  54.302 -52.932  1.00  0.00     0.276 C 
HETATM   16  O   UNL     1     -43.562  54.228 -52.426  1.00  0.00    -0.265 OA
HETATM   17  H   UNL     1     -41.189  55.126 -54.295  1.00  0.00     0.163 HD
BRANCH  15  18
HETATM   18  C   UNL     1     -41.355  53.424 -52.560  1.00  0.00     0.143 A 
HETATM   19  O   UNL     1     -40.866  52.524 -53.474  1.00  0.00    -0.310 OA
HETATM   20  C   UNL     1     -39.858  51.838 -52.864  1.00  0.00     0.053 A 
HETATM   21  C   UNL     1     -39.691  52.285 -51.571  1.00  0.00     0.036 A 
HETATM   22  C   UNL     1     -40.656  53.301 -51.375  1.00  0.00     0.045 A 
BRANCH  20  23
HETATM   23  C   UNL     1     -39.173  50.800 -53.675  1.00  0.00     0.060 C 
HETATM   24  C   UNL     1     -40.165  49.970 -54.474  1.00  0.00     0.012 C 
ENDBRANCH  20  23
ENDBRANCH  15  18
ENDBRANCH   1  14
BRANCH   1  25
HETATM   25  C   UNL     1     -43.374  57.324 -53.695  1.00  0.00    -0.031 A 
HETATM   26  C   UNL     1     -42.387  57.873 -52.857  1.00  0.00     0.049 A 
HETATM   27  C   UNL     1     -42.681  58.952 -52.025  1.00  0.00     0.102 A 
HETATM   28  C   UNL     1     -43.971  59.486 -51.999  1.00  0.00     0.102 A 
HETATM   29  O   UNL     1     -41.655  59.426 -51.247  1.00  0.00    -0.346 OA
HETATM   30  O   UNL     1     -44.343  60.516 -51.173  1.00  0.00    -0.346 OA
HETATM   31  C   UNL     1     -44.953  58.973 -52.841  1.00  0.00     0.040 A 
HETATM   32  C   UNL     1     -43.388  60.705 -50.122  1.00  0.00     0.202 C 
HETATM   33  C   UNL     1     -41.974  60.702 -50.680  1.00  0.00     0.202 C 
HETATM   34  C   UNL     1     -44.657  57.897 -53.683  1.00  0.00     0.012 A 
ENDBRANCH   1  25
TORSDOF 8
ENDMDL
