MODEL 1
REMARK VINA RESULT:      -9.2      0.000      0.000
REMARK  7 active torsions:
REMARK  status: ('A' for Active; 'I' for Inactive)
REMARK    1  A    between atoms: C_2  and  C_3 
REMARK    2  A    between atoms: C_8  and  N_9 
REMARK    3  A    between atoms: N_9  and  C_10 
REMARK    4  A    between atoms: C_10  and  C_11 
REMARK       I    between atoms: C_11  and  N_12 
REMARK    5  A    between atoms: N_12  and  C_13 
REMARK    6  A    between atoms: C_24  and  N_25 
REMARK    7  A    between atoms: N_25  and  C_26 
ROOT
HETATM    1  N   UNL     1     -40.717  54.970 -53.851  1.00  0.00    -0.282 NA
HETATM    2  H   UNL     1     -40.047  55.667 -53.518  1.00  0.00     0.128 HD
ENDROOT
BRANCH   1   3
HETATM    3  C   UNL     1     -40.441  53.776 -53.127  1.00  0.00     0.036 A 
HETATM    4  C   UNL     1     -40.288  52.522 -53.733  1.00  0.00     0.042 A 
HETATM    5  C   UNL     1     -39.990  51.379 -52.974  1.00  0.00     0.049 A 
HETATM    6  C   UNL     1     -39.839  51.508 -51.591  1.00  0.00     0.018 A 
HETATM    7  C   UNL     1     -39.986  52.752 -50.973  1.00  0.00     0.032 A 
HETATM    8  C   UNL     1     -40.275  53.900 -51.715  1.00  0.00     0.049 A 
BRANCH   5   9
HETATM    9  C   UNL     1     -39.832  50.044 -53.659  1.00  0.00     0.417 C 
HETATM   10  F   UNL     1     -40.884  49.713 -54.459  1.00  0.00    -0.166 F 
HETATM   11  F   UNL     1     -38.727  49.988 -54.451  1.00  0.00    -0.166 F 
HETATM   12  F   UNL     1     -39.705  49.021 -52.769  1.00  0.00    -0.166 F 
ENDBRANCH   5   9
BRANCH   8  13
HETATM   13  N   UNL     1     -40.509  55.151 -51.137  1.00  0.00    -0.384 N 
HETATM   14  H   UNL     1     -39.781  55.355 -50.453  1.00  0.00     0.160 HD
BRANCH  13  15
HETATM   15  C   UNL     1     -41.814  55.707 -50.771  1.00  0.00     0.081 C 
HETATM   16  C   UNL     1     -42.986  54.747 -51.006  1.00  0.00     0.025 C 
HETATM   17  C   UNL     1     -44.308  55.367 -50.555  1.00  0.00     0.002 C 
HETATM   18  C   UNL     1     -44.538  56.731 -51.201  1.00  0.00     0.000 C 
HETATM   19  C   UNL     1     -43.377  57.685 -50.933  1.00  0.00     0.002 C 
HETATM   20  C   UNL     1     -42.042  57.094 -51.383  1.00  0.00     0.025 C 
ENDBRANCH  13  15
ENDBRANCH   8  13
ENDBRANCH   1   3
BRANCH   1  21
HETATM   21  C   UNL     1     -40.708  54.948 -55.332  1.00  0.00     0.195 C 
BRANCH  21  22
HETATM   22  C   UNL     1     -42.114  55.034 -55.951  1.00  0.00     0.235 C 
HETATM   23  N   UNL     1     -42.165  55.865 -57.054  1.00  0.00    -0.326 N 
HETATM   24  H   UNL     1     -41.278  56.323 -57.260  1.00  0.00     0.169 HD
HETATM   25  O   UNL     1     -43.042  54.376 -55.486  1.00  0.00    -0.272 OA
BRANCH  23  26
HETATM   26  C   UNL     1     -43.284  56.242 -57.815  1.00  0.00     0.037 A 
HETATM   27  C   UNL     1     -43.746  55.515 -58.919  1.00  0.00     0.061 A 
HETATM   28  C   UNL     1     -44.874  55.988 -59.549  1.00  0.00     0.065 A 
HETATM   29  C   UNL     1     -45.537  57.140 -59.135  1.00  0.00     0.063 A 
HETATM   30  N   UNL     1     -45.563  55.469 -60.642  1.00  0.00    -0.306 N 
HETATM   31  N   UNL     1     -46.629  57.332 -59.972  1.00  0.00    -0.307 N 
HETATM   32  C   UNL     1     -45.108  57.882 -58.064  1.00  0.00     0.034 A 
HETATM   33  C   UNL     1     -46.661  56.294 -60.916  1.00  0.00     0.325 A 
HETATM   34  H   UNL     1     -47.310  58.072 -59.931  1.00  0.00     0.170 HD
HETATM   35  O   UNL     1     -47.487  56.142 -61.798  1.00  0.00    -0.247 OA
HETATM   36  C   UNL     1     -43.966  57.417 -57.398  1.00  0.00     0.032 A 
HETATM   37  H   UNL     1     -45.340  54.635 -61.160  1.00  0.00     0.170 HD
ENDBRANCH  23  26
ENDBRANCH  21  22
ENDBRANCH   1  21
TORSDOF 7
ENDMDL
MODEL 2
REMARK VINA RESULT:      -8.9      3.180      3.808
REMARK  7 active torsions:
REMARK  status: ('A' for Active; 'I' for Inactive)
REMARK    1  A    between atoms: C_2  and  C_3 
REMARK    2  A    between atoms: C_8  and  N_9 
REMARK    3  A    between atoms: N_9  and  C_10 
REMARK    4  A    between atoms: C_10  and  C_11 
REMARK       I    between atoms: C_11  and  N_12 
REMARK    5  A    between atoms: N_12  and  C_13 
REMARK    6  A    between atoms: C_24  and  N_25 
REMARK    7  A    between atoms: N_25  and  C_26 
ROOT
HETATM    1  N   UNL     1     -41.196  55.039 -55.540  1.00  0.00    -0.282 NA
HETATM    2  H   UNL     1     -40.503  54.878 -56.274  1.00  0.00     0.128 HD
ENDROOT
BRANCH   1   3
HETATM    3  C   UNL     1     -40.890  54.121 -54.497  1.00  0.00     0.036 A 
HETATM    4  C   UNL     1     -40.609  52.766 -54.718  1.00  0.00     0.042 A 
HETATM    5  C   UNL     1     -40.287  51.907 -53.655  1.00  0.00     0.049 A 
HETATM    6  C   UNL     1     -40.242  52.426 -52.358  1.00  0.00     0.018 A 
HETATM    7  C   UNL     1     -40.517  53.776 -52.123  1.00  0.00     0.032 A 
HETATM    8  C   UNL     1     -40.831  54.644 -53.170  1.00  0.00     0.049 A 
BRANCH   5   9
HETATM    9  C   UNL     1     -39.991  50.453 -53.928  1.00  0.00     0.417 C 
HETATM   10  F   UNL     1     -38.837  50.252 -54.623  1.00  0.00    -0.166 F 
HETATM   11  F   UNL     1     -39.874  49.719 -52.788  1.00  0.00    -0.166 F 
HETATM   12  F   UNL     1     -40.974  49.856 -54.657  1.00  0.00    -0.166 F 
ENDBRANCH   5   9
BRANCH   8  13
HETATM   13  N   UNL     1     -41.191  55.982 -52.979  1.00  0.00    -0.384 N 
HETATM   14  H   UNL     1     -40.463  56.460 -52.450  1.00  0.00     0.160 HD
BRANCH  13  15
HETATM   15  C   UNL     1     -42.536  56.486 -52.695  1.00  0.00     0.081 C 
HETATM   16  C   UNL     1     -42.810  57.882 -53.265  1.00  0.00     0.025 C 
HETATM   17  C   UNL     1     -44.245  58.325 -52.980  1.00  0.00     0.002 C 
HETATM   18  C   UNL     1     -44.576  58.232 -51.492  1.00  0.00     0.000 C 
HETATM   19  C   UNL     1     -44.327  56.828 -50.946  1.00  0.00     0.002 C 
HETATM   20  C   UNL     1     -42.896  56.362 -51.210  1.00  0.00     0.025 C 
ENDBRANCH  13  15
ENDBRANCH   8  13
ENDBRANCH   1   3
BRANCH   1  21
HETATM   21  C   UNL     1     -42.552  55.048 -56.136  1.00  0.00     0.195 C 
BRANCH  21  22
HETATM   22  C   UNL     1     -42.943  56.408 -56.738  1.00  0.00     0.235 C 
HETATM   23  N   UNL     1     -42.029  56.866 -57.668  1.00  0.00    -0.326 N 
HETATM   24  H   UNL     1     -41.220  56.256 -57.778  1.00  0.00     0.169 HD
HETATM   25  O   UNL     1     -43.993  56.956 -56.412  1.00  0.00    -0.272 OA
BRANCH  23  26
HETATM   26  C   UNL     1     -42.017  58.092 -58.354  1.00  0.00     0.037 A 
HETATM   27  C   UNL     1     -41.817  59.326 -57.723  1.00  0.00     0.061 A 
HETATM   28  C   UNL     1     -41.799  60.443 -58.527  1.00  0.00     0.065 A 
HETATM   29  C   UNL     1     -41.979  60.376 -59.906  1.00  0.00     0.063 A 
HETATM   30  N   UNL     1     -41.603  61.778 -58.187  1.00  0.00    -0.306 N 
HETATM   31  N   UNL     1     -41.898  61.667 -60.414  1.00  0.00    -0.307 N 
HETATM   32  C   UNL     1     -42.186  59.186 -60.556  1.00  0.00     0.034 A 
HETATM   33  C   UNL     1     -41.659  62.553 -59.353  1.00  0.00     0.325 A 
HETATM   34  H   UNL     1     -41.979  61.954 -61.374  1.00  0.00     0.170 HD
HETATM   35  O   UNL     1     -41.523  63.761 -59.434  1.00  0.00    -0.247 OA
HETATM   36  C   UNL     1     -42.199  58.032 -59.761  1.00  0.00     0.032 A 
HETATM   37  H   UNL     1     -41.434  62.151 -57.267  1.00  0.00     0.170 HD
ENDBRANCH  23  26
ENDBRANCH  21  22
ENDBRANCH   1  21
TORSDOF 7
ENDMDL
MODEL 3
REMARK VINA RESULT:      -8.9      2.276      2.818
REMARK  7 active torsions:
REMARK  status: ('A' for Active; 'I' for Inactive)
REMARK    1  A    between atoms: C_2  and  C_3 
REMARK    2  A    between atoms: C_8  and  N_9 
REMARK    3  A    between atoms: N_9  and  C_10 
REMARK    4  A    between atoms: C_10  and  C_11 
REMARK       I    between atoms: C_11  and  N_12 
REMARK    5  A    between atoms: N_12  and  C_13 
REMARK    6  A    between atoms: C_24  and  N_25 
REMARK    7  A    between atoms: N_25  and  C_26 
ROOT
HETATM    1  N   UNL     1     -42.331  54.283 -54.569  1.00  0.00    -0.282 NA
HETATM    2  H   UNL     1     -42.609  55.070 -53.978  1.00  0.00     0.128 HD
ENDROOT
BRANCH   1   3
HETATM    3  C   UNL     1     -41.505  53.453 -53.761  1.00  0.00     0.036 A 
HETATM    4  C   UNL     1     -41.004  52.214 -54.184  1.00  0.00     0.042 A 
HETATM    5  C   UNL     1     -40.170  51.445 -53.357  1.00  0.00     0.049 A 
HETATM    6  C   UNL     1     -39.834  51.938 -52.093  1.00  0.00     0.018 A 
HETATM    7  C   UNL     1     -40.323  53.173 -51.659  1.00  0.00     0.032 A 
HETATM    8  C   UNL     1     -41.147  53.954 -52.473  1.00  0.00     0.049 A 
BRANCH   5   9
HETATM    9  C   UNL     1     -39.650  50.116 -53.843  1.00  0.00     0.417 C 
HETATM   10  F   UNL     1     -38.442  50.197 -54.466  1.00  0.00    -0.166 F 
HETATM   11  F   UNL     1     -39.492  49.214 -52.836  1.00  0.00    -0.166 F 
HETATM   12  F   UNL     1     -40.493  49.530 -54.739  1.00  0.00    -0.166 F 
ENDBRANCH   5   9
BRANCH   8  13
HETATM   13  N   UNL     1     -41.725  55.156 -52.056  1.00  0.00    -0.384 N 
HETATM   14  H   UNL     1     -42.655  55.248 -52.462  1.00  0.00     0.160 HD
BRANCH  13  15
HETATM   15  C   UNL     1     -41.037  56.439 -51.896  1.00  0.00     0.081 C 
HETATM   16  C   UNL     1     -41.388  57.174 -50.597  1.00  0.00     0.025 C 
HETATM   17  C   UNL     1     -40.597  58.475 -50.466  1.00  0.00     0.002 C 
HETATM   18  C   UNL     1     -40.768  59.362 -51.697  1.00  0.00     0.000 C 
HETATM   19  C   UNL     1     -40.387  58.626 -52.980  1.00  0.00     0.002 C 
HETATM   20  C   UNL     1     -41.169  57.324 -53.140  1.00  0.00     0.025 C 
ENDBRANCH  13  15
ENDBRANCH   8  13
ENDBRANCH   1   3
BRANCH   1  21
HETATM   21  C   UNL     1     -41.817  54.796 -55.860  1.00  0.00     0.195 C 
BRANCH  21  22
HETATM   22  C   UNL     1     -42.708  55.886 -56.480  1.00  0.00     0.235 C 
HETATM   23  N   UNL     1     -42.526  56.017 -57.844  1.00  0.00    -0.326 N 
HETATM   24  H   UNL     1     -41.802  55.404 -58.219  1.00  0.00     0.169 HD
HETATM   25  O   UNL     1     -43.505  56.511 -55.785  1.00  0.00    -0.272 OA
BRANCH  23  26
HETATM   26  C   UNL     1     -43.102  56.952 -58.719  1.00  0.00     0.037 A 
HETATM   27  C   UNL     1     -42.441  58.107 -59.157  1.00  0.00     0.061 A 
HETATM   28  C   UNL     1     -43.119  58.917 -60.039  1.00  0.00     0.065 A 
HETATM   29  C   UNL     1     -44.407  58.629 -60.483  1.00  0.00     0.063 A 
HETATM   30  N   UNL     1     -42.712  60.099 -60.650  1.00  0.00    -0.306 N 
HETATM   31  N   UNL     1     -44.794  59.634 -61.362  1.00  0.00    -0.307 N 
HETATM   32  C   UNL     1     -45.087  57.513 -60.068  1.00  0.00     0.034 A 
HETATM   33  C   UNL     1     -43.744  60.557 -61.480  1.00  0.00     0.325 A 
HETATM   34  H   UNL     1     -45.665  59.712 -61.857  1.00  0.00     0.170 HD
HETATM   35  O   UNL     1     -43.734  61.559 -62.173  1.00  0.00    -0.247 OA
HETATM   36  C   UNL     1     -44.416  56.666 -59.177  1.00  0.00     0.032 A 
HETATM   37  H   UNL     1     -41.825  60.564 -60.542  1.00  0.00     0.170 HD
ENDBRANCH  23  26
ENDBRANCH  21  22
ENDBRANCH   1  21
TORSDOF 7
ENDMDL
MODEL 4
REMARK VINA RESULT:      -8.9      3.317      4.148
REMARK  7 active torsions:
REMARK  status: ('A' for Active; 'I' for Inactive)
REMARK    1  A    between atoms: C_2  and  C_3 
REMARK    2  A    between atoms: C_8  and  N_9 
REMARK    3  A    between atoms: N_9  and  C_10 
REMARK    4  A    between atoms: C_10  and  C_11 
REMARK       I    between atoms: C_11  and  N_12 
REMARK    5  A    between atoms: N_12  and  C_13 
REMARK    6  A    between atoms: C_24  and  N_25 
REMARK    7  A    between atoms: N_25  and  C_26 
ROOT
HETATM    1  N   UNL     1     -42.978  54.490 -54.898  1.00  0.00    -0.282 NA
HETATM    2  H   UNL     1     -43.376  55.280 -54.384  1.00  0.00     0.128 HD
ENDROOT
BRANCH   1   3
HETATM    3  C   UNL     1     -42.083  53.843 -54.002  1.00  0.00     0.036 A 
HETATM    4  C   UNL     1     -41.426  52.641 -54.298  1.00  0.00     0.042 A 
HETATM    5  C   UNL     1     -40.531  52.057 -53.387  1.00  0.00     0.049 A 
HETATM    6  C   UNL     1     -40.293  52.700 -52.169  1.00  0.00     0.018 A 
HETATM    7  C   UNL     1     -40.938  53.901 -51.861  1.00  0.00     0.032 A 
HETATM    8  C   UNL     1     -41.824  54.498 -52.760  1.00  0.00     0.049 A 
BRANCH   5   9
HETATM    9  C   UNL     1     -39.843  50.761 -53.737  1.00  0.00     0.417 C 
HETATM   10  F   UNL     1     -39.653  49.938 -52.670  1.00  0.00    -0.166 F 
HETATM   11  F   UNL     1     -40.535  50.031 -54.654  1.00  0.00    -0.166 F 
HETATM   12  F   UNL     1     -38.609  50.964 -54.276  1.00  0.00    -0.166 F 
ENDBRANCH   5   9
BRANCH   8  13
HETATM   13  N   UNL     1     -42.553  55.655 -52.468  1.00  0.00    -0.384 N 
HETATM   14  H   UNL     1     -43.442  55.635 -52.966  1.00  0.00     0.160 HD
BRANCH  13  15
HETATM   15  C   UNL     1     -42.010  57.006 -52.313  1.00  0.00     0.081 C 
HETATM   16  C   UNL     1     -40.910  57.353 -53.322  1.00  0.00     0.025 C 
HETATM   17  C   UNL     1     -40.427  58.792 -53.141  1.00  0.00     0.002 C 
HETATM   18  C   UNL     1     -39.997  59.063 -51.701  1.00  0.00     0.000 C 
HETATM   19  C   UNL     1     -41.113  58.740 -50.709  1.00  0.00     0.002 C 
HETATM   20  C   UNL     1     -41.611  57.304 -50.863  1.00  0.00     0.025 C 
ENDBRANCH  13  15
ENDBRANCH   8  13
ENDBRANCH   1   3
BRANCH   1  21
HETATM   21  C   UNL     1     -42.488  54.959 -56.215  1.00  0.00     0.195 C 
BRANCH  21  22
HETATM   22  C   UNL     1     -42.813  56.436 -56.496  1.00  0.00     0.235 C 
HETATM   23  N   UNL     1     -42.116  56.942 -57.576  1.00  0.00    -0.326 N 
HETATM   24  H   UNL     1     -41.466  56.275 -57.991  1.00  0.00     0.169 HD
HETATM   25  O   UNL     1     -43.644  57.032 -55.816  1.00  0.00    -0.272 OA
BRANCH  23  26
HETATM   26  C   UNL     1     -42.099  58.258 -58.068  1.00  0.00     0.037 A 
HETATM   27  C   UNL     1     -41.828  59.376 -57.269  1.00  0.00     0.061 A 
HETATM   28  C   UNL     1     -41.814  60.601 -57.895  1.00  0.00     0.065 A 
HETATM   29  C   UNL     1     -42.065  60.751 -59.256  1.00  0.00     0.063 A 
HETATM   30  N   UNL     1     -41.559  61.864 -57.368  1.00  0.00    -0.306 N 
HETATM   31  N   UNL     1     -41.968  62.101 -59.567  1.00  0.00    -0.307 N 
HETATM   32  C   UNL     1     -42.342  59.679 -60.068  1.00  0.00     0.034 A 
HETATM   33  C   UNL     1     -41.648  62.809 -58.398  1.00  0.00     0.325 A 
HETATM   34  H   UNL     1     -42.087  62.534 -60.467  1.00  0.00     0.170 HD
HETATM   35  O   UNL     1     -41.478  64.011 -58.303  1.00  0.00    -0.247 OA
HETATM   36  C   UNL     1     -42.353  58.418 -59.457  1.00  0.00     0.032 A 
HETATM   37  H   UNL     1     -41.333  62.088 -56.413  1.00  0.00     0.170 HD
ENDBRANCH  23  26
ENDBRANCH  21  22
ENDBRANCH   1  21
TORSDOF 7
ENDMDL
MODEL 5
REMARK VINA RESULT:      -8.7      2.323      3.257
REMARK  7 active torsions:
REMARK  status: ('A' for Active; 'I' for Inactive)
REMARK    1  A    between atoms: C_2  and  C_3 
REMARK    2  A    between atoms: C_8  and  N_9 
REMARK    3  A    between atoms: N_9  and  C_10 
REMARK    4  A    between atoms: C_10  and  C_11 
REMARK       I    between atoms: C_11  and  N_12 
REMARK    5  A    between atoms: N_12  and  C_13 
REMARK    6  A    between atoms: C_24  and  N_25 
REMARK    7  A    between atoms: N_25  and  C_26 
ROOT
HETATM    1  N   UNL     1     -43.441  54.940 -56.020  1.00  0.00    -0.282 NA
HETATM    2  H   UNL     1     -44.359  55.318 -55.776  1.00  0.00     0.128 HD
ENDROOT
BRANCH   1   3
HETATM    3  C   UNL     1     -42.875  54.458 -54.807  1.00  0.00     0.036 A 
HETATM    4  C   UNL     1     -41.847  53.506 -54.758  1.00  0.00     0.042 A 
HETATM    5  C   UNL     1     -41.305  53.084 -53.533  1.00  0.00     0.049 A 
HETATM    6  C   UNL     1     -41.802  53.635 -52.349  1.00  0.00     0.018 A 
HETATM    7  C   UNL     1     -42.824  54.587 -52.383  1.00  0.00     0.032 A 
HETATM    8  C   UNL     1     -43.368  55.024 -53.593  1.00  0.00     0.049 A 
BRANCH   5   9
HETATM    9  C   UNL     1     -40.201  52.056 -53.517  1.00  0.00     0.417 C 
HETATM   10  F   UNL     1     -39.684  51.830 -52.277  1.00  0.00    -0.166 F 
HETATM   11  F   UNL     1     -40.607  50.843 -53.981  1.00  0.00    -0.166 F 
HETATM   12  F   UNL     1     -39.147  52.421 -54.299  1.00  0.00    -0.166 F 
ENDBRANCH   5   9
BRANCH   8  13
HETATM   13  N   UNL     1     -44.444  55.914 -53.677  1.00  0.00    -0.384 N 
HETATM   14  H   UNL     1     -45.062  55.632 -54.436  1.00  0.00     0.160 HD
BRANCH  13  15
HETATM   15  C   UNL     1     -44.385  57.365 -53.488  1.00  0.00     0.081 C 
HETATM   16  C   UNL     1     -44.821  57.827 -52.093  1.00  0.00     0.025 C 
HETATM   17  C   UNL     1     -44.684  59.343 -51.945  1.00  0.00     0.002 C 
HETATM   18  C   UNL     1     -45.422  60.084 -53.058  1.00  0.00     0.000 C 
HETATM   19  C   UNL     1     -44.956  59.633 -54.441  1.00  0.00     0.002 C 
HETATM   20  C   UNL     1     -45.089  58.122 -54.619  1.00  0.00     0.025 C 
ENDBRANCH  13  15
ENDBRANCH   8  13
ENDBRANCH   1   3
BRANCH   1  21
HETATM   21  C   UNL     1     -42.701  55.933 -56.832  1.00  0.00     0.195 C 
BRANCH  21  22
HETATM   22  C   UNL     1     -43.400  56.277 -58.159  1.00  0.00     0.235 C 
HETATM   23  N   UNL     1     -44.590  56.956 -57.978  1.00  0.00    -0.326 N 
HETATM   24  H   UNL     1     -44.840  57.086 -56.998  1.00  0.00     0.169 HD
HETATM   25  O   UNL     1     -42.880  55.983 -59.232  1.00  0.00    -0.272 OA
BRANCH  23  26
HETATM   26  C   UNL     1     -45.526  57.356 -58.946  1.00  0.00     0.037 A 
HETATM   27  C   UNL     1     -46.019  56.501 -59.940  1.00  0.00     0.061 A 
HETATM   28  C   UNL     1     -46.957  57.022 -60.801  1.00  0.00     0.065 A 
HETATM   29  C   UNL     1     -47.403  58.338 -60.717  1.00  0.00     0.063 A 
HETATM   30  N   UNL     1     -47.629  56.411 -61.856  1.00  0.00    -0.306 N 
HETATM   31  N   UNL     1     -48.344  58.539 -61.720  1.00  0.00    -0.307 N 
HETATM   32  C   UNL     1     -46.935  59.206 -59.763  1.00  0.00     0.034 A 
HETATM   33  C   UNL     1     -48.499  57.343 -62.437  1.00  0.00     0.325 A 
HETATM   34  H   UNL     1     -48.857  59.381 -61.920  1.00  0.00     0.170 HD
HETATM   35  O   UNL     1     -49.248  57.154 -63.378  1.00  0.00    -0.247 OA
HETATM   36  C   UNL     1     -45.986  58.697 -58.867  1.00  0.00     0.032 A 
HETATM   37  H   UNL     1     -47.535  55.457 -62.165  1.00  0.00     0.170 HD
ENDBRANCH  23  26
ENDBRANCH  21  22
ENDBRANCH   1  21
TORSDOF 7
ENDMDL
MODEL 6
REMARK VINA RESULT:      -8.6      5.723      8.971
REMARK  7 active torsions:
REMARK  status: ('A' for Active; 'I' for Inactive)
REMARK    1  A    between atoms: C_2  and  C_3 
REMARK    2  A    between atoms: C_8  and  N_9 
REMARK    3  A    between atoms: N_9  and  C_10 
REMARK    4  A    between atoms: C_10  and  C_11 
REMARK       I    between atoms: C_11  and  N_12 
REMARK    5  A    between atoms: N_12  and  C_13 
REMARK    6  A    between atoms: C_24  and  N_25 
REMARK    7  A    between atoms: N_25  and  C_26 
ROOT
HETATM    1  N   UNL     1     -44.388  56.486 -51.216  1.00  0.00    -0.282 NA
HETATM    2  H   UNL     1     -44.971  56.235 -50.415  1.00  0.00     0.128 HD
ENDROOT
BRANCH   1   3
HETATM    3  C   UNL     1     -43.314  55.552 -51.232  1.00  0.00     0.036 A 
HETATM    4  C   UNL     1     -42.484  55.308 -50.130  1.00  0.00     0.042 A 
HETATM    5  C   UNL     1     -41.454  54.355 -50.190  1.00  0.00     0.049 A 
HETATM    6  C   UNL     1     -41.268  53.638 -51.375  1.00  0.00     0.018 A 
HETATM    7  C   UNL     1     -42.090  53.868 -52.482  1.00  0.00     0.032 A 
HETATM    8  C   UNL     1     -43.124  54.806 -52.435  1.00  0.00     0.049 A 
BRANCH   5   9
HETATM    9  C   UNL     1     -40.579  54.119 -48.985  1.00  0.00     0.417 C 
HETATM   10  F   UNL     1     -39.260  54.371 -49.211  1.00  0.00    -0.166 F 
HETATM   11  F   UNL     1     -40.931  54.892 -47.922  1.00  0.00    -0.166 F 
HETATM   12  F   UNL     1     -40.642  52.831 -48.548  1.00  0.00    -0.166 F 
ENDBRANCH   5   9
BRANCH   8  13
HETATM   13  N   UNL     1     -43.921  55.129 -53.537  1.00  0.00    -0.384 N 
HETATM   14  H   UNL     1     -44.517  54.337 -53.772  1.00  0.00     0.160 HD
BRANCH  13  15
HETATM   15  C   UNL     1     -43.509  55.908 -54.706  1.00  0.00     0.081 C 
HETATM   16  C   UNL     1     -44.435  57.088 -55.024  1.00  0.00     0.025 C 
HETATM   17  C   UNL     1     -43.919  57.890 -56.219  1.00  0.00     0.002 C 
HETATM   18  C   UNL     1     -43.683  56.996 -57.434  1.00  0.00     0.000 C 
HETATM   19  C   UNL     1     -42.736  55.843 -57.110  1.00  0.00     0.002 C 
HETATM   20  C   UNL     1     -43.231  55.019 -55.923  1.00  0.00     0.025 C 
ENDBRANCH  13  15
ENDBRANCH   8  13
ENDBRANCH   1   3
BRANCH   1  21
HETATM   21  C   UNL     1     -44.096  57.937 -51.177  1.00  0.00     0.195 C 
BRANCH  21  22
HETATM   22  C   UNL     1     -45.239  58.771 -50.572  1.00  0.00     0.235 C 
HETATM   23  N   UNL     1     -44.807  59.979 -50.057  1.00  0.00    -0.326 N 
HETATM   24  H   UNL     1     -43.798  60.110 -50.118  1.00  0.00     0.169 HD
HETATM   25  O   UNL     1     -46.397  58.364 -50.612  1.00  0.00    -0.272 OA
BRANCH  23  26
HETATM   26  C   UNL     1     -45.548  60.950 -49.364  1.00  0.00     0.037 A 
HETATM   27  C   UNL     1     -45.637  61.001 -47.967  1.00  0.00     0.061 A 
HETATM   28  C   UNL     1     -46.374  62.029 -47.426  1.00  0.00     0.065 A 
HETATM   29  C   UNL     1     -47.020  62.981 -48.209  1.00  0.00     0.063 A 
HETATM   30  N   UNL     1     -46.616  62.340 -46.091  1.00  0.00    -0.306 N 
HETATM   31  N   UNL     1     -47.662  63.874 -47.360  1.00  0.00    -0.307 N 
HETATM   32  C   UNL     1     -46.963  62.958 -49.579  1.00  0.00     0.034 A 
HETATM   33  C   UNL     1     -47.415  63.489 -46.033  1.00  0.00     0.325 A 
HETATM   34  H   UNL     1     -48.209  64.678 -47.615  1.00  0.00     0.170 HD
HETATM   35  O   UNL     1     -47.817  64.049 -45.029  1.00  0.00    -0.247 OA
HETATM   36  C   UNL     1     -46.210  61.926 -50.156  1.00  0.00     0.032 A 
HETATM   37  H   UNL     1     -46.276  61.846 -45.281  1.00  0.00     0.170 HD
ENDBRANCH  23  26
ENDBRANCH  21  22
ENDBRANCH   1  21
TORSDOF 7
ENDMDL
MODEL 7
REMARK VINA RESULT:      -8.4     14.929     16.624
REMARK  7 active torsions:
REMARK  status: ('A' for Active; 'I' for Inactive)
REMARK    1  A    between atoms: C_2  and  C_3 
REMARK    2  A    between atoms: C_8  and  N_9 
REMARK    3  A    between atoms: N_9  and  C_10 
REMARK    4  A    between atoms: C_10  and  C_11 
REMARK       I    between atoms: C_11  and  N_12 
REMARK    5  A    between atoms: N_12  and  C_13 
REMARK    6  A    between atoms: C_24  and  N_25 
REMARK    7  A    between atoms: N_25  and  C_26 
ROOT
HETATM    1  N   UNL     1     -36.404  41.629 -52.164  1.00  0.00    -0.282 NA
HETATM    2  H   UNL     1     -35.683  41.942 -52.818  1.00  0.00     0.128 HD
ENDROOT
BRANCH   1   3
HETATM    3  C   UNL     1     -35.787  40.657 -51.329  1.00  0.00     0.036 A 
HETATM    4  C   UNL     1     -36.422  40.069 -50.226  1.00  0.00     0.042 A 
HETATM    5  C   UNL     1     -35.776  39.094 -49.449  1.00  0.00     0.049 A 
HETATM    6  C   UNL     1     -34.479  38.706 -49.795  1.00  0.00     0.018 A 
HETATM    7  C   UNL     1     -33.834  39.282 -50.893  1.00  0.00     0.032 A 
HETATM    8  C   UNL     1     -34.466  40.246 -51.681  1.00  0.00     0.049 A 
BRANCH   5   9
HETATM    9  C   UNL     1     -36.489  38.483 -48.269  1.00  0.00     0.417 C 
HETATM   10  F   UNL     1     -35.924  38.794 -47.069  1.00  0.00    -0.166 F 
HETATM   11  F   UNL     1     -37.790  38.873 -48.182  1.00  0.00    -0.166 F 
HETATM   12  F   UNL     1     -36.510  37.122 -48.328  1.00  0.00    -0.166 F 
ENDBRANCH   5   9
BRANCH   8  13
HETATM   13  N   UNL     1     -33.836  40.908 -52.739  1.00  0.00    -0.384 N 
HETATM   14  H   UNL     1     -34.255  41.829 -52.865  1.00  0.00     0.160 HD
BRANCH  13  15
HETATM   15  C   UNL     1     -33.386  40.303 -53.995  1.00  0.00     0.081 C 
HETATM   16  C   UNL     1     -31.886  39.995 -54.033  1.00  0.00     0.025 C 
HETATM   17  C   UNL     1     -31.493  39.317 -55.346  1.00  0.00     0.002 C 
HETATM   18  C   UNL     1     -31.948  40.130 -56.555  1.00  0.00     0.000 C 
HETATM   19  C   UNL     1     -33.450  40.405 -56.518  1.00  0.00     0.002 C 
HETATM   20  C   UNL     1     -33.870  41.089 -55.219  1.00  0.00     0.025 C 
ENDBRANCH  13  15
ENDBRANCH   8  13
ENDBRANCH   1   3
BRANCH   1  21
HETATM   21  C   UNL     1     -37.631  41.277 -52.917  1.00  0.00     0.195 C 
BRANCH  21  22
HETATM   22  C   UNL     1     -37.342  40.636 -54.285  1.00  0.00     0.235 C 
HETATM   23  N   UNL     1     -37.613  41.485 -55.342  1.00  0.00    -0.326 N 
HETATM   24  H   UNL     1     -37.999  42.383 -55.055  1.00  0.00     0.169 HD
HETATM   25  O   UNL     1     -36.884  39.499 -54.358  1.00  0.00    -0.272 OA
BRANCH  23  26
HETATM   26  C   UNL     1     -37.546  41.216 -56.720  1.00  0.00     0.037 A 
HETATM   27  C   UNL     1     -38.058  40.050 -57.303  1.00  0.00     0.061 A 
HETATM   28  C   UNL     1     -37.949  39.938 -58.670  1.00  0.00     0.065 A 
HETATM   29  C   UNL     1     -37.354  40.918 -59.458  1.00  0.00     0.063 A 
HETATM   30  N   UNL     1     -38.380  38.917 -59.513  1.00  0.00    -0.306 N 
HETATM   31  N   UNL     1     -37.413  40.502 -60.783  1.00  0.00    -0.307 N 
HETATM   32  C   UNL     1     -36.834  42.069 -58.920  1.00  0.00     0.034 A 
HETATM   33  C   UNL     1     -38.056  39.256 -60.833  1.00  0.00     0.325 A 
HETATM   34  H   UNL     1     -37.075  40.990 -61.594  1.00  0.00     0.170 HD
HETATM   35  O   UNL     1     -38.288  38.600 -61.833  1.00  0.00    -0.247 OA
HETATM   36  C   UNL     1     -36.940  42.213 -57.531  1.00  0.00     0.032 A 
HETATM   37  H   UNL     1     -38.859  38.072 -59.247  1.00  0.00     0.170 HD
ENDBRANCH  23  26
ENDBRANCH  21  22
ENDBRANCH   1  21
TORSDOF 7
ENDMDL
MODEL 8
REMARK VINA RESULT:      -8.4      1.676      2.523
REMARK  7 active torsions:
REMARK  status: ('A' for Active; 'I' for Inactive)
REMARK    1  A    between atoms: C_2  and  C_3 
REMARK    2  A    between atoms: C_8  and  N_9 
REMARK    3  A    between atoms: N_9  and  C_10 
REMARK    4  A    between atoms: C_10  and  C_11 
REMARK       I    between atoms: C_11  and  N_12 
REMARK    5  A    between atoms: N_12  and  C_13 
REMARK    6  A    between atoms: C_24  and  N_25 
REMARK    7  A    between atoms: N_25  and  C_26 
ROOT
HETATM    1  N   UNL     1     -42.523  55.373 -54.750  1.00  0.00    -0.282 NA
HETATM    2  H   UNL     1     -43.272  55.831 -54.226  1.00  0.00     0.128 HD
ENDROOT
BRANCH   1   3
HETATM    3  C   UNL     1     -41.841  54.539 -53.822  1.00  0.00     0.036 A 
HETATM    4  C   UNL     1     -41.209  53.340 -54.178  1.00  0.00     0.042 A 
HETATM    5  C   UNL     1     -40.526  52.566 -53.227  1.00  0.00     0.049 A 
HETATM    6  C   UNL     1     -40.476  53.013 -51.904  1.00  0.00     0.018 A 
HETATM    7  C   UNL     1     -41.099  54.208 -51.534  1.00  0.00     0.032 A 
HETATM    8  C   UNL     1     -41.775  54.993 -52.470  1.00  0.00     0.049 A 
BRANCH   5   9
HETATM    9  C   UNL     1     -39.858  51.280 -53.645  1.00  0.00     0.417 C 
HETATM   10  F   UNL     1     -38.555  51.435 -54.009  1.00  0.00    -0.166 F 
HETATM   11  F   UNL     1     -39.862  50.342 -52.658  1.00  0.00    -0.166 F 
HETATM   12  F   UNL     1     -40.477  50.702 -54.711  1.00  0.00    -0.166 F 
ENDBRANCH   5   9
BRANCH   8  13
HETATM   13  N   UNL     1     -42.480  56.154 -52.136  1.00  0.00    -0.384 N 
HETATM   14  H   UNL     1     -43.365  56.173 -52.641  1.00  0.00     0.160 HD
BRANCH  13  15
HETATM   15  C   UNL     1     -41.908  57.485 -51.924  1.00  0.00     0.081 C 
HETATM   16  C   UNL     1     -41.025  57.589 -50.675  1.00  0.00     0.025 C 
HETATM   17  C   UNL     1     -40.417  58.985 -50.543  1.00  0.00     0.002 C 
HETATM   18  C   UNL     1     -41.490  60.071 -50.585  1.00  0.00     0.000 C 
HETATM   19  C   UNL     1     -42.343  59.972 -51.848  1.00  0.00     0.002 C 
HETATM   20  C   UNL     1     -42.969  58.587 -52.002  1.00  0.00     0.025 C 
ENDBRANCH  13  15
ENDBRANCH   8  13
ENDBRANCH   1   3
BRANCH   1  21
HETATM   21  C   UNL     1     -41.767  56.390 -55.517  1.00  0.00     0.195 C 
BRANCH  21  22
HETATM   22  C   UNL     1     -42.470  56.820 -56.816  1.00  0.00     0.235 C 
HETATM   23  N   UNL     1     -43.515  55.985 -57.162  1.00  0.00    -0.326 N 
HETATM   24  H   UNL     1     -43.630  55.193 -56.530  1.00  0.00     0.169 HD
HETATM   25  O   UNL     1     -42.113  57.833 -57.412  1.00  0.00    -0.272 OA
BRANCH  23  26
HETATM   26  C   UNL     1     -44.321  56.021 -58.312  1.00  0.00     0.037 A 
HETATM   27  C   UNL     1     -45.364  56.938 -58.494  1.00  0.00     0.061 A 
HETATM   28  C   UNL     1     -46.048  56.877 -59.686  1.00  0.00     0.065 A 
HETATM   29  C   UNL     1     -45.744  55.948 -60.677  1.00  0.00     0.063 A 
HETATM   30  N   UNL     1     -47.101  57.662 -60.146  1.00  0.00    -0.306 N 
HETATM   31  N   UNL     1     -46.609  56.158 -61.744  1.00  0.00    -0.307 N 
HETATM   32  C   UNL     1     -44.736  55.029 -60.530  1.00  0.00     0.034 A 
HETATM   33  C   UNL     1     -47.460  57.229 -61.429  1.00  0.00     0.325 A 
HETATM   34  H   UNL     1     -46.642  55.656 -62.615  1.00  0.00     0.170 HD
HETATM   35  O   UNL     1     -48.337  57.690 -62.137  1.00  0.00    -0.247 OA
HETATM   36  C   UNL     1     -44.017  55.077 -59.329  1.00  0.00     0.032 A 
HETATM   37  H   UNL     1     -47.541  58.429 -59.665  1.00  0.00     0.170 HD
ENDBRANCH  23  26
ENDBRANCH  21  22
ENDBRANCH   1  21
TORSDOF 7
ENDMDL
MODEL 9
REMARK VINA RESULT:      -8.4      4.502      8.714
REMARK  7 active torsions:
REMARK  status: ('A' for Active; 'I' for Inactive)
REMARK    1  A    between atoms: C_2  and  C_3 
REMARK    2  A    between atoms: C_8  and  N_9 
REMARK    3  A    between atoms: N_9  and  C_10 
REMARK    4  A    between atoms: C_10  and  C_11 
REMARK       I    between atoms: C_11  and  N_12 
REMARK    5  A    between atoms: N_12  and  C_13 
REMARK    6  A    between atoms: C_24  and  N_25 
REMARK    7  A    between atoms: N_25  and  C_26 
ROOT
HETATM    1  N   UNL     1     -43.655  56.643 -56.751  1.00  0.00    -0.282 NA
HETATM    2  H   UNL     1     -44.451  56.466 -57.368  1.00  0.00     0.128 HD
ENDROOT
BRANCH   1   3
HETATM    3  C   UNL     1     -43.059  57.851 -57.210  1.00  0.00     0.036 A 
HETATM    4  C   UNL     1     -42.847  58.143 -58.565  1.00  0.00     0.042 A 
HETATM    5  C   UNL     1     -42.278  59.362 -58.966  1.00  0.00     0.049 A 
HETATM    6  C   UNL     1     -41.928  60.297 -57.988  1.00  0.00     0.018 A 
HETATM    7  C   UNL     1     -42.136  60.021 -56.634  1.00  0.00     0.032 A 
HETATM    8  C   UNL     1     -42.708  58.817 -56.219  1.00  0.00     0.049 A 
BRANCH   5   9
HETATM    9  C   UNL     1     -42.062  59.642 -60.432  1.00  0.00     0.417 C 
HETATM   10  F   UNL     1     -41.340  60.772 -60.671  1.00  0.00    -0.166 F 
HETATM   11  F   UNL     1     -41.403  58.635 -61.067  1.00  0.00    -0.166 F 
HETATM   12  F   UNL     1     -43.236  59.802 -61.104  1.00  0.00    -0.166 F 
ENDBRANCH   5   9
BRANCH   8  13
HETATM   13  N   UNL     1     -42.865  58.461 -54.876  1.00  0.00    -0.384 N 
HETATM   14  H   UNL     1     -43.855  58.344 -54.666  1.00  0.00     0.160 HD
BRANCH  13  15
HETATM   15  C   UNL     1     -42.094  58.982 -53.746  1.00  0.00     0.081 C 
HETATM   16  C   UNL     1     -40.728  58.311 -53.563  1.00  0.00     0.025 C 
HETATM   17  C   UNL     1     -39.954  58.937 -52.403  1.00  0.00     0.002 C 
HETATM   18  C   UNL     1     -40.775  58.938 -51.116  1.00  0.00     0.000 C 
HETATM   19  C   UNL     1     -42.120  59.635 -51.306  1.00  0.00     0.002 C 
HETATM   20  C   UNL     1     -42.920  59.024 -52.455  1.00  0.00     0.025 C 
ENDBRANCH  13  15
ENDBRANCH   8  13
ENDBRANCH   1   3
BRANCH   1  21
HETATM   21  C   UNL     1     -42.835  55.415 -56.642  1.00  0.00     0.195 C 
BRANCH  21  22
HETATM   22  C   UNL     1     -42.848  54.796 -55.234  1.00  0.00     0.235 C 
HETATM   23  N   UNL     1     -41.641  54.937 -54.575  1.00  0.00    -0.326 N 
HETATM   24  H   UNL     1     -40.920  55.388 -55.137  1.00  0.00     0.169 HD
HETATM   25  O   UNL     1     -43.870  54.281 -54.788  1.00  0.00    -0.272 OA
BRANCH  23  26
HETATM   26  C   UNL     1     -41.265  54.431 -53.319  1.00  0.00     0.037 A 
HETATM   27  C   UNL     1     -41.590  55.055 -52.109  1.00  0.00     0.061 A 
HETATM   28  C   UNL     1     -41.182  54.428 -50.954  1.00  0.00     0.065 A 
HETATM   29  C   UNL     1     -40.469  53.232 -50.963  1.00  0.00     0.063 A 
HETATM   30  N   UNL     1     -41.378  54.798 -49.626  1.00  0.00    -0.306 N 
HETATM   31  N   UNL     1     -40.222  52.868 -49.645  1.00  0.00    -0.307 N 
HETATM   32  C   UNL     1     -40.126  52.598 -52.130  1.00  0.00     0.034 A 
HETATM   33  C   UNL     1     -40.787  53.834 -48.798  1.00  0.00     0.325 A 
HETATM   34  H   UNL     1     -39.735  52.052 -49.315  1.00  0.00     0.170 HD
HETATM   35  O   UNL     1     -40.769  53.830 -47.580  1.00  0.00    -0.247 OA
HETATM   36  C   UNL     1     -40.538  53.211 -53.320  1.00  0.00     0.032 A 
HETATM   37  H   UNL     1     -41.868  55.609 -49.289  1.00  0.00     0.170 HD
ENDBRANCH  23  26
ENDBRANCH  21  22
ENDBRANCH   1  21
TORSDOF 7
ENDMDL
MODEL 10
REMARK VINA RESULT:      -8.1      4.307      6.198
REMARK  7 active torsions:
REMARK  status: ('A' for Active; 'I' for Inactive)
REMARK    1  A    between atoms: C_2  and  C_3 
REMARK    2  A    between atoms: C_8  and  N_9 
REMARK    3  A    between atoms: N_9  and  C_10 
REMARK    4  A    between atoms: C_10  and  C_11 
REMARK       I    between atoms: C_11  and  N_12 
REMARK    5  A    between atoms: N_12  and  C_13 
REMARK    6  A    between atoms: C_24  and  N_25 
REMARK    7  A    between atoms: N_25  and  C_26 
ROOT
HETATM    1  N   UNL     1     -41.813  58.546 -54.487  1.00  0.00    -0.282 NA
HETATM    2  H   UNL     1     -41.870  57.651 -54.978  1.00  0.00     0.128 HD
ENDROOT
BRANCH   1   3
HETATM    3  C   UNL     1     -42.688  58.443 -53.370  1.00  0.00     0.036 A 
HETATM    4  C   UNL     1     -42.923  59.493 -52.472  1.00  0.00     0.042 A 
HETATM    5  C   UNL     1     -43.818  59.347 -51.399  1.00  0.00     0.049 A 
HETATM    6  C   UNL     1     -44.484  58.129 -51.238  1.00  0.00     0.018 A 
HETATM    7  C   UNL     1     -44.261  57.074 -52.127  1.00  0.00     0.032 A 
HETATM    8  C   UNL     1     -43.381  57.206 -53.203  1.00  0.00     0.049 A 
BRANCH   5   9
HETATM    9  C   UNL     1     -44.047  60.497 -50.452  1.00  0.00     0.417 C 
HETATM   10  F   UNL     1     -42.975  60.773 -49.658  1.00  0.00    -0.166 F 
HETATM   11  F   UNL     1     -44.342  61.658 -51.098  1.00  0.00    -0.166 F 
HETATM   12  F   UNL     1     -45.088  60.267 -49.605  1.00  0.00    -0.166 F 
ENDBRANCH   5   9
BRANCH   8  13
HETATM   13  N   UNL     1     -43.065  56.158 -54.072  1.00  0.00    -0.384 N 
HETATM   14  H   UNL     1     -43.920  55.691 -54.371  1.00  0.00     0.160 HD
BRANCH  13  15
HETATM   15  C   UNL     1     -41.922  55.249 -53.954  1.00  0.00     0.081 C 
HETATM   16  C   UNL     1     -41.337  54.810 -55.301  1.00  0.00     0.025 C 
HETATM   17  C   UNL     1     -40.117  53.909 -55.107  1.00  0.00     0.002 C 
HETATM   18  C   UNL     1     -40.434  52.723 -54.199  1.00  0.00     0.000 C 
HETATM   19  C   UNL     1     -40.988  53.178 -52.850  1.00  0.00     0.002 C 
HETATM   20  C   UNL     1     -42.214  54.075 -53.014  1.00  0.00     0.025 C 
ENDBRANCH  13  15
ENDBRANCH   8  13
ENDBRANCH   1   3
BRANCH   1  21
HETATM   21  C   UNL     1     -41.990  59.651 -55.458  1.00  0.00     0.195 C 
BRANCH  21  22
HETATM   22  C   UNL     1     -42.394  59.169 -56.861  1.00  0.00     0.235 C 
HETATM   23  N   UNL     1     -43.491  58.327 -56.843  1.00  0.00    -0.326 N 
HETATM   24  H   UNL     1     -43.833  58.123 -55.905  1.00  0.00     0.169 HD
HETATM   25  O   UNL     1     -41.788  59.561 -57.855  1.00  0.00    -0.272 OA
BRANCH  23  26
HETATM   26  C   UNL     1     -44.083  57.639 -57.915  1.00  0.00     0.037 A 
HETATM   27  C   UNL     1     -45.327  57.984 -58.459  1.00  0.00     0.061 A 
HETATM   28  C   UNL     1     -45.768  57.239 -59.529  1.00  0.00     0.065 A 
HETATM   29  C   UNL     1     -45.036  56.180 -60.058  1.00  0.00     0.063 A 
HETATM   30  N   UNL     1     -46.937  57.364 -60.275  1.00  0.00    -0.306 N 
HETATM   31  N   UNL     1     -45.752  55.651 -61.124  1.00  0.00    -0.307 N 
HETATM   32  C   UNL     1     -43.819  55.809 -59.545  1.00  0.00     0.034 A 
HETATM   33  C   UNL     1     -46.940  56.382 -61.275  1.00  0.00     0.325 A 
HETATM   34  H   UNL     1     -45.490  54.882 -61.718  1.00  0.00     0.170 HD
HETATM   35  O   UNL     1     -47.803  56.199 -62.115  1.00  0.00    -0.247 OA
HETATM   36  C   UNL     1     -43.342  56.557 -58.461  1.00  0.00     0.032 A 
HETATM   37  H   UNL     1     -47.669  58.043 -60.147  1.00  0.00     0.170 HD
ENDBRANCH  23  26
ENDBRANCH  21  22
ENDBRANCH   1  21
TORSDOF 7
ENDMDL
