MODEL 1
REMARK VINA RESULT:      -8.4      0.000      0.000
REMARK  7 active torsions:
REMARK  status: ('A' for Active; 'I' for Inactive)
REMARK    1  A    between atoms: C_4  and  N_5 
REMARK    2  A    between atoms: C_6  and  S_7 
REMARK    3  A    between atoms: S_7  and  C_8 
REMARK    4  A    between atoms: C_8  and  C_9 
REMARK       I    between atoms: C_9  and  N_10 
REMARK    5  A    between atoms: C_12  and  C_13 
REMARK    6  A    between atoms: C_13  and  N_14 
REMARK       I    between atoms: N_14  and  C_15 
REMARK       I    between atoms: C_15  and  N_16 
REMARK    7  A    between atoms: N_16  and  C_17 
ROOT
HETATM    1  C   UNL     1     -44.745  58.780 -54.318  1.00  0.00     0.229 C 
HETATM    2  N   UNL     1     -43.639  58.948 -53.463  1.00  0.00    -0.351 N 
HETATM    3  C   UNL     1     -43.014  57.704 -53.004  1.00  0.00     0.132 C 
HETATM    4  C   UNL     1     -41.593  57.928 -52.481  1.00  0.00     0.021 C 
HETATM    5  C   UNL     1     -41.644  58.945 -51.336  1.00  0.00     0.009 C 
HETATM    6  C   UNL     1     -42.202  60.259 -51.863  1.00  0.00     0.020 C 
HETATM    7  C   UNL     1     -43.554  60.089 -52.550  1.00  0.00     0.126 C 
HETATM    8  O   UNL     1     -45.142  57.645 -54.609  1.00  0.00    -0.273 OA
ENDROOT
BRANCH   1   9
HETATM    9  C   UNL     1     -45.308  59.984 -55.064  1.00  0.00     0.185 C 
BRANCH   9  10
HETATM   10  S   UNL     1     -45.424  59.870 -56.856  1.00  0.00    -0.082 SA
BRANCH  10  11
HETATM   11  C   UNL     1     -43.816  60.221 -57.390  1.00  0.00     0.173 A 
HETATM   12  N   UNL     1     -42.871  59.254 -57.728  1.00  0.00    -0.299 N 
HETATM   13  C   UNL     1     -41.719  59.968 -58.002  1.00  0.00     0.118 A 
HETATM   14  C   UNL     1     -42.024  61.293 -57.812  1.00  0.00     0.137 A 
HETATM   15  N   UNL     1     -43.326  61.439 -57.433  1.00  0.00    -0.235 NA
BRANCH  12  16
HETATM   16  C   UNL     1     -43.009  57.833 -57.812  1.00  0.00     0.047 A 
HETATM   17  C   UNL     1     -42.635  57.057 -56.697  1.00  0.00     0.037 A 
HETATM   18  C   UNL     1     -42.725  55.659 -56.717  1.00  0.00    -0.060 A 
HETATM   19  C   UNL     1     -42.283  54.840 -55.539  1.00  0.00     0.048 C 
HETATM   20  C   UNL     1     -43.234  55.032 -57.852  1.00  0.00     0.007 A 
HETATM   21  C   UNL     1     -43.633  55.789 -58.955  1.00  0.00     0.009 A 
HETATM   22  C   UNL     1     -43.511  57.192 -58.965  1.00  0.00    -0.035 A 
HETATM   23  C   UNL     1     -43.896  57.896 -60.239  1.00  0.00     0.050 C 
ENDBRANCH  12  16
ENDBRANCH  10  11
ENDBRANCH   9  10
ENDBRANCH   1   9
BRANCH   4  24
HETATM   24  C   UNL     1     -40.949  56.608 -52.049  1.00  0.00     0.130 C 
BRANCH  24  25
HETATM   25  N   UNL     1     -41.946  55.573 -51.836  1.00  0.00    -0.342 N 
HETATM   26  C   UNL     1     -41.841  54.217 -51.924  1.00  0.00     0.320 C 
HETATM   27  N   UNL     1     -40.635  53.742 -52.358  1.00  0.00    -0.309 N 
HETATM   28  O   UNL     1     -42.822  53.553 -51.608  1.00  0.00    -0.247 OA
HETATM   29  H   UNL     1     -39.927  54.430 -52.543  1.00  0.00     0.170 HD
HETATM   30  H   UNL     1     -42.836  55.838 -51.427  1.00  0.00     0.164 HD
BRANCH  27  31
HETATM   31  C   UNL     1     -40.260  52.396 -52.555  1.00  0.00     0.039 A 
HETATM   32  C   UNL     1     -40.248  51.762 -53.798  1.00  0.00     0.071 A 
HETATM   33  C   UNL     1     -39.859  50.428 -53.891  1.00  0.00     0.118 A 
HETATM   34  F   UNL     1     -39.852  49.825 -55.087  1.00  0.00    -0.206 F 
HETATM   35  C   UNL     1     -39.477  49.706 -52.766  1.00  0.00     0.042 A 
HETATM   36  C   UNL     1     -39.485  50.328 -51.522  1.00  0.00     0.005 A 
HETATM   37  C   UNL     1     -39.875  51.667 -51.419  1.00  0.00     0.030 A 
ENDBRANCH  27  31
ENDBRANCH  24  25
ENDBRANCH   4  24
TORSDOF 7
ENDMDL
MODEL 2
REMARK VINA RESULT:      -8.3      2.244      5.204
REMARK  7 active torsions:
REMARK  status: ('A' for Active; 'I' for Inactive)
REMARK    1  A    between atoms: C_4  and  N_5 
REMARK    2  A    between atoms: C_6  and  S_7 
REMARK    3  A    between atoms: S_7  and  C_8 
REMARK    4  A    between atoms: C_8  and  C_9 
REMARK       I    between atoms: C_9  and  N_10 
REMARK    5  A    between atoms: C_12  and  C_13 
REMARK    6  A    between atoms: C_13  and  N_14 
REMARK       I    between atoms: N_14  and  C_15 
REMARK       I    between atoms: C_15  and  N_16 
REMARK    7  A    between atoms: N_16  and  C_17 
ROOT
HETATM    1  C   UNL     1     -42.559  60.063 -55.120  1.00  0.00     0.229 C 
HETATM    2  N   UNL     1     -43.193  59.072 -55.893  1.00  0.00    -0.351 N 
HETATM    3  C   UNL     1     -42.545  57.757 -55.871  1.00  0.00     0.132 C 
HETATM    4  C   UNL     1     -43.486  56.639 -56.323  1.00  0.00     0.021 C 
HETATM    5  C   UNL     1     -43.985  56.956 -57.737  1.00  0.00     0.009 C 
HETATM    6  C   UNL     1     -44.741  58.275 -57.713  1.00  0.00     0.020 C 
HETATM    7  C   UNL     1     -43.918  59.414 -57.118  1.00  0.00     0.126 C 
HETATM    8  O   UNL     1     -41.515  59.805 -54.509  1.00  0.00    -0.273 OA
ENDROOT
BRANCH   1   9
HETATM    9  C   UNL     1     -43.276  61.382 -54.855  1.00  0.00     0.185 C 
BRANCH   9  10
HETATM   10  S   UNL     1     -43.034  62.149 -53.244  1.00  0.00    -0.082 SA
BRANCH  10  11
HETATM   11  C   UNL     1     -44.271  61.438 -52.266  1.00  0.00     0.173 A 
HETATM   12  N   UNL     1     -44.144  60.223 -51.596  1.00  0.00    -0.299 N 
HETATM   13  C   UNL     1     -45.384  60.003 -51.027  1.00  0.00     0.118 A 
HETATM   14  C   UNL     1     -46.174  61.068 -51.383  1.00  0.00     0.137 A 
HETATM   15  N   UNL     1     -45.474  61.952 -52.150  1.00  0.00    -0.235 NA
BRANCH  12  16
HETATM   16  C   UNL     1     -43.007  59.366 -51.471  1.00  0.00     0.047 A 
HETATM   17  C   UNL     1     -41.830  59.892 -50.902  1.00  0.00     0.037 A 
HETATM   18  C   UNL     1     -40.672  59.115 -50.768  1.00  0.00    -0.060 A 
HETATM   19  C   UNL     1     -39.411  59.699 -50.200  1.00  0.00     0.048 C 
HETATM   20  C   UNL     1     -40.704  57.782 -51.170  1.00  0.00     0.007 A 
HETATM   21  C   UNL     1     -41.870  57.238 -51.711  1.00  0.00     0.009 A 
HETATM   22  C   UNL     1     -43.029  58.018 -51.891  1.00  0.00    -0.035 A 
HETATM   23  C   UNL     1     -44.199  57.348 -52.560  1.00  0.00     0.050 C 
ENDBRANCH  12  16
ENDBRANCH  10  11
ENDBRANCH   9  10
ENDBRANCH   1   9
BRANCH   4  24
HETATM   24  C   UNL     1     -42.798  55.273 -56.249  1.00  0.00     0.130 C 
BRANCH  24  25
HETATM   25  N   UNL     1     -41.389  55.405 -55.918  1.00  0.00    -0.342 N 
HETATM   26  C   UNL     1     -40.590  54.619 -55.142  1.00  0.00     0.320 C 
HETATM   27  N   UNL     1     -41.214  53.586 -54.501  1.00  0.00    -0.309 N 
HETATM   28  O   UNL     1     -39.398  54.903 -55.089  1.00  0.00    -0.247 OA
HETATM   29  H   UNL     1     -42.197  53.479 -54.684  1.00  0.00     0.170 HD
HETATM   30  H   UNL     1     -40.837  56.090 -56.422  1.00  0.00     0.164 HD
BRANCH  27  31
HETATM   31  C   UNL     1     -40.637  52.637 -53.631  1.00  0.00     0.039 A 
HETATM   32  C   UNL     1     -40.191  51.378 -54.034  1.00  0.00     0.071 A 
HETATM   33  C   UNL     1     -39.633  50.510 -53.099  1.00  0.00     0.118 A 
HETATM   34  F   UNL     1     -39.208  49.301 -53.492  1.00  0.00    -0.206 F 
HETATM   35  C   UNL     1     -39.505  50.871 -51.763  1.00  0.00     0.042 A 
HETATM   36  C   UNL     1     -39.946  52.123 -51.350  1.00  0.00     0.005 A 
HETATM   37  C   UNL     1     -40.509  53.001 -52.282  1.00  0.00     0.030 A 
ENDBRANCH  27  31
ENDBRANCH  24  25
ENDBRANCH   4  24
TORSDOF 7
ENDMDL
MODEL 3
REMARK VINA RESULT:      -8.3      2.002      3.127
REMARK  7 active torsions:
REMARK  status: ('A' for Active; 'I' for Inactive)
REMARK    1  A    between atoms: C_4  and  N_5 
REMARK    2  A    between atoms: C_6  and  S_7 
REMARK    3  A    between atoms: S_7  and  C_8 
REMARK    4  A    between atoms: C_8  and  C_9 
REMARK       I    between atoms: C_9  and  N_10 
REMARK    5  A    between atoms: C_12  and  C_13 
REMARK    6  A    between atoms: C_13  and  N_14 
REMARK       I    between atoms: N_14  and  C_15 
REMARK       I    between atoms: C_15  and  N_16 
REMARK    7  A    between atoms: N_16  and  C_17 
ROOT
HETATM    1  C   UNL     1     -43.120  59.932 -55.802  1.00  0.00     0.229 C 
HETATM    2  N   UNL     1     -42.756  58.591 -55.581  1.00  0.00    -0.351 N 
HETATM    3  C   UNL     1     -41.943  58.356 -54.384  1.00  0.00     0.132 C 
HETATM    4  C   UNL     1     -41.967  56.890 -53.945  1.00  0.00     0.021 C 
HETATM    5  C   UNL     1     -41.461  56.022 -55.102  1.00  0.00     0.009 C 
HETATM    6  C   UNL     1     -42.380  56.206 -56.300  1.00  0.00     0.020 C 
HETATM    7  C   UNL     1     -42.539  57.670 -56.699  1.00  0.00     0.126 C 
HETATM    8  O   UNL     1     -42.734  60.819 -55.032  1.00  0.00    -0.273 OA
ENDROOT
BRANCH   1   9
HETATM    9  C   UNL     1     -44.172  60.262 -56.855  1.00  0.00     0.185 C 
BRANCH   9  10
HETATM   10  S   UNL     1     -45.675  59.272 -56.866  1.00  0.00    -0.082 SA
BRANCH  10  11
HETATM   11  C   UNL     1     -46.321  59.531 -58.449  1.00  0.00     0.173 A 
HETATM   12  N   UNL     1     -45.810  58.956 -59.611  1.00  0.00    -0.299 N 
HETATM   13  C   UNL     1     -46.561  59.502 -60.635  1.00  0.00     0.118 A 
HETATM   14  C   UNL     1     -47.457  60.361 -60.048  1.00  0.00     0.137 A 
HETATM   15  N   UNL     1     -47.301  60.371 -58.694  1.00  0.00    -0.235 NA
BRANCH  12  16
HETATM   16  C   UNL     1     -44.762  57.996 -59.769  1.00  0.00     0.047 A 
HETATM   17  C   UNL     1     -45.068  56.633 -59.582  1.00  0.00     0.037 A 
HETATM   18  C   UNL     1     -44.087  55.641 -59.700  1.00  0.00    -0.060 A 
HETATM   19  C   UNL     1     -44.415  54.197 -59.457  1.00  0.00     0.048 C 
HETATM   20  C   UNL     1     -42.791  56.013 -60.050  1.00  0.00     0.007 A 
HETATM   21  C   UNL     1     -42.477  57.356 -60.264  1.00  0.00     0.009 A 
HETATM   22  C   UNL     1     -43.443  58.368 -60.109  1.00  0.00    -0.035 A 
HETATM   23  C   UNL     1     -42.971  59.787 -60.284  1.00  0.00     0.050 C 
ENDBRANCH  12  16
ENDBRANCH  10  11
ENDBRANCH   9  10
ENDBRANCH   1   9
BRANCH   4  24
HETATM   24  C   UNL     1     -41.147  56.683 -52.669  1.00  0.00     0.130 C 
BRANCH  24  25
HETATM   25  N   UNL     1     -41.764  55.702 -51.793  1.00  0.00    -0.342 N 
HETATM   26  C   UNL     1     -41.549  54.361 -51.683  1.00  0.00     0.320 C 
HETATM   27  N   UNL     1     -40.677  53.823 -52.587  1.00  0.00    -0.309 N 
HETATM   28  O   UNL     1     -42.147  53.764 -50.794  1.00  0.00    -0.247 OA
HETATM   29  H   UNL     1     -40.249  54.467 -53.229  1.00  0.00     0.170 HD
HETATM   30  H   UNL     1     -42.352  56.034 -51.036  1.00  0.00     0.164 HD
BRANCH  27  31
HETATM   31  C   UNL     1     -40.288  52.472 -52.711  1.00  0.00     0.039 A 
HETATM   32  C   UNL     1     -39.780  51.706 -51.661  1.00  0.00     0.071 A 
HETATM   33  C   UNL     1     -39.424  50.378 -51.882  1.00  0.00     0.118 A 
HETATM   34  F   UNL     1     -38.935  49.649 -50.870  1.00  0.00    -0.206 F 
HETATM   35  C   UNL     1     -39.567  49.790 -53.133  1.00  0.00     0.042 A 
HETATM   36  C   UNL     1     -40.073  50.543 -54.187  1.00  0.00     0.005 A 
HETATM   37  C   UNL     1     -40.432  51.878 -53.974  1.00  0.00     0.030 A 
ENDBRANCH  27  31
ENDBRANCH  24  25
ENDBRANCH   4  24
TORSDOF 7
ENDMDL
MODEL 4
REMARK VINA RESULT:      -8.3      2.775      4.445
REMARK  7 active torsions:
REMARK  status: ('A' for Active; 'I' for Inactive)
REMARK    1  A    between atoms: C_4  and  N_5 
REMARK    2  A    between atoms: C_6  and  S_7 
REMARK    3  A    between atoms: S_7  and  C_8 
REMARK    4  A    between atoms: C_8  and  C_9 
REMARK       I    between atoms: C_9  and  N_10 
REMARK    5  A    between atoms: C_12  and  C_13 
REMARK    6  A    between atoms: C_13  and  N_14 
REMARK       I    between atoms: N_14  and  C_15 
REMARK       I    between atoms: C_15  and  N_16 
REMARK    7  A    between atoms: N_16  and  C_17 
ROOT
HETATM    1  C   UNL     1     -42.499  57.294 -57.723  1.00  0.00     0.229 C 
HETATM    2  N   UNL     1     -42.284  58.088 -56.581  1.00  0.00    -0.351 N 
HETATM    3  C   UNL     1     -42.430  57.388 -55.301  1.00  0.00     0.132 C 
HETATM    4  C   UNL     1     -41.756  58.137 -54.150  1.00  0.00     0.021 C 
HETATM    5  C   UNL     1     -42.363  59.541 -54.053  1.00  0.00     0.009 C 
HETATM    6  C   UNL     1     -42.110  60.283 -55.357  1.00  0.00     0.020 C 
HETATM    7  C   UNL     1     -42.611  59.515 -56.577  1.00  0.00     0.126 C 
HETATM    8  O   UNL     1     -42.816  56.104 -57.606  1.00  0.00    -0.273 OA
ENDROOT
BRANCH   1   9
HETATM    9  C   UNL     1     -42.122  57.837 -59.097  1.00  0.00     0.185 C 
BRANCH   9  10
HETATM   10  S   UNL     1     -43.450  58.471 -60.132  1.00  0.00    -0.082 SA
BRANCH  10  11
HETATM   11  C   UNL     1     -44.477  57.098 -60.362  1.00  0.00     0.173 A 
HETATM   12  N   UNL     1     -45.847  57.089 -60.111  1.00  0.00    -0.299 N 
HETATM   13  C   UNL     1     -46.239  55.783 -60.337  1.00  0.00     0.118 A 
HETATM   14  C   UNL     1     -45.109  55.092 -60.698  1.00  0.00     0.137 A 
HETATM   15  N   UNL     1     -44.023  55.916 -60.711  1.00  0.00    -0.235 NA
BRANCH  12  16
HETATM   16  C   UNL     1     -46.710  58.162 -59.725  1.00  0.00     0.047 A 
HETATM   17  C   UNL     1     -47.458  58.814 -60.725  1.00  0.00     0.037 A 
HETATM   18  C   UNL     1     -48.307  59.885 -60.422  1.00  0.00    -0.060 A 
HETATM   19  C   UNL     1     -49.066  60.600 -61.502  1.00  0.00     0.048 C 
HETATM   20  C   UNL     1     -48.442  60.284 -59.094  1.00  0.00     0.007 A 
HETATM   21  C   UNL     1     -47.728  59.632 -58.088  1.00  0.00     0.009 A 
HETATM   22  C   UNL     1     -46.839  58.580 -58.382  1.00  0.00    -0.035 A 
HETATM   23  C   UNL     1     -46.062  58.006 -57.227  1.00  0.00     0.050 C 
ENDBRANCH  12  16
ENDBRANCH  10  11
ENDBRANCH   9  10
ENDBRANCH   1   9
BRANCH   4  24
HETATM   24  C   UNL     1     -41.886  57.363 -52.835  1.00  0.00     0.130 C 
BRANCH  24  25
HETATM   25  N   UNL     1     -42.780  56.226 -52.973  1.00  0.00    -0.342 N 
HETATM   26  C   UNL     1     -42.511  54.890 -52.974  1.00  0.00     0.320 C 
HETATM   27  N   UNL     1     -41.188  54.550 -52.919  1.00  0.00    -0.309 N 
HETATM   28  O   UNL     1     -43.465  54.121 -53.022  1.00  0.00    -0.247 OA
HETATM   29  H   UNL     1     -40.536  55.312 -52.850  1.00  0.00     0.170 HD
HETATM   30  H   UNL     1     -43.780  56.390 -52.928  1.00  0.00     0.164 HD
BRANCH  27  31
HETATM   31  C   UNL     1     -40.631  53.254 -52.923  1.00  0.00     0.039 A 
HETATM   32  C   UNL     1     -40.525  52.452 -54.059  1.00  0.00     0.071 A 
HETATM   33  C   UNL     1     -39.956  51.184 -53.962  1.00  0.00     0.118 A 
HETATM   34  F   UNL     1     -39.859  50.419 -55.057  1.00  0.00    -0.206 F 
HETATM   35  C   UNL     1     -39.484  50.695 -52.749  1.00  0.00     0.042 A 
HETATM   36  C   UNL     1     -39.584  51.485 -51.610  1.00  0.00     0.005 A 
HETATM   37  C   UNL     1     -40.155  52.759 -51.698  1.00  0.00     0.030 A 
ENDBRANCH  27  31
ENDBRANCH  24  25
ENDBRANCH   4  24
TORSDOF 7
ENDMDL
MODEL 5
REMARK VINA RESULT:      -8.3      2.990      7.088
REMARK  7 active torsions:
REMARK  status: ('A' for Active; 'I' for Inactive)
REMARK    1  A    between atoms: C_4  and  N_5 
REMARK    2  A    between atoms: C_6  and  S_7 
REMARK    3  A    between atoms: S_7  and  C_8 
REMARK    4  A    between atoms: C_8  and  C_9 
REMARK       I    between atoms: C_9  and  N_10 
REMARK    5  A    between atoms: C_12  and  C_13 
REMARK    6  A    between atoms: C_13  and  N_14 
REMARK       I    between atoms: N_14  and  C_15 
REMARK       I    between atoms: C_15  and  N_16 
REMARK    7  A    between atoms: N_16  and  C_17 
ROOT
HETATM    1  C   UNL     1     -41.937  59.866 -54.142  1.00  0.00     0.229 C 
HETATM    2  N   UNL     1     -43.271  60.289 -53.990  1.00  0.00    -0.351 N 
HETATM    3  C   UNL     1     -43.946  60.675 -55.233  1.00  0.00     0.132 C 
HETATM    4  C   UNL     1     -45.469  60.677 -55.088  1.00  0.00     0.021 C 
HETATM    5  C   UNL     1     -45.856  61.639 -53.960  1.00  0.00     0.009 C 
HETATM    6  C   UNL     1     -45.225  61.159 -52.661  1.00  0.00     0.020 C 
HETATM    7  C   UNL     1     -43.715  60.974 -52.775  1.00  0.00     0.126 C 
HETATM    8  O   UNL     1     -41.405  59.866 -55.259  1.00  0.00    -0.273 OA
ENDROOT
BRANCH   1   9
HETATM    9  C   UNL     1     -41.222  59.197 -52.974  1.00  0.00     0.185 C 
BRANCH   9  10
HETATM   10  S   UNL     1     -40.923  57.426 -53.088  1.00  0.00    -0.082 SA
BRANCH  10  11
HETATM   11  C   UNL     1     -42.206  56.737 -52.154  1.00  0.00     0.173 A 
HETATM   12  N   UNL     1     -42.528  55.381 -52.139  1.00  0.00    -0.299 N 
HETATM   13  C   UNL     1     -43.656  55.295 -51.345  1.00  0.00     0.118 A 
HETATM   14  C   UNL     1     -43.948  56.574 -50.940  1.00  0.00     0.137 A 
HETATM   15  N   UNL     1     -43.044  57.459 -51.446  1.00  0.00    -0.235 NA
BRANCH  12  16
HETATM   16  C   UNL     1     -41.866  54.280 -52.766  1.00  0.00     0.047 A 
HETATM   17  C   UNL     1     -40.924  53.548 -52.015  1.00  0.00     0.037 A 
HETATM   18  C   UNL     1     -40.223  52.471 -52.572  1.00  0.00    -0.060 A 
HETATM   19  C   UNL     1     -39.192  51.726 -51.776  1.00  0.00     0.048 C 
HETATM   20  C   UNL     1     -40.498  52.094 -53.885  1.00  0.00     0.007 A 
HETATM   21  C   UNL     1     -41.446  52.793 -54.634  1.00  0.00     0.009 A 
HETATM   22  C   UNL     1     -42.129  53.903 -54.102  1.00  0.00    -0.035 A 
HETATM   23  C   UNL     1     -43.068  54.628 -55.028  1.00  0.00     0.050 C 
ENDBRANCH  12  16
ENDBRANCH  10  11
ENDBRANCH   9  10
ENDBRANCH   1   9
BRANCH   4  24
HETATM   24  C   UNL     1     -46.149  61.041 -56.412  1.00  0.00     0.130 C 
BRANCH  24  25
HETATM   25  N   UNL     1     -47.008  59.967 -56.882  1.00  0.00    -0.342 N 
HETATM   26  C   UNL     1     -46.695  58.808 -57.526  1.00  0.00     0.320 C 
HETATM   27  N   UNL     1     -45.380  58.651 -57.863  1.00  0.00    -0.309 N 
HETATM   28  O   UNL     1     -47.608  58.017 -57.742  1.00  0.00    -0.247 OA
HETATM   29  H   UNL     1     -44.758  59.387 -57.579  1.00  0.00     0.170 HD
HETATM   30  H   UNL     1     -47.980  59.965 -56.592  1.00  0.00     0.164 HD
BRANCH  27  31
HETATM   31  C   UNL     1     -44.788  57.566 -58.543  1.00  0.00     0.039 A 
HETATM   32  C   UNL     1     -45.234  57.076 -59.771  1.00  0.00     0.071 A 
HETATM   33  C   UNL     1     -44.580  55.999 -60.365  1.00  0.00     0.118 A 
HETATM   34  F   UNL     1     -45.015  55.533 -61.544  1.00  0.00    -0.206 F 
HETATM   35  C   UNL     1     -43.484  55.396 -59.761  1.00  0.00     0.042 A 
HETATM   36  C   UNL     1     -43.030  55.876 -58.537  1.00  0.00     0.005 A 
HETATM   37  C   UNL     1     -43.681  56.957 -57.932  1.00  0.00     0.030 A 
ENDBRANCH  27  31
ENDBRANCH  24  25
ENDBRANCH   4  24
TORSDOF 7
ENDMDL
MODEL 6
REMARK VINA RESULT:      -8.1      1.388      2.072
REMARK  7 active torsions:
REMARK  status: ('A' for Active; 'I' for Inactive)
REMARK    1  A    between atoms: C_4  and  N_5 
REMARK    2  A    between atoms: C_6  and  S_7 
REMARK    3  A    between atoms: S_7  and  C_8 
REMARK    4  A    between atoms: C_8  and  C_9 
REMARK       I    between atoms: C_9  and  N_10 
REMARK    5  A    between atoms: C_12  and  C_13 
REMARK    6  A    between atoms: C_13  and  N_14 
REMARK       I    between atoms: N_14  and  C_15 
REMARK       I    between atoms: C_15  and  N_16 
REMARK    7  A    between atoms: N_16  and  C_17 
ROOT
HETATM    1  C   UNL     1     -44.341  59.695 -53.176  1.00  0.00     0.229 C 
HETATM    2  N   UNL     1     -43.156  59.075 -52.735  1.00  0.00    -0.351 N 
HETATM    3  C   UNL     1     -43.334  58.072 -51.681  1.00  0.00     0.132 C 
HETATM    4  C   UNL     1     -42.134  57.129 -51.569  1.00  0.00     0.021 C 
HETATM    5  C   UNL     1     -40.877  57.962 -51.295  1.00  0.00     0.009 C 
HETATM    6  C   UNL     1     -40.658  58.924 -52.453  1.00  0.00     0.020 C 
HETATM    7  C   UNL     1     -41.880  59.793 -52.734  1.00  0.00     0.126 C 
HETATM    8  O   UNL     1     -45.427  59.404 -52.660  1.00  0.00    -0.273 OA
ENDROOT
BRANCH   1   9
HETATM    9  C   UNL     1     -44.316  60.552 -54.436  1.00  0.00     0.185 C 
BRANCH   9  10
HETATM   10  S   UNL     1     -44.711  59.746 -55.996  1.00  0.00    -0.082 SA
BRANCH  10  11
HETATM   11  C   UNL     1     -43.331  60.079 -56.985  1.00  0.00     0.173 A 
HETATM   12  N   UNL     1     -42.651  59.122 -57.735  1.00  0.00    -0.299 N 
HETATM   13  C   UNL     1     -41.579  59.800 -58.285  1.00  0.00     0.118 A 
HETATM   14  C   UNL     1     -41.668  61.097 -57.841  1.00  0.00     0.137 A 
HETATM   15  N   UNL     1     -42.757  61.259 -57.038  1.00  0.00    -0.235 NA
BRANCH  12  16
HETATM   16  C   UNL     1     -42.957  57.740 -57.943  1.00  0.00     0.047 A 
HETATM   17  C   UNL     1     -43.544  57.361 -59.167  1.00  0.00     0.037 A 
HETATM   18  C   UNL     1     -43.888  56.029 -59.430  1.00  0.00    -0.060 A 
HETATM   19  C   UNL     1     -44.552  55.644 -60.720  1.00  0.00     0.048 C 
HETATM   20  C   UNL     1     -43.604  55.058 -58.474  1.00  0.00     0.007 A 
HETATM   21  C   UNL     1     -43.000  55.413 -57.267  1.00  0.00     0.009 A 
HETATM   22  C   UNL     1     -42.685  56.753 -56.971  1.00  0.00    -0.035 A 
HETATM   23  C   UNL     1     -42.111  57.029 -55.606  1.00  0.00     0.050 C 
ENDBRANCH  12  16
ENDBRANCH  10  11
ENDBRANCH   9  10
ENDBRANCH   1   9
BRANCH   4  24
HETATM   24  C   UNL     1     -42.366  56.066 -50.491  1.00  0.00     0.130 C 
BRANCH  24  25
HETATM   25  N   UNL     1     -41.113  55.614 -49.911  1.00  0.00    -0.342 N 
HETATM   26  C   UNL     1     -40.382  54.491 -50.160  1.00  0.00     0.320 C 
HETATM   27  N   UNL     1     -40.942  53.599 -51.030  1.00  0.00    -0.309 N 
HETATM   28  O   UNL     1     -39.301  54.383 -49.591  1.00  0.00    -0.247 OA
HETATM   29  H   UNL     1     -41.824  53.864 -51.433  1.00  0.00     0.170 HD
HETATM   30  H   UNL     1     -40.591  56.259 -49.327  1.00  0.00     0.164 HD
BRANCH  27  31
HETATM   31  C   UNL     1     -40.416  52.359 -51.450  1.00  0.00     0.039 A 
HETATM   32  C   UNL     1     -40.066  52.064 -52.768  1.00  0.00     0.071 A 
HETATM   33  C   UNL     1     -39.551  50.809 -53.084  1.00  0.00     0.118 A 
HETATM   34  F   UNL     1     -39.219  50.533 -54.352  1.00  0.00    -0.206 F 
HETATM   35  C   UNL     1     -39.374  49.834 -52.109  1.00  0.00     0.042 A 
HETATM   36  C   UNL     1     -39.720  50.116 -50.792  1.00  0.00     0.005 A 
HETATM   37  C   UNL     1     -40.238  51.374 -50.466  1.00  0.00     0.030 A 
ENDBRANCH  27  31
ENDBRANCH  24  25
ENDBRANCH   4  24
TORSDOF 7
ENDMDL
MODEL 7
REMARK VINA RESULT:      -8.1      1.851      2.448
REMARK  7 active torsions:
REMARK  status: ('A' for Active; 'I' for Inactive)
REMARK    1  A    between atoms: C_4  and  N_5 
REMARK    2  A    between atoms: C_6  and  S_7 
REMARK    3  A    between atoms: S_7  and  C_8 
REMARK    4  A    between atoms: C_8  and  C_9 
REMARK       I    between atoms: C_9  and  N_10 
REMARK    5  A    between atoms: C_12  and  C_13 
REMARK    6  A    between atoms: C_13  and  N_14 
REMARK       I    between atoms: N_14  and  C_15 
REMARK       I    between atoms: C_15  and  N_16 
REMARK    7  A    between atoms: N_16  and  C_17 
ROOT
HETATM    1  C   UNL     1     -43.321  57.786 -55.171  1.00  0.00     0.229 C 
HETATM    2  N   UNL     1     -42.430  57.930 -54.091  1.00  0.00    -0.351 N 
HETATM    3  C   UNL     1     -42.794  57.186 -52.882  1.00  0.00     0.132 C 
HETATM    4  C   UNL     1     -41.606  57.003 -51.934  1.00  0.00     0.021 C 
HETATM    5  C   UNL     1     -41.060  58.384 -51.557  1.00  0.00     0.009 C 
HETATM    6  C   UNL     1     -40.596  59.096 -52.819  1.00  0.00     0.020 C 
HETATM    7  C   UNL     1     -41.686  59.174 -53.884  1.00  0.00     0.126 C 
HETATM    8  O   UNL     1     -44.340  57.094 -55.052  1.00  0.00    -0.273 OA
ENDROOT
BRANCH   1   9
HETATM    9  C   UNL     1     -42.918  58.292 -56.551  1.00  0.00     0.185 C 
BRANCH   9  10
HETATM   10  S   UNL     1     -43.784  59.734 -57.192  1.00  0.00    -0.082 SA
BRANCH  10  11
HETATM   11  C   UNL     1     -43.120  59.936 -58.776  1.00  0.00     0.173 A 
HETATM   12  N   UNL     1     -43.475  59.167 -59.883  1.00  0.00    -0.299 N 
HETATM   13  C   UNL     1     -42.644  59.603 -60.897  1.00  0.00     0.118 A 
HETATM   14  C   UNL     1     -41.848  60.583 -60.357  1.00  0.00     0.137 A 
HETATM   15  N   UNL     1     -42.151  60.782 -59.043  1.00  0.00    -0.235 NA
BRANCH  12  16
HETATM   16  C   UNL     1     -44.480  58.157 -60.006  1.00  0.00     0.047 A 
HETATM   17  C   UNL     1     -44.107  56.813 -59.804  1.00  0.00     0.037 A 
HETATM   18  C   UNL     1     -45.034  55.771 -59.929  1.00  0.00    -0.060 A 
HETATM   19  C   UNL     1     -44.616  54.340 -59.754  1.00  0.00     0.048 C 
HETATM   20  C   UNL     1     -46.361  56.080 -60.220  1.00  0.00     0.007 A 
HETATM   21  C   UNL     1     -46.751  57.408 -60.399  1.00  0.00     0.009 A 
HETATM   22  C   UNL     1     -45.823  58.463 -60.317  1.00  0.00    -0.035 A 
HETATM   23  C   UNL     1     -46.341  59.846 -60.607  1.00  0.00     0.050 C 
ENDBRANCH  12  16
ENDBRANCH  10  11
ENDBRANCH   9  10
ENDBRANCH   1   9
BRANCH   4  24
HETATM   24  C   UNL     1     -42.003  56.185 -50.702  1.00  0.00     0.130 C 
BRANCH  24  25
HETATM   25  N   UNL     1     -40.839  55.631 -50.033  1.00  0.00    -0.342 N 
HETATM   26  C   UNL     1     -40.194  54.446 -50.225  1.00  0.00     0.320 C 
HETATM   27  N   UNL     1     -40.768  53.597 -51.128  1.00  0.00    -0.309 N 
HETATM   28  O   UNL     1     -39.170  54.249 -49.579  1.00  0.00    -0.247 OA
HETATM   29  H   UNL     1     -41.593  53.934 -51.593  1.00  0.00     0.170 HD
HETATM   30  H   UNL     1     -40.304  56.234 -49.416  1.00  0.00     0.164 HD
BRANCH  27  31
HETATM   31  C   UNL     1     -40.325  52.311 -51.504  1.00  0.00     0.039 A 
HETATM   32  C   UNL     1     -40.000  51.947 -52.811  1.00  0.00     0.071 A 
HETATM   33  C   UNL     1     -39.569  50.651 -53.082  1.00  0.00     0.118 A 
HETATM   34  F   UNL     1     -39.260  50.309 -54.340  1.00  0.00    -0.206 F 
HETATM   35  C   UNL     1     -39.452  49.702 -52.074  1.00  0.00     0.042 A 
HETATM   36  C   UNL     1     -39.773  50.053 -50.767  1.00  0.00     0.005 A 
HETATM   37  C   UNL     1     -40.208  51.352 -50.485  1.00  0.00     0.030 A 
ENDBRANCH  27  31
ENDBRANCH  24  25
ENDBRANCH   4  24
TORSDOF 7
ENDMDL
MODEL 8
REMARK VINA RESULT:      -8.1      3.025      8.178
REMARK  7 active torsions:
REMARK  status: ('A' for Active; 'I' for Inactive)
REMARK    1  A    between atoms: C_4  and  N_5 
REMARK    2  A    between atoms: C_6  and  S_7 
REMARK    3  A    between atoms: S_7  and  C_8 
REMARK    4  A    between atoms: C_8  and  C_9 
REMARK       I    between atoms: C_9  and  N_10 
REMARK    5  A    between atoms: C_12  and  C_13 
REMARK    6  A    between atoms: C_13  and  N_14 
REMARK       I    between atoms: N_14  and  C_15 
REMARK       I    between atoms: C_15  and  N_16 
REMARK    7  A    between atoms: N_16  and  C_17 
ROOT
HETATM    1  C   UNL     1     -42.645  57.167 -51.958  1.00  0.00     0.229 C 
HETATM    2  N   UNL     1     -43.287  57.934 -52.949  1.00  0.00    -0.351 N 
HETATM    3  C   UNL     1     -42.405  58.465 -53.992  1.00  0.00     0.132 C 
HETATM    4  C   UNL     1     -43.175  58.877 -55.249  1.00  0.00     0.021 C 
HETATM    5  C   UNL     1     -44.223  59.926 -54.862  1.00  0.00     0.009 C 
HETATM    6  C   UNL     1     -45.186  59.318 -53.854  1.00  0.00     0.020 C 
HETATM    7  C   UNL     1     -44.474  58.733 -52.639  1.00  0.00     0.126 C 
HETATM    8  O   UNL     1     -41.419  57.006 -51.990  1.00  0.00    -0.273 OA
ENDROOT
BRANCH   1   9
HETATM    9  C   UNL     1     -43.482  56.352 -50.979  1.00  0.00     0.185 C 
BRANCH   9  10
HETATM   10  S   UNL     1     -43.230  54.570 -50.956  1.00  0.00    -0.082 SA
BRANCH  10  11
HETATM   11  C   UNL     1     -41.769  54.379 -50.049  1.00  0.00     0.173 A 
HETATM   12  N   UNL     1     -40.646  53.690 -50.502  1.00  0.00    -0.299 N 
HETATM   13  C   UNL     1     -39.766  53.708 -49.436  1.00  0.00     0.118 A 
HETATM   14  C   UNL     1     -40.396  54.386 -48.421  1.00  0.00     0.137 A 
HETATM   15  N   UNL     1     -41.636  54.798 -48.811  1.00  0.00    -0.235 NA
BRANCH  12  16
HETATM   16  C   UNL     1     -40.394  53.095 -51.778  1.00  0.00     0.047 A 
HETATM   17  C   UNL     1     -40.519  53.899 -52.928  1.00  0.00     0.037 A 
HETATM   18  C   UNL     1     -40.307  53.378 -54.211  1.00  0.00    -0.060 A 
HETATM   19  C   UNL     1     -40.484  54.234 -55.431  1.00  0.00     0.048 C 
HETATM   20  C   UNL     1     -39.926  52.045 -54.342  1.00  0.00     0.007 A 
HETATM   21  C   UNL     1     -39.774  51.241 -53.211  1.00  0.00     0.009 A 
HETATM   22  C   UNL     1     -40.023  51.740 -51.918  1.00  0.00    -0.035 A 
HETATM   23  C   UNL     1     -39.906  50.761 -50.780  1.00  0.00     0.050 C 
ENDBRANCH  12  16
ENDBRANCH  10  11
ENDBRANCH   9  10
ENDBRANCH   1   9
BRANCH   4  24
HETATM   24  C   UNL     1     -42.226  59.386 -56.337  1.00  0.00     0.130 C 
BRANCH  24  25
HETATM   25  N   UNL     1     -42.951  60.034 -57.416  1.00  0.00    -0.342 N 
HETATM   26  C   UNL     1     -43.818  59.514 -58.330  1.00  0.00     0.320 C 
HETATM   27  N   UNL     1     -43.979  58.158 -58.293  1.00  0.00    -0.309 N 
HETATM   28  O   UNL     1     -44.370  60.298 -59.095  1.00  0.00    -0.247 OA
HETATM   29  H   UNL     1     -43.471  57.670 -57.575  1.00  0.00     0.170 HD
HETATM   30  H   UNL     1     -42.955  61.048 -57.454  1.00  0.00     0.164 HD
BRANCH  27  31
HETATM   31  C   UNL     1     -44.794  57.363 -59.126  1.00  0.00     0.039 A 
HETATM   32  C   UNL     1     -44.302  56.435 -60.045  1.00  0.00     0.071 A 
HETATM   33  C   UNL     1     -45.189  55.695 -60.823  1.00  0.00     0.118 A 
HETATM   34  F   UNL     1     -44.710  54.807 -61.705  1.00  0.00    -0.206 F 
HETATM   35  C   UNL     1     -46.564  55.858 -60.705  1.00  0.00     0.042 A 
HETATM   36  C   UNL     1     -47.066  56.780 -59.793  1.00  0.00     0.005 A 
HETATM   37  C   UNL     1     -46.183  57.528 -59.007  1.00  0.00     0.030 A 
ENDBRANCH  27  31
ENDBRANCH  24  25
ENDBRANCH   4  24
TORSDOF 7
ENDMDL
MODEL 9
REMARK VINA RESULT:      -8.1      2.789      6.869
REMARK  7 active torsions:
REMARK  status: ('A' for Active; 'I' for Inactive)
REMARK    1  A    between atoms: C_4  and  N_5 
REMARK    2  A    between atoms: C_6  and  S_7 
REMARK    3  A    between atoms: S_7  and  C_8 
REMARK    4  A    between atoms: C_8  and  C_9 
REMARK       I    between atoms: C_9  and  N_10 
REMARK    5  A    between atoms: C_12  and  C_13 
REMARK    6  A    between atoms: C_13  and  N_14 
REMARK       I    between atoms: N_14  and  C_15 
REMARK       I    between atoms: C_15  and  N_16 
REMARK    7  A    between atoms: N_16  and  C_17 
ROOT
HETATM    1  C   UNL     1     -40.663  59.075 -52.433  1.00  0.00     0.229 C 
HETATM    2  N   UNL     1     -41.839  59.796 -52.713  1.00  0.00    -0.351 N 
HETATM    3  C   UNL     1     -42.098  60.035 -54.136  1.00  0.00     0.132 C 
HETATM    4  C   UNL     1     -43.560  60.394 -54.407  1.00  0.00     0.021 C 
HETATM    5  C   UNL     1     -43.922  61.640 -53.591  1.00  0.00     0.009 C 
HETATM    6  C   UNL     1     -43.742  61.333 -52.112  1.00  0.00     0.020 C 
HETATM    7  C   UNL     1     -42.347  60.809 -51.786  1.00  0.00     0.126 C 
HETATM    8  O   UNL     1     -39.917  58.717 -53.352  1.00  0.00    -0.273 OA
ENDROOT
BRANCH   1   9
HETATM    9  C   UNL     1     -40.426  58.542 -51.025  1.00  0.00     0.185 C 
BRANCH   9  10
HETATM   10  S   UNL     1     -41.020  56.884 -50.655  1.00  0.00    -0.082 SA
BRANCH  10  11
HETATM   11  C   UNL     1     -42.509  56.781 -51.530  1.00  0.00     0.173 A 
HETATM   12  N   UNL     1     -42.703  55.993 -52.663  1.00  0.00    -0.299 N 
HETATM   13  C   UNL     1     -43.988  56.285 -53.080  1.00  0.00     0.118 A 
HETATM   14  C   UNL     1     -44.483  57.216 -52.200  1.00  0.00     0.137 A 
HETATM   15  N   UNL     1     -43.559  57.515 -51.243  1.00  0.00    -0.235 NA
BRANCH  12  16
HETATM   16  C   UNL     1     -41.818  55.059 -53.286  1.00  0.00     0.047 A 
HETATM   17  C   UNL     1     -41.333  53.981 -52.519  1.00  0.00     0.037 A 
HETATM   18  C   UNL     1     -40.448  53.040 -53.059  1.00  0.00    -0.060 A 
HETATM   19  C   UNL     1     -39.904  51.920 -52.220  1.00  0.00     0.048 C 
HETATM   20  C   UNL     1     -40.073  53.156 -54.396  1.00  0.00     0.007 A 
HETATM   21  C   UNL     1     -40.564  54.203 -55.176  1.00  0.00     0.009 A 
HETATM   22  C   UNL     1     -41.423  55.180 -54.636  1.00  0.00    -0.035 A 
HETATM   23  C   UNL     1     -41.824  56.309 -55.549  1.00  0.00     0.050 C 
ENDBRANCH  12  16
ENDBRANCH  10  11
ENDBRANCH   9  10
ENDBRANCH   1   9
BRANCH   4  24
HETATM   24  C   UNL     1     -43.811  60.595 -55.905  1.00  0.00     0.130 C 
BRANCH  24  25
HETATM   25  N   UNL     1     -42.829  59.889 -56.709  1.00  0.00    -0.342 N 
HETATM   26  C   UNL     1     -42.995  58.911 -57.643  1.00  0.00     0.320 C 
HETATM   27  N   UNL     1     -44.273  58.453 -57.803  1.00  0.00    -0.309 N 
HETATM   28  O   UNL     1     -41.999  58.534 -58.250  1.00  0.00    -0.247 OA
HETATM   29  H   UNL     1     -44.978  58.900 -57.243  1.00  0.00     0.170 HD
HETATM   30  H   UNL     1     -41.874  60.231 -56.714  1.00  0.00     0.164 HD
BRANCH  27  31
HETATM   31  C   UNL     1     -44.723  57.444 -58.681  1.00  0.00     0.039 A 
HETATM   32  C   UNL     1     -44.083  56.216 -58.854  1.00  0.00     0.071 A 
HETATM   33  C   UNL     1     -44.607  55.282 -59.744  1.00  0.00     0.118 A 
HETATM   34  F   UNL     1     -43.986  54.107 -59.908  1.00  0.00    -0.206 F 
HETATM   35  C   UNL     1     -45.764  55.543 -60.468  1.00  0.00     0.042 A 
HETATM   36  C   UNL     1     -46.412  56.763 -60.303  1.00  0.00     0.005 A 
HETATM   37  C   UNL     1     -45.892  57.708 -59.412  1.00  0.00     0.030 A 
ENDBRANCH  27  31
ENDBRANCH  24  25
ENDBRANCH   4  24
TORSDOF 7
ENDMDL
MODEL 10
REMARK VINA RESULT:      -8.1      1.904      2.446
REMARK  7 active torsions:
REMARK  status: ('A' for Active; 'I' for Inactive)
REMARK    1  A    between atoms: C_4  and  N_5 
REMARK    2  A    between atoms: C_6  and  S_7 
REMARK    3  A    between atoms: S_7  and  C_8 
REMARK    4  A    between atoms: C_8  and  C_9 
REMARK       I    between atoms: C_9  and  N_10 
REMARK    5  A    between atoms: C_12  and  C_13 
REMARK    6  A    between atoms: C_13  and  N_14 
REMARK       I    between atoms: N_14  and  C_15 
REMARK       I    between atoms: C_15  and  N_16 
REMARK    7  A    between atoms: N_16  and  C_17 
ROOT
HETATM    1  C   UNL     1     -42.396  59.899 -55.080  1.00  0.00     0.229 C 
HETATM    2  N   UNL     1     -42.847  59.680 -53.764  1.00  0.00    -0.351 N 
HETATM    3  C   UNL     1     -42.020  58.768 -52.968  1.00  0.00     0.132 C 
HETATM    4  C   UNL     1     -42.270  58.921 -51.466  1.00  0.00     0.021 C 
HETATM    5  C   UNL     1     -43.755  58.665 -51.185  1.00  0.00     0.009 C 
HETATM    6  C   UNL     1     -44.587  59.689 -51.943  1.00  0.00     0.020 C 
HETATM    7  C   UNL     1     -44.273  59.711 -53.437  1.00  0.00     0.126 C 
HETATM    8  O   UNL     1     -41.388  59.318 -55.499  1.00  0.00    -0.273 OA
ENDROOT
BRANCH   1   9
HETATM    9  C   UNL     1     -43.014  61.018 -55.910  1.00  0.00     0.185 C 
BRANCH   9  10
HETATM   10  S   UNL     1     -42.932  60.865 -57.701  1.00  0.00    -0.082 SA
BRANCH  10  11
HETATM   11  C   UNL     1     -44.509  60.299 -58.133  1.00  0.00     0.173 A 
HETATM   12  N   UNL     1     -44.915  58.969 -58.061  1.00  0.00    -0.299 N 
HETATM   13  C   UNL     1     -46.196  58.961 -58.581  1.00  0.00     0.118 A 
HETATM   14  C   UNL     1     -46.481  60.256 -58.936  1.00  0.00     0.137 A 
HETATM   15  N   UNL     1     -45.430  61.078 -58.654  1.00  0.00    -0.235 NA
BRANCH  12  16
HETATM   16  C   UNL     1     -44.217  57.829 -57.552  1.00  0.00     0.047 A 
HETATM   17  C   UNL     1     -44.396  57.482 -56.198  1.00  0.00     0.037 A 
HETATM   18  C   UNL     1     -43.728  56.391 -55.629  1.00  0.00    -0.060 A 
HETATM   19  C   UNL     1     -43.893  56.057 -54.175  1.00  0.00     0.048 C 
HETATM   20  C   UNL     1     -42.901  55.611 -56.434  1.00  0.00     0.007 A 
HETATM   21  C   UNL     1     -42.733  55.926 -57.783  1.00  0.00     0.009 A 
HETATM   22  C   UNL     1     -43.365  57.044 -58.360  1.00  0.00    -0.035 A 
HETATM   23  C   UNL     1     -43.046  57.334 -59.803  1.00  0.00     0.050 C 
ENDBRANCH  12  16
ENDBRANCH  10  11
ENDBRANCH   9  10
ENDBRANCH   1   9
BRANCH   4  24
HETATM   24  C   UNL     1     -41.364  57.988 -50.657  1.00  0.00     0.130 C 
BRANCH  24  25
HETATM   25  N   UNL     1     -42.068  56.786 -50.246  1.00  0.00    -0.342 N 
HETATM   26  C   UNL     1     -41.903  55.492 -50.640  1.00  0.00     0.320 C 
HETATM   27  N   UNL     1     -40.992  55.285 -51.637  1.00  0.00    -0.309 N 
HETATM   28  O   UNL     1     -42.576  54.638 -50.071  1.00  0.00    -0.247 OA
HETATM   29  H   UNL     1     -40.503  56.099 -51.968  1.00  0.00     0.170 HD
HETATM   30  H   UNL     1     -42.692  56.841 -49.449  1.00  0.00     0.164 HD
BRANCH  27  31
HETATM   31  C   UNL     1     -40.639  54.060 -52.242  1.00  0.00     0.039 A 
HETATM   32  C   UNL     1     -40.009  53.011 -51.572  1.00  0.00     0.071 A 
HETATM   33  C   UNL     1     -39.702  51.837 -52.256  1.00  0.00     0.118 A 
HETATM   34  F   UNL     1     -39.096  50.835 -51.607  1.00  0.00    -0.206 F 
HETATM   35  C   UNL     1     -40.013  51.683 -53.602  1.00  0.00     0.042 A 
HETATM   36  C   UNL     1     -40.641  52.722 -54.281  1.00  0.00     0.005 A 
HETATM   37  C   UNL     1     -40.952  53.904 -53.601  1.00  0.00     0.030 A 
ENDBRANCH  27  31
ENDBRANCH  24  25
ENDBRANCH   4  24
TORSDOF 7
ENDMDL
